data_image0
_chemical_formula_structural       Mn4H28C28N4O24
_chemical_formula_sum              "Mn4 H28 C28 N4 O24"
_cell_length_a       6.25185
_cell_length_b       10.6285
_cell_length_c       14.553
_cell_angle_alpha    106.867
_cell_angle_beta     90.029
_cell_angle_gamma    107.086

_space_group_name_H-M_alt    "P 1"
_space_group_IT_number       1

loop_
  _space_group_symop_operation_xyz
  'x, y, z'

loop_
  _atom_site_type_symbol
  _atom_site_label
  _atom_site_symmetry_multiplicity
  _atom_site_fract_x
  _atom_site_fract_y
  _atom_site_fract_z
  _atom_site_occupancy
  Mn  Mn1       1.0  0.57718  0.38412  0.71047  1.0000
  Mn  Mn2       1.0  0.19299  0.61592  0.78952  1.0000
  Mn  Mn3       1.0  0.42282  0.61589  0.28953  1.0000
  Mn  Mn4       1.0  0.80700  0.38409  0.21049  1.0000
  H   H1        1.0  0.53996  0.06719  0.58355  1.0000
  H   H2        1.0  0.47264  0.93290  0.91631  1.0000
  H   H3        1.0  0.46000  0.93280  0.41644  1.0000
  H   H4        1.0  0.52736  0.06708  0.08369  1.0000
  H   H5        1.0  0.25464  0.83388  0.54583  1.0000
  H   H6        1.0  0.42039  0.16617  0.95403  1.0000
  H   H7        1.0  0.74533  0.16613  0.45417  1.0000
  H   H8        1.0  0.57963  0.83382  0.04597  1.0000
  H   H9        1.0  0.77014  0.03886  0.66380  1.0000
  H   H10       1.0  0.73071  0.96114  0.83624  1.0000
  H   H11       1.0  0.22983  0.96114  0.33621  1.0000
  H   H12       1.0  0.26929  0.03885  0.16377  1.0000
  H   H13       1.0  0.53583  0.36128  0.51495  1.0000
  H   H14       1.0  0.17480  0.63870  0.98498  1.0000
  H   H15       1.0  0.46417  0.63871  0.48506  1.0000
  H   H16       1.0  0.82521  0.36129  0.01502  1.0000
  H   H17       1.0  0.67647  0.30865  0.86789  1.0000
  H   H18       1.0  0.36796  0.69147  0.63223  1.0000
  H   H19       1.0  0.32354  0.69134  0.13211  1.0000
  H   H20       1.0  0.63202  0.30852  0.36777  1.0000
  H   H21       1.0  0.69784  0.51791  0.56857  1.0000
  H   H22       1.0  0.18001  0.48202  0.93134  1.0000
  H   H23       1.0  0.30215  0.48208  0.43143  1.0000
  H   H24       1.0  0.82001  0.51796  0.06866  1.0000
  H   H25       1.0  0.43795  0.33967  0.88349  1.0000
  H   H26       1.0  0.09839  0.66038  0.61644  1.0000
  H   H27       1.0  0.56206  0.66031  0.11651  1.0000
  H   H28       1.0  0.90159  0.33961  0.38356  1.0000
  C   C1        1.0  0.36698  0.05609  0.59998  1.0000
  C   C2        1.0  0.31064  0.94399  0.89994  1.0000
  C   C3        1.0  0.63300  0.94391  0.40001  1.0000
  C   C4        1.0  0.68937  0.05601  0.10006  1.0000
  C   C5        1.0  0.20745  0.92617  0.57981  1.0000
  C   C6        1.0  0.28089  0.07388  0.92015  1.0000
  C   C7        1.0  0.79254  0.07383  0.42019  1.0000
  C   C8        1.0  0.71913  0.92611  0.07985  1.0000
  C   C9        1.0  0.98796  0.91733  0.60357  1.0000
  C   C10       1.0  0.07013  0.08270  0.89646  1.0000
  C   C11       1.0  0.01203  0.08266  0.39642  1.0000
  C   C12       1.0  0.92989  0.91730  0.10353  1.0000
  C   C13       1.0  0.93807  0.04042  0.64388  1.0000
  C   C14       1.0  0.89717  0.95959  0.85616  1.0000
  C   C15       1.0  0.06192  0.95957  0.35611  1.0000
  C   C16       1.0  0.10284  0.04041  0.14384  1.0000
  C   C17       1.0  0.10607  0.16606  0.65939  1.0000
  C   C18       1.0  0.93967  0.83394  0.84059  1.0000
  C   C19       1.0  0.89394  0.83394  0.34061  1.0000
  C   C20       1.0  0.06032  0.16605  0.15941  1.0000
  C   C21       1.0  0.05468  0.30030  0.69733  1.0000
  C   C22       1.0  0.75422  0.69971  0.80268  1.0000
  C   C23       1.0  0.94528  0.69971  0.30267  1.0000
  C   C24       1.0  0.24581  0.30029  0.19733  1.0000
  C   C25       1.0  0.80686  0.78002  0.58502  1.0000
  C   C26       1.0  0.02633  0.22001  0.91500  1.0000
  C   C27       1.0  0.19314  0.21998  0.41499  1.0000
  C   C28       1.0  0.97368  0.77998  0.08500  1.0000
  N   N1        1.0  0.31979  0.17438  0.63980  1.0000
  N   N2        1.0  0.14517  0.82567  0.86015  1.0000
  N   N3        1.0  0.68023  0.82562  0.36019  1.0000
  N   N4        1.0  0.85483  0.17431  0.13986  1.0000
  O   O1        1.0  0.22409  0.40957  0.72891  1.0000
  O   O2        1.0  0.81443  0.59046  0.77111  1.0000
  O   O3        1.0  0.77593  0.59043  0.27109  1.0000
  O   O4        1.0  0.18556  0.40955  0.22889  1.0000
  O   O5        1.0  0.85123  0.29514  0.69495  1.0000
  O   O6        1.0  0.55591  0.70481  0.80503  1.0000
  O   O7        1.0  0.14875  0.70485  0.30505  1.0000
  O   O8        1.0  0.44409  0.29519  0.19496  1.0000
  O   O9        1.0  0.86910  0.67292  0.57050  1.0000
  O   O10       1.0  0.19573  0.32703  0.92941  1.0000
  O   O11       1.0  0.13088  0.32709  0.42950  1.0000
  O   O12       1.0  0.80430  0.67296  0.07060  1.0000
  O   O13       1.0  0.60422  0.78135  0.58360  1.0000
  O   O14       1.0  0.82242  0.21879  0.91650  1.0000
  O   O15       1.0  0.39576  0.21863  0.41640  1.0000
  O   O16       1.0  0.17760  0.78120  0.08350  1.0000
  O   O17       1.0  0.61036  0.42768  0.57764  1.0000
  O   O18       1.0  0.18313  0.57235  0.92230  1.0000
  O   O19       1.0  0.38965  0.57232  0.42236  1.0000
  O   O20       1.0  0.81688  0.42763  0.07770  1.0000
  O   O21       1.0  0.57539  0.35405  0.84783  1.0000
  O   O22       1.0  0.22151  0.64604  0.65219  1.0000
  O   O23       1.0  0.42461  0.64593  0.15217  1.0000
  O   O24       1.0  0.77848  0.35395  0.34781  1.0000
