data_image0
_chemical_formula_structural       Cu6H20C32O24
_chemical_formula_sum              "Cu6 H20 C32 O24"
_cell_length_a       5.03554
_cell_length_b       10.4227
_cell_length_c       15.3688
_cell_angle_alpha    90.0059
_cell_angle_beta     90.6204
_cell_angle_gamma    89.9988

_space_group_name_H-M_alt    "P 1"
_space_group_IT_number       1

loop_
  _space_group_symop_operation_xyz
  'x, y, z'

loop_
  _atom_site_type_symbol
  _atom_site_label
  _atom_site_symmetry_multiplicity
  _atom_site_fract_x
  _atom_site_fract_y
  _atom_site_fract_z
  _atom_site_occupancy
  Cu  Cu1       1.0  0.49945  0.50015  0.49987  1.0000
  Cu  Cu2       1.0  0.49945  0.99985  0.99987  1.0000
  Cu  Cu3       1.0  0.40052  0.86605  0.48731  1.0000
  Cu  Cu4       1.0  0.59969  0.36610  0.01271  1.0000
  Cu  Cu5       1.0  0.59970  0.13391  0.51270  1.0000
  Cu  Cu6       1.0  0.40055  0.63395  0.98732  1.0000
  H   H1        1.0  0.27302  0.35922  0.61362  1.0000
  H   H2        1.0  0.72665  0.85900  0.88625  1.0000
  H   H3        1.0  0.72665  0.64098  0.38626  1.0000
  H   H4        1.0  0.27302  0.14079  0.11362  1.0000
  H   H5        1.0  0.10627  0.49151  0.59722  1.0000
  H   H6        1.0  0.89317  0.99124  0.90278  1.0000
  H   H7        1.0  0.89320  0.50874  0.40279  1.0000
  H   H8        1.0  0.10631  0.00849  0.09722  1.0000
  H   H9        1.0  0.37702  0.03324  0.73210  1.0000
  H   H10       1.0  0.62307  0.53321  0.76792  1.0000
  H   H11       1.0  0.62304  0.96675  0.26791  1.0000
  H   H12       1.0  0.37698  0.46679  0.23212  1.0000
  H   H13       1.0  0.40040  0.80248  0.77517  1.0000
  H   H14       1.0  0.59961  0.30244  0.72487  1.0000
  H   H15       1.0  0.59961  0.19752  0.22487  1.0000
  H   H16       1.0  0.40039  0.69757  0.27518  1.0000
  H   H17       1.0  0.10186  0.64635  0.70068  1.0000
  H   H18       1.0  0.89819  0.14635  0.79937  1.0000
  H   H19       1.0  0.89820  0.35363  0.29937  1.0000
  H   H20       1.0  0.10188  0.85368  0.20068  1.0000
  C   C1        1.0  0.89250  0.78807  0.62596  1.0000
  C   C2        1.0  0.10763  0.28810  0.87404  1.0000
  C   C3        1.0  0.10764  0.21187  0.37405  1.0000
  C   C4        1.0  0.89254  0.71196  0.12596  1.0000
  C   C5        1.0  0.86606  0.92115  0.60581  1.0000
  C   C6        1.0  0.13415  0.42121  0.89415  1.0000
  C   C7        1.0  0.13415  0.07876  0.39416  1.0000
  C   C8        1.0  0.86609  0.57887  0.10582  1.0000
  C   C9        1.0  0.05099  0.00937  0.64329  1.0000
  C   C10       1.0  0.94913  0.50941  0.85670  1.0000
  C   C11       1.0  0.94913  0.99058  0.35670  1.0000
  C   C12       1.0  0.05100  0.49064  0.14330  1.0000
  C   C13       1.0  0.23859  0.96395  0.70417  1.0000
  C   C14       1.0  0.76151  0.46394  0.79585  1.0000
  C   C15       1.0  0.76147  0.03604  0.29586  1.0000
  C   C16       1.0  0.23858  0.53608  0.20418  1.0000
  C   C17       1.0  0.25418  0.83539  0.72765  1.0000
  C   C18       1.0  0.74586  0.33538  0.77238  1.0000
  C   C19       1.0  0.74583  0.16460  0.27239  1.0000
  C   C20       1.0  0.25417  0.66465  0.22766  1.0000
  C   C21       1.0  0.08567  0.74848  0.68663  1.0000
  C   C22       1.0  0.91438  0.24848  0.81339  1.0000
  C   C23       1.0  0.91437  0.25149  0.31340  1.0000
  C   C24       1.0  0.08570  0.75155  0.18664  1.0000
  C   C25       1.0  0.73488  0.68749  0.58227  1.0000
  C   C26       1.0  0.26512  0.18760  0.91778  1.0000
  C   C27       1.0  0.26515  0.31238  0.41777  1.0000
  C   C28       1.0  0.73494  0.81253  0.08226  1.0000
  C   C29       1.0  0.07323  0.14743  0.61752  1.0000
  C   C30       1.0  0.92694  0.64742  0.88250  1.0000
  C   C31       1.0  0.92690  0.85255  0.38249  1.0000
  C   C32       1.0  0.07319  0.35260  0.11753  1.0000
  O   O1        1.0  0.80746  0.56999  0.58536  1.0000
  O   O2        1.0  0.19273  0.07007  0.91464  1.0000
  O   O3        1.0  0.19278  0.42992  0.41465  1.0000
  O   O4        1.0  0.80754  0.93002  0.08535  1.0000
  O   O5        1.0  0.51736  0.71026  0.53928  1.0000
  O   O6        1.0  0.48240  0.21032  0.96091  1.0000
  O   O7        1.0  0.48241  0.28965  0.46091  1.0000
  O   O8        1.0  0.51741  0.78977  0.03928  1.0000
  O   O9        1.0  0.67924  0.96113  0.54968  1.0000
  O   O10       1.0  0.32118  0.46121  0.95023  1.0000
  O   O11       1.0  0.32116  0.03877  0.45023  1.0000
  O   O12       1.0  0.67926  0.53888  0.04968  1.0000
  O   O13       1.0  0.89469  0.20614  0.57161  1.0000
  O   O14       1.0  0.10552  0.70616  0.92836  1.0000
  O   O15       1.0  0.10551  0.79383  0.42835  1.0000
  O   O16       1.0  0.89465  0.29386  0.07164  1.0000
  O   O17       1.0  0.28069  0.20819  0.64078  1.0000
  O   O18       1.0  0.71936  0.70814  0.85929  1.0000
  O   O19       1.0  0.71929  0.79184  0.35930  1.0000
  O   O20       1.0  0.28065  0.29184  0.14079  1.0000
  O   O21       1.0  0.28902  0.45549  0.60242  1.0000
  O   O22       1.0  0.71049  0.95531  0.89740  1.0000
  O   O23       1.0  0.71052  0.54468  0.39742  1.0000
  O   O24       1.0  0.28905  0.04452  0.10243  1.0000
