data_image0
_chemical_formula_structural       Co4H28C36N16O8
_chemical_formula_sum              "Co4 H28 C36 N16 O8"
_cell_length_a       8.84672
_cell_length_b       9.94405
_cell_length_c       15.9876
_cell_angle_alpha    100.098
_cell_angle_beta     90.001
_cell_angle_gamma    90.0001

_space_group_name_H-M_alt    "P 1"
_space_group_IT_number       1

loop_
  _space_group_symop_operation_xyz
  'x, y, z'

loop_
  _atom_site_type_symbol
  _atom_site_label
  _atom_site_symmetry_multiplicity
  _atom_site_fract_x
  _atom_site_fract_y
  _atom_site_fract_z
  _atom_site_occupancy
  Co  Co1       1.0  0.07026  0.86529  0.91114  1.0000
  Co  Co2       1.0  0.57028  0.63470  0.08886  1.0000
  Co  Co3       1.0  0.92975  0.13471  0.08886  1.0000
  Co  Co4       1.0  0.42973  0.36529  0.91114  1.0000
  H   H1        1.0  0.35789  0.86814  0.13858  1.0000
  H   H2        1.0  0.85791  0.63185  0.86141  1.0000
  H   H3        1.0  0.64208  0.13185  0.86142  1.0000
  H   H4        1.0  0.14211  0.36815  0.13858  1.0000
  H   H5        1.0  0.23219  0.94947  0.07724  1.0000
  H   H6        1.0  0.73220  0.55050  0.92276  1.0000
  H   H7        1.0  0.76780  0.05050  0.92276  1.0000
  H   H8        1.0  0.26781  0.44948  0.07724  1.0000
  H   H9        1.0  0.95741  0.53687  0.64894  1.0000
  H   H10       1.0  0.45740  0.96314  0.35106  1.0000
  H   H11       1.0  0.04259  0.46313  0.35106  1.0000
  H   H12       1.0  0.54256  0.03685  0.64895  1.0000
  H   H13       1.0  0.13843  0.62702  0.41332  1.0000
  H   H14       1.0  0.63843  0.87299  0.58667  1.0000
  H   H15       1.0  0.86157  0.37301  0.58667  1.0000
  H   H16       1.0  0.36157  0.12702  0.41332  1.0000
  H   H17       1.0  0.25273  0.83516  0.49178  1.0000
  H   H18       1.0  0.75275  0.66485  0.50823  1.0000
  H   H19       1.0  0.74728  0.16485  0.50823  1.0000
  H   H20       1.0  0.24726  0.33515  0.49177  1.0000
  H   H21       1.0  0.21757  0.89954  0.64906  1.0000
  H   H22       1.0  0.71758  0.60047  0.35094  1.0000
  H   H23       1.0  0.78242  0.10048  0.35095  1.0000
  H   H24       1.0  0.28241  0.39953  0.64906  1.0000
  H   H25       1.0  0.20246  0.56349  0.85054  1.0000
  H   H26       1.0  0.70246  0.93650  0.14946  1.0000
  H   H27       1.0  0.79756  0.43651  0.14946  1.0000
  H   H28       1.0  0.29754  0.06350  0.85055  1.0000
  C   C1        1.0  0.06170  0.75296  0.75045  1.0000
  C   C2        1.0  0.56173  0.74705  0.24955  1.0000
  C   C3        1.0  0.93831  0.24705  0.24955  1.0000
  C   C4        1.0  0.43828  0.25295  0.75045  1.0000
  C   C5        1.0  0.08442  0.72000  0.65680  1.0000
  C   C6        1.0  0.58443  0.78001  0.34319  1.0000
  C   C7        1.0  0.91560  0.28000  0.34320  1.0000
  C   C8        1.0  0.41557  0.22000  0.65681  1.0000
  C   C9        1.0  0.02039  0.60002  0.61196  1.0000
  C   C10       1.0  0.52036  0.89998  0.38804  1.0000
  C   C11       1.0  0.97959  0.40001  0.38803  1.0000
  C   C12       1.0  0.47960  0.10001  0.61197  1.0000
  C   C13       1.0  0.03594  0.56304  0.52357  1.0000
  C   C14       1.0  0.53593  0.93696  0.47643  1.0000
  C   C15       1.0  0.96409  0.43696  0.47643  1.0000
  C   C16       1.0  0.46408  0.06305  0.52357  1.0000
  C   C17       1.0  0.12168  0.65085  0.48180  1.0000
  C   C18       1.0  0.62173  0.84918  0.51820  1.0000
  C   C19       1.0  0.87833  0.34916  0.51820  1.0000
  C   C20       1.0  0.37831  0.15084  0.48180  1.0000
  C   C21       1.0  0.18665  0.77012  0.52614  1.0000
  C   C22       1.0  0.68664  0.72990  0.47386  1.0000
  C   C23       1.0  0.81334  0.22991  0.47386  1.0000
  C   C24       1.0  0.31334  0.27011  0.52614  1.0000
  C   C25       1.0  0.16803  0.80627  0.61376  1.0000
  C   C26       1.0  0.66799  0.69373  0.38624  1.0000
  C   C27       1.0  0.83202  0.19372  0.38624  1.0000
  C   C28       1.0  0.33199  0.30628  0.61376  1.0000
  C   C29       1.0  0.24720  0.60969  0.91199  1.0000
  C   C30       1.0  0.74720  0.89029  0.08801  1.0000
  C   C31       1.0  0.75281  0.39030  0.08801  1.0000
  C   C32       1.0  0.25280  0.10970  0.91199  1.0000
  C   C33       1.0  0.28955  0.75307  0.02695  1.0000
  C   C34       1.0  0.78956  0.74693  0.97306  1.0000
  C   C35       1.0  0.71043  0.24693  0.97307  1.0000
  C   C36       1.0  0.21044  0.25307  0.02694  1.0000
  N   N1        1.0  0.34713  0.55011  0.95493  1.0000
  N   N2        1.0  0.84712  0.94986  0.04506  1.0000
  N   N3        1.0  0.65289  0.44987  0.04507  1.0000
  N   N4        1.0  0.15287  0.05012  0.95493  1.0000
  N   N5        1.0  0.37593  0.64119  0.03051  1.0000
  N   N6        1.0  0.87594  0.85880  0.96948  1.0000
  N   N7        1.0  0.62405  0.35880  0.96948  1.0000
  N   N8        1.0  0.12406  0.14119  0.03051  1.0000
  N   N9        1.0  0.20730  0.73586  0.95346  1.0000
  N   N10       1.0  0.70730  0.76412  0.04655  1.0000
  N   N11       1.0  0.79271  0.26411  0.04655  1.0000
  N   N12       1.0  0.29269  0.23587  0.95346  1.0000
  N   N13       1.0  0.28489  0.86380  0.08832  1.0000
  N   N14       1.0  0.78491  0.63618  0.91168  1.0000
  N   N15       1.0  0.71509  0.13618  0.91169  1.0000
  N   N16       1.0  0.21510  0.36381  0.08832  1.0000
  O   O1        1.0  0.10616  0.87108  0.79048  1.0000
  O   O2        1.0  0.60616  0.62892  0.20953  1.0000
  O   O3        1.0  0.89384  0.12893  0.20952  1.0000
  O   O4        1.0  0.39382  0.37107  0.79048  1.0000
  O   O5        1.0  0.00190  0.66679  0.78994  1.0000
  O   O6        1.0  0.50190  0.83321  0.21005  1.0000
  O   O7        1.0  0.99810  0.33323  0.21006  1.0000
  O   O8        1.0  0.49808  0.16678  0.78994  1.0000
