data_image0
_chemical_formula_structural       Cu3H24C39N9
_chemical_formula_sum              "Cu3 H24 C39 N9"
_cell_length_a       9.0767
_cell_length_b       9.07668
_cell_length_c       11.599
_cell_angle_alpha    90.0006
_cell_angle_beta     89.9995
_cell_angle_gamma    120

_space_group_name_H-M_alt    "P 1"
_space_group_IT_number       1

loop_
  _space_group_symop_operation_xyz
  'x, y, z'

loop_
  _atom_site_type_symbol
  _atom_site_label
  _atom_site_symmetry_multiplicity
  _atom_site_fract_x
  _atom_site_fract_y
  _atom_site_fract_z
  _atom_site_occupancy
  Cu  Cu1       1.0  0.99429  0.19180  0.00983  1.0000
  Cu  Cu2       1.0  0.80819  0.80250  0.34316  1.0000
  Cu  Cu3       1.0  0.19750  0.00571  0.67649  1.0000
  H   H1        1.0  0.62205  0.07111  0.91031  1.0000
  H   H2        1.0  0.92888  0.55093  0.24364  1.0000
  H   H3        1.0  0.44907  0.37795  0.57697  1.0000
  H   H4        1.0  0.44843  0.21416  0.88385  1.0000
  H   H5        1.0  0.78584  0.23427  0.21718  1.0000
  H   H6        1.0  0.76573  0.55157  0.55051  1.0000
  H   H7        1.0  0.58729  0.52876  0.91901  1.0000
  H   H8        1.0  0.47124  0.05852  0.25234  1.0000
  H   H9        1.0  0.94148  0.41272  0.58567  1.0000
  H   H10       1.0  0.85787  0.80668  0.96936  1.0000
  H   H11       1.0  0.19332  0.05118  0.30270  1.0000
  H   H12       1.0  0.94881  0.14213  0.63604  1.0000
  H   H13       1.0  0.37705  0.44261  0.08909  1.0000
  H   H14       1.0  0.55739  0.93444  0.42243  1.0000
  H   H15       1.0  0.06556  0.62295  0.75576  1.0000
  H   H16       1.0  0.55639  0.75958  0.11406  1.0000
  H   H17       1.0  0.24042  0.79682  0.44740  1.0000
  H   H18       1.0  0.20318  0.44361  0.78074  1.0000
  H   H19       1.0  0.42234  0.93952  0.07992  1.0000
  H   H20       1.0  0.06048  0.48282  0.41325  1.0000
  H   H21       1.0  0.51717  0.57765  0.74659  1.0000
  H   H22       1.0  0.15497  0.95290  0.02902  1.0000
  H   H23       1.0  0.04710  0.20206  0.36236  1.0000
  H   H24       1.0  0.79794  0.84503  0.69569  1.0000
  C   C1        1.0  0.90692  0.04099  0.13223  1.0000
  C   C2        1.0  0.95901  0.86593  0.46556  1.0000
  C   C3        1.0  0.13407  0.09308  0.79889  1.0000
  C   C4        1.0  0.67741  0.20712  0.92652  1.0000
  C   C5        1.0  0.79288  0.47028  0.25985  1.0000
  C   C6        1.0  0.52971  0.32260  0.59318  1.0000
  C   C7        1.0  0.58096  0.28789  0.91136  1.0000
  C   C8        1.0  0.71212  0.29307  0.24470  1.0000
  C   C9        1.0  0.70693  0.41904  0.57803  1.0000
  C   C10       1.0  0.65796  0.46169  0.92989  1.0000
  C   C11       1.0  0.53832  0.19627  0.26323  1.0000
  C   C12       1.0  0.80373  0.34204  0.59656  1.0000
  C   C13       1.0  0.83040  0.55363  0.96395  1.0000
  C   C14       1.0  0.44637  0.27676  0.29729  1.0000
  C   C15       1.0  0.72324  0.16961  0.63062  1.0000
  C   C16       1.0  0.91522  0.45947  0.98055  1.0000
  C   C17       1.0  0.54053  0.45575  0.31389  1.0000
  C   C18       1.0  0.54425  0.08478  0.64722  1.0000
  C   C19       1.0  0.92189  0.73350  0.98256  1.0000
  C   C20       1.0  0.26650  0.18838  0.31590  1.0000
  C   C21       1.0  0.81161  0.07811  0.64923  1.0000
  C   C22       1.0  0.32407  0.52537  0.07317  1.0000
  C   C23       1.0  0.47463  0.79870  0.40650  1.0000
  C   C24       1.0  0.20129  0.67593  0.73983  1.0000
  C   C25       1.0  0.42370  0.70254  0.08738  1.0000
  C   C26       1.0  0.29746  0.72116  0.42071  1.0000
  C   C27       1.0  0.27884  0.57630  0.75404  1.0000
  C   C28       1.0  0.34929  0.80179  0.06927  1.0000
  C   C29       1.0  0.19821  0.54750  0.40260  1.0000
  C   C30       1.0  0.45249  0.65070  0.73593  1.0000
  C   C31       1.0  0.17677  0.72416  0.03572  1.0000
  C   C32       1.0  0.27584  0.45261  0.36906  1.0000
  C   C33       1.0  0.54739  0.82323  0.70238  1.0000
  C   C34       1.0  0.08857  0.54491  0.02005  1.0000
  C   C35       1.0  0.45509  0.54366  0.35338  1.0000
  C   C36       1.0  0.45633  0.91142  0.68671  1.0000
  C   C37       1.0  0.08846  0.81555  0.01640  1.0000
  C   C38       1.0  0.18446  0.27291  0.34974  1.0000
  C   C39       1.0  0.72709  0.91155  0.68307  1.0000
  N   N1        1.0  0.85638  0.94663  0.21119  1.0000
  N   N2        1.0  0.05336  0.90974  0.54452  1.0000
  N   N3        1.0  0.09025  0.14362  0.87786  1.0000
  N   N4        1.0  0.83955  0.28914  0.96077  1.0000
  N   N5        1.0  0.71086  0.55040  0.29411  1.0000
  N   N6        1.0  0.44959  0.16046  0.62744  1.0000
  N   N7        1.0  0.16131  0.44776  0.04054  1.0000
  N   N8        1.0  0.55223  0.71354  0.37387  1.0000
  N   N9        1.0  0.28646  0.83869  0.70720  1.0000
