data_image0
_chemical_formula_structural       Hg2H60C60S8N8
_chemical_formula_sum              "Hg2 H60 C60 S8 N8"
_cell_length_a       8.16151
_cell_length_b       12.4072
_cell_length_c       16.095
_cell_angle_alpha    81.9536
_cell_angle_beta     89.0201
_cell_angle_gamma    86.5643

_space_group_name_H-M_alt    "P 1"
_space_group_IT_number       1

loop_
  _space_group_symop_operation_xyz
  'x, y, z'

loop_
  _atom_site_type_symbol
  _atom_site_label
  _atom_site_symmetry_multiplicity
  _atom_site_fract_x
  _atom_site_fract_y
  _atom_site_fract_z
  _atom_site_occupancy
  Hg  Hg1       1.0  0.73331  0.49022  0.56658  1.0000
  Hg  Hg2       1.0  0.22908  0.51034  0.43270  1.0000
  H   H1        1.0  0.69241  0.84118  0.37813  1.0000
  H   H2        1.0  0.80026  0.88243  0.28417  1.0000
  H   H3        1.0  0.94883  0.85530  0.46024  1.0000
  H   H4        1.0  0.05238  0.90389  0.36628  1.0000
  H   H5        1.0  0.67495  0.96740  0.49405  1.0000
  H   H6        1.0  0.56751  0.15571  0.50516  1.0000
  H   H7        1.0  0.69849  0.31389  0.42314  1.0000
  H   H8        1.0  0.93637  0.28115  0.32878  1.0000
  H   H9        1.0  0.03951  0.09178  0.31557  1.0000
  H   H10       1.0  0.07755  0.77493  0.27083  1.0000
  H   H11       1.0  0.04958  0.63320  0.28739  1.0000
  H   H12       1.0  0.11081  0.77490  0.11835  1.0000
  H   H13       1.0  0.70736  0.74344  0.97330  1.0000
  H   H14       1.0  0.53576  0.68737  0.10170  1.0000
  H   H15       1.0  0.66212  0.67252  0.24231  1.0000
  H   H16       1.0  0.07920  0.11677  0.80418  1.0000
  H   H17       1.0  0.00891  0.14783  0.69993  1.0000
  H   H18       1.0  0.79550  0.08104  0.85631  1.0000
  H   H19       1.0  0.71633  0.12951  0.75508  1.0000
  H   H20       1.0  0.83106  0.03030  0.63123  1.0000
  H   H21       1.0  0.86798  0.84484  0.58938  1.0000
  H   H22       1.0  0.90851  0.68285  0.69743  1.0000
  H   H23       1.0  0.91650  0.70596  0.84918  1.0000
  H   H24       1.0  0.87629  0.89001  0.89137  1.0000
  H   H25       1.0  0.93279  0.23699  0.90888  1.0000
  H   H26       1.0  0.94161  0.37606  0.86548  1.0000
  H   H27       1.0  0.15847  0.22400  0.00500  1.0000
  H   H28       1.0  0.63513  0.26695  0.91931  1.0000
  H   H29       1.0  0.53874  0.34103  0.77480  1.0000
  H   H30       1.0  0.23792  0.35190  0.74549  1.0000
  H   H31       1.0  0.50416  0.21166  0.30545  1.0000
  H   H32       1.0  0.58583  0.21370  0.20283  1.0000
  H   H33       1.0  0.31008  0.19916  0.14489  1.0000
  H   H34       1.0  0.21745  0.21463  0.24375  1.0000
  H   H35       1.0  0.34650  0.01974  0.11298  1.0000
  H   H36       1.0  0.38047  0.81963  0.15738  1.0000
  H   H37       1.0  0.40118  0.74543  0.30972  1.0000
  H   H38       1.0  0.38603  0.87204  0.41589  1.0000
  H   H39       1.0  0.35271  0.07195  0.37201  1.0000
  H   H40       1.0  0.44940  0.49123  0.13334  1.0000
  H   H41       1.0  0.45225  0.36385  0.09321  1.0000
  H   H42       1.0  0.68630  0.36845  0.00423  1.0000
  H   H43       1.0  0.15278  0.39464  0.09273  1.0000
  H   H44       1.0  0.04085  0.44446  0.22959  1.0000
  H   H45       1.0  0.73787  0.44686  0.25451  1.0000
  H   H46       1.0  0.57435  0.67949  0.72369  1.0000
  H   H47       1.0  0.53175  0.54488  0.71092  1.0000
  H   H48       1.0  0.14939  0.58323  0.76476  1.0000
  H   H49       1.0  0.17266  0.57257  0.02182  1.0000
  H   H50       1.0  0.47610  0.59689  0.01511  1.0000
  H   H51       1.0  0.61563  0.62499  0.87440  1.0000
  H   H52       1.0  0.28714  0.79537  0.71683  1.0000
  H   H53       1.0  0.18694  0.79205  0.62106  1.0000
  H   H54       1.0  0.54704  0.84639  0.63906  1.0000
  H   H55       1.0  0.45095  0.83609  0.54313  1.0000
  H   H56       1.0  0.53077  0.01281  0.69484  1.0000
  H   H57       1.0  0.43371  0.20793  0.68337  1.0000
  H   H58       1.0  0.20787  0.28093  0.58518  1.0000
  H   H59       1.0  0.08156  0.15742  0.49818  1.0000
  H   H60       1.0  0.18366  0.96426  0.50720  1.0000
  C   C1        1.0  0.83271  0.64478  0.40221  1.0000
  C   C2        1.0  0.81478  0.84161  0.34899  1.0000
  C   C3        1.0  0.93146  0.90205  0.39736  1.0000
  C   C4        1.0  0.86538  0.01665  0.40401  1.0000
  C   C5        1.0  0.73193  0.03606  0.45712  1.0000
  C   C6        1.0  0.67152  0.14217  0.46375  1.0000
  C   C7        1.0  0.74499  0.23086  0.41769  1.0000
  C   C8        1.0  0.87726  0.21259  0.36430  1.0000
  C   C9        1.0  0.93568  0.10613  0.35697  1.0000
  C   C10       1.0  0.98455  0.71376  0.27407  1.0000
  C   C11       1.0  0.89748  0.72307  0.19147  1.0000
  C   C12       1.0  0.98248  0.75428  0.11631  1.0000
  C   C13       1.0  0.75903  0.73678  0.03614  1.0000
  C   C14       1.0  0.66368  0.70568  0.10714  1.0000
  C   C15       1.0  0.73401  0.69817  0.18605  1.0000
  C   C16       1.0  0.88229  0.34210  0.71698  1.0000
  C   C17       1.0  0.97394  0.15153  0.76566  1.0000
  C   C18       1.0  0.82222  0.08574  0.78873  1.0000
  C   C19       1.0  0.84703  0.97290  0.76433  1.0000
  C   C20       1.0  0.84822  0.95915  0.67918  1.0000
  C   C21       1.0  0.86905  0.85522  0.65556  1.0000
  C   C22       1.0  0.89071  0.76377  0.71656  1.0000
  C   C23       1.0  0.89329  0.77662  0.80140  1.0000
  C   C24       1.0  0.87185  0.88088  0.82492  1.0000
  C   C25       1.0  0.99178  0.29307  0.85994  1.0000
  C   C26       1.0  0.17468  0.28641  0.87317  1.0000
  C   C27       1.0  0.24097  0.24906  0.95245  1.0000
  C   C28       1.0  0.50418  0.27433  0.90513  1.0000
  C   C29       1.0  0.45104  0.31418  0.82422  1.0000
  C   C30       1.0  0.28333  0.32044  0.80811  1.0000
  C   C31       1.0  0.38379  0.41352  0.28165  1.0000
  C   C32       1.0  0.47679  0.23675  0.23881  1.0000
  C   C33       1.0  0.32679  0.18072  0.21313  1.0000
  C   C34       1.0  0.34636  0.05938  0.23923  1.0000
  C   C35       1.0  0.35437  0.98718  0.17953  1.0000
  C   C36       1.0  0.37347  0.87474  0.20459  1.0000
  C   C37       1.0  0.38544  0.83310  0.28962  1.0000
  C   C38       1.0  0.37793  0.90465  0.34948  1.0000
  C   C39       1.0  0.35906  0.01687  0.32459  1.0000
  C   C40       1.0  0.50391  0.40731  0.14096  1.0000
  C   C41       1.0  0.68792  0.40652  0.13091  1.0000
  C   C42       1.0  0.76275  0.38393  0.05590  1.0000
  C   C43       1.0  0.02059  0.39987  0.10483  1.0000
  C   C44       1.0  0.95873  0.42616  0.18129  1.0000
  C   C45       1.0  0.78959  0.42835  0.19478  1.0000
  C   C46       1.0  0.32816  0.60458  0.59499  1.0000
  C   C47       1.0  0.47476  0.62334  0.72373  1.0000
  C   C48       1.0  0.39190  0.60931  0.80831  1.0000
  C   C49       1.0  0.22547  0.58909  0.81905  1.0000
  C   C50       1.0  0.23861  0.58078  0.96188  1.0000
  C   C51       1.0  0.40681  0.59629  0.95811  1.0000
  C   C52       1.0  0.48457  0.61168  0.88013  1.0000
  C   C53       1.0  0.30677  0.77999  0.65170  1.0000
  C   C54       1.0  0.42874  0.85799  0.60646  1.0000
  C   C55       1.0  0.36549  0.97539  0.60136  1.0000
  C   C56       1.0  0.43229  0.04483  0.65168  1.0000
  C   C57       1.0  0.37733  0.15448  0.64531  1.0000
  C   C58       1.0  0.25170  0.19552  0.58985  1.0000
  C   C59       1.0  0.18121  0.12638  0.54079  1.0000
  C   C60       1.0  0.23839  0.01739  0.54633  1.0000
  S   S1        1.0  0.70958  0.67515  0.48586  1.0000
  S   S2        1.0  0.89574  0.51258  0.39373  1.0000
  S   S3        1.0  0.85439  0.47582  0.73069  1.0000
  S   S4        1.0  0.82532  0.29931  0.62355  1.0000
  S   S5        1.0  0.31849  0.34086  0.37556  1.0000
  S   S6        1.0  0.35890  0.55235  0.26397  1.0000
  S   S7        1.0  0.20812  0.66723  0.51181  1.0000
  S   S8        1.0  0.39524  0.47023  0.60014  1.0000
  N   N1        1.0  0.87432  0.72850  0.34463  1.0000
  N   N2        1.0  0.91671  0.76108  0.03995  1.0000
  N   N3        1.0  0.94788  0.26635  0.77753  1.0000
  N   N4        1.0  0.40203  0.24305  0.96925  1.0000
  N   N5        1.0  0.45340  0.35572  0.22399  1.0000
  N   N6        1.0  0.92534  0.37917  0.04249  1.0000
  N   N7        1.0  0.36465  0.66520  0.65453  1.0000
  N   N8        1.0  0.14876  0.57590  0.89379  1.0000
