data_image0
_chemical_formula_structural       Zn2H12C10N16
_chemical_formula_sum              "Zn2 H12 C10 N16"
_cell_length_a       6.0286
_cell_length_b       6.86371
_cell_length_c       10.9368
_cell_angle_alpha    91.5591
_cell_angle_beta     87.9161
_cell_angle_gamma    68.853

_space_group_name_H-M_alt    "P 1"
_space_group_IT_number       1

loop_
  _space_group_symop_operation_xyz
  'x, y, z'

loop_
  _atom_site_type_symbol
  _atom_site_label
  _atom_site_symmetry_multiplicity
  _atom_site_fract_x
  _atom_site_fract_y
  _atom_site_fract_z
  _atom_site_occupancy
  Zn  Zn1       1.0  0.27788  0.94080  0.44726  1.0000
  Zn  Zn2       1.0  0.72212  0.05920  0.55274  1.0000
  H   H1        1.0  0.76319  0.79883  0.32547  1.0000
  H   H2        1.0  0.23680  0.20118  0.67452  1.0000
  H   H3        1.0  0.29281  0.74452  0.98424  1.0000
  H   H4        1.0  0.70720  0.25546  0.01576  1.0000
  H   H5        1.0  0.11296  0.82014  0.19906  1.0000
  H   H6        1.0  0.88704  0.17985  0.80094  1.0000
  H   H7        1.0  0.63080  0.73830  0.84459  1.0000
  H   H8        1.0  0.36920  0.26170  0.15541  1.0000
  H   H9        1.0  0.86815  0.53026  0.90339  1.0000
  H   H10       1.0  0.13186  0.46974  0.09661  1.0000
  H   H11       1.0  0.88142  0.78141  0.90878  1.0000
  H   H12       1.0  0.11858  0.21859  0.09122  1.0000
  C   C1        1.0  0.65736  0.79136  0.24789  1.0000
  C   C2        1.0  0.34263  0.20865  0.75211  1.0000
  C   C3        1.0  0.63582  0.73898  0.04110  1.0000
  C   C4        1.0  0.36418  0.26103  0.95890  1.0000
  C   C5        1.0  0.39775  0.75820  0.06075  1.0000
  C   C6        1.0  0.60225  0.24179  0.93925  1.0000
  C   C7        1.0  0.29819  0.80133  0.17917  1.0000
  C   C8        1.0  0.70181  0.19867  0.82083  1.0000
  C   C9        1.0  0.75803  0.69757  0.91728  1.0000
  C   C10       1.0  0.24197  0.30244  0.08272  1.0000
  N   N1        1.0  0.08256  0.91261  0.60217  1.0000
  N   N2        1.0  0.91744  0.08739  0.39783  1.0000
  N   N3        1.0  0.16806  0.80526  0.68680  1.0000
  N   N4        1.0  0.83194  0.19474  0.31320  1.0000
  N   N5        1.0  0.25194  0.70422  0.76847  1.0000
  N   N6        1.0  0.74806  0.29578  0.23153  1.0000
  N   N7        1.0  0.38711  0.19673  0.46268  1.0000
  N   N8        1.0  0.61288  0.80328  0.53732  1.0000
  N   N9        1.0  0.28558  0.37456  0.43334  1.0000
  N   N10       1.0  0.71442  0.62543  0.56666  1.0000
  N   N11       1.0  0.18926  0.54533  0.40498  1.0000
  N   N12       1.0  0.81073  0.45468  0.59502  1.0000
  N   N13       1.0  0.42692  0.82138  0.27370  1.0000
  N   N14       1.0  0.57308  0.17862  0.72630  1.0000
  N   N15       1.0  0.76492  0.75454  0.13693  1.0000
  N   N16       1.0  0.23508  0.24546  0.86307  1.0000
