data_image0
_chemical_formula_structural       Hg2H36C32S8N8
_chemical_formula_sum              "Hg2 H36 C32 S8 N8"
_cell_length_a       9.39126
_cell_length_b       9.88703
_cell_length_c       10.7296
_cell_angle_alpha    93.3011
_cell_angle_beta     95.1187
_cell_angle_gamma    111.341

_space_group_name_H-M_alt    "P 1"
_space_group_IT_number       1

loop_
  _space_group_symop_operation_xyz
  'x, y, z'

loop_
  _atom_site_type_symbol
  _atom_site_label
  _atom_site_symmetry_multiplicity
  _atom_site_fract_x
  _atom_site_fract_y
  _atom_site_fract_z
  _atom_site_occupancy
  Hg  Hg1       1.0  0.44735  0.44997  0.77083  1.0000
  Hg  Hg2       1.0  0.55265  0.55002  0.22917  1.0000
  H   H1        1.0  0.61683  0.06338  0.07180  1.0000
  H   H2        1.0  0.38317  0.93663  0.92820  1.0000
  H   H3        1.0  0.63753  0.21947  0.17437  1.0000
  H   H4        1.0  0.36247  0.78052  0.82563  1.0000
  H   H5        1.0  0.80013  0.16858  0.15680  1.0000
  H   H6        1.0  0.19987  0.83142  0.84320  1.0000
  H   H7        1.0  0.97712  0.33971  0.05539  1.0000
  H   H8        1.0  0.02289  0.66029  0.94461  1.0000
  H   H9        1.0  0.91757  0.38302  0.90699  1.0000
  H   H10       1.0  0.08243  0.61698  0.09301  1.0000
  H   H11       1.0  0.15983  0.26622  0.93728  1.0000
  H   H12       1.0  0.84017  0.73378  0.06272  1.0000
  H   H13       1.0  0.19638  0.05607  0.82925  1.0000
  H   H14       1.0  0.80362  0.94393  0.17075  1.0000
  H   H15       1.0  0.72530  0.82082  0.76594  1.0000
  H   H16       1.0  0.27470  0.17918  0.23406  1.0000
  H   H17       1.0  0.66902  0.02404  0.86709  1.0000
  H   H18       1.0  0.33098  0.97596  0.13291  1.0000
  H   H19       1.0  0.97819  0.55944  0.69300  1.0000
  H   H20       1.0  0.02181  0.44056  0.30700  1.0000
  H   H21       1.0  0.91664  0.60912  0.54658  1.0000
  H   H22       1.0  0.08336  0.39088  0.45342  1.0000
  H   H23       1.0  0.01570  0.74702  0.67251  1.0000
  H   H24       1.0  0.98430  0.25298  0.32750  1.0000
  H   H25       1.0  0.09514  0.72837  0.41211  1.0000
  H   H26       1.0  0.90486  0.27163  0.58790  1.0000
  H   H27       1.0  0.28494  0.72592  0.43268  1.0000
  H   H28       1.0  0.71506  0.27407  0.56732  1.0000
  H   H29       1.0  0.08518  0.96764  0.42887  1.0000
  H   H30       1.0  0.91483  0.03236  0.57113  1.0000
  H   H31       1.0  0.18746  0.22367  0.53216  1.0000
  H   H32       1.0  0.81254  0.77632  0.46784  1.0000
  H   H33       1.0  0.54164  0.15661  0.74245  1.0000
  H   H34       1.0  0.45837  0.84339  0.25754  1.0000
  H   H35       1.0  0.45507  0.89687  0.64831  1.0000
  H   H36       1.0  0.54494  0.10313  0.35169  1.0000
  C   C1        1.0  0.64000  0.32553  0.95331  1.0000
  C   C2        1.0  0.36000  0.67447  0.04669  1.0000
  C   C3        1.0  0.69511  0.17442  0.10853  1.0000
  C   C4        1.0  0.30489  0.82558  0.89147  1.0000
  C   C5        1.0  0.89144  0.29692  0.97148  1.0000
  C   C6        1.0  0.10856  0.70308  0.02852  1.0000
  C   C7        1.0  0.91051  0.16497  0.90890  1.0000
  C   C8        1.0  0.08949  0.83504  0.09110  1.0000
  C   C9        1.0  0.05980  0.17054  0.89811  1.0000
  C   C10       1.0  0.94020  0.82947  0.10189  1.0000
  C   C11       1.0  0.07998  0.05142  0.83843  1.0000
  C   C12       1.0  0.92003  0.94858  0.16156  1.0000
  C   C13       1.0  0.82001  0.92227  0.80299  1.0000
  C   C14       1.0  0.17999  0.07774  0.19701  1.0000
  C   C15       1.0  0.78814  0.03733  0.85947  1.0000
  C   C16       1.0  0.21186  0.96268  0.14052  1.0000
  C   C17       1.0  0.24595  0.58696  0.62754  1.0000
  C   C18       1.0  0.75405  0.41304  0.37246  1.0000
  C   C19       1.0  0.00821  0.64182  0.62601  1.0000
  C   C20       1.0  0.99179  0.35818  0.37399  1.0000
  C   C21       1.0  0.19797  0.75211  0.48037  1.0000
  C   C22       1.0  0.80203  0.24789  0.51963  1.0000
  C   C23       1.0  0.25995  0.91000  0.53295  1.0000
  C   C24       1.0  0.74005  0.09000  0.46706  1.0000
  C   C25       1.0  0.18656  0.00450  0.49837  1.0000
  C   C26       1.0  0.81344  0.99550  0.50163  1.0000
  C   C27       1.0  0.24324  0.14729  0.55533  1.0000
  C   C28       1.0  0.75676  0.85271  0.44467  1.0000
  C   C29       1.0  0.44006  0.10935  0.67311  1.0000
  C   C30       1.0  0.55994  0.89064  0.32689  1.0000
  C   C31       1.0  0.39177  0.96572  0.62107  1.0000
  C   C32       1.0  0.60823  0.03428  0.37893  1.0000
  S   S1        1.0  0.45994  0.27904  0.99496  1.0000
  S   S2        1.0  0.54006  0.72096  0.00504  1.0000
  S   S3        1.0  0.70484  0.44672  0.83965  1.0000
  S   S4        1.0  0.29515  0.55328  0.16035  1.0000
  S   S5        1.0  0.42078  0.61542  0.57649  1.0000
  S   S6        1.0  0.57922  0.38458  0.42352  1.0000
  S   S7        1.0  0.18293  0.46609  0.74073  1.0000
  S   S8        1.0  0.81707  0.53391  0.25928  1.0000
  N   N1        1.0  0.73859  0.26929  0.00787  1.0000
  N   N2        1.0  0.26141  0.73071  0.99213  1.0000
  N   N3        1.0  0.96309  0.92773  0.79106  1.0000
  N   N4        1.0  0.03690  0.07227  0.20894  1.0000
  N   N5        1.0  0.15372  0.65367  0.57989  1.0000
  N   N6        1.0  0.84628  0.34633  0.42010  1.0000
  N   N7        1.0  0.36625  0.19841  0.64231  1.0000
  N   N8        1.0  0.63375  0.80159  0.35769  1.0000
