data_image0
_chemical_formula_structural       Zn4H28C24N28O4
_chemical_formula_sum              "Zn4 H28 C24 N28 O4"
_cell_length_a       6.0195
_cell_length_b       7.82721
_cell_length_c       20.3678
_cell_angle_alpha    90.0006
_cell_angle_beta     96.8342
_cell_angle_gamma    90.0006

_space_group_name_H-M_alt    "P 1"
_space_group_IT_number       1

loop_
  _space_group_symop_operation_xyz
  'x, y, z'

loop_
  _atom_site_type_symbol
  _atom_site_label
  _atom_site_symmetry_multiplicity
  _atom_site_fract_x
  _atom_site_fract_y
  _atom_site_fract_z
  _atom_site_occupancy
  Zn  Zn1       1.0  0.88674  0.82146  0.25181  1.0000
  Zn  Zn2       1.0  0.11327  0.32142  0.74818  1.0000
  Zn  Zn3       1.0  0.37683  0.96242  0.22611  1.0000
  Zn  Zn4       1.0  0.62318  0.46242  0.77389  1.0000
  H   H1        1.0  0.46865  0.44249  0.44717  1.0000
  H   H2        1.0  0.53132  0.94247  0.55282  1.0000
  H   H3        1.0  0.27946  0.56058  0.53925  1.0000
  H   H4        1.0  0.72054  0.06057  0.46075  1.0000
  H   H5        1.0  0.89782  0.69339  0.51367  1.0000
  H   H6        1.0  0.10216  0.19339  0.48632  1.0000
  H   H7        1.0  0.72845  0.70750  0.39360  1.0000
  H   H8        1.0  0.27154  0.20750  0.60640  1.0000
  H   H9        1.0  0.20374  0.34571  0.28861  1.0000
  H   H10       1.0  0.79623  0.84570  0.71139  1.0000
  H   H11       1.0  0.47408  0.39240  0.33128  1.0000
  H   H12       1.0  0.52589  0.89239  0.66872  1.0000
  H   H13       1.0  0.32769  0.54722  0.27828  1.0000
  H   H14       1.0  0.67230  0.04721  0.72171  1.0000
  H   H15       1.0  0.76370  0.21674  0.00572  1.0000
  H   H16       1.0  0.23632  0.71673  0.99428  1.0000
  H   H17       1.0  0.05929  0.40486  0.06532  1.0000
  H   H18       1.0  0.94071  0.90486  0.93468  1.0000
  H   H19       1.0  0.03690  0.47123  0.18546  1.0000
  H   H20       1.0  0.96311  0.97122  0.81454  1.0000
  H   H21       1.0  0.71131  0.35925  0.23834  1.0000
  H   H22       1.0  0.28872  0.85925  0.76167  1.0000
  H   H23       1.0  0.40809  0.95175  0.07628  1.0000
  H   H24       1.0  0.59194  0.45172  0.92372  1.0000
  H   H25       1.0  0.41751  0.07202  0.00259  1.0000
  H   H26       1.0  0.58252  0.57200  0.99742  1.0000
  H   H27       1.0  0.23537  0.13365  0.06190  1.0000
  H   H28       1.0  0.76464  0.63365  0.93811  1.0000
  C   C1        1.0  0.20560  0.51205  0.37192  1.0000
  C   C2        1.0  0.79439  0.01205  0.62808  1.0000
  C   C3        1.0  0.30462  0.50242  0.43727  1.0000
  C   C4        1.0  0.69535  0.00242  0.56273  1.0000
  C   C5        1.0  0.19795  0.56760  0.48876  1.0000
  C   C6        1.0  0.80202  0.06761  0.51124  1.0000
  C   C7        1.0  0.98716  0.64222  0.47466  1.0000
  C   C8        1.0  0.01283  0.14224  0.52534  1.0000
  C   C9        1.0  0.89098  0.65112  0.40975  1.0000
  C   C10       1.0  0.10899  0.15114  0.59025  1.0000
  C   C11       1.0  0.30882  0.44541  0.31439  1.0000
  C   C12       1.0  0.69115  0.94540  0.68560  1.0000
  C   C13       1.0  0.58186  0.18927  0.08868  1.0000
  C   C14       1.0  0.41814  0.68924  0.91133  1.0000
  C   C15       1.0  0.75942  0.25114  0.05737  1.0000
  C   C16       1.0  0.24059  0.75113  0.94263  1.0000
  C   C17       1.0  0.92406  0.35418  0.09062  1.0000
  C   C18       1.0  0.07597  0.85419  0.90939  1.0000
  C   C19       1.0  0.91166  0.39229  0.15701  1.0000
  C   C20       1.0  0.08835  0.89228  0.84299  1.0000
  C   C21       1.0  0.73506  0.33038  0.18751  1.0000
  C   C22       1.0  0.26495  0.83034  0.81250  1.0000
  C   C23       1.0  0.39999  0.08122  0.05530  1.0000
  C   C24       1.0  0.60001  0.58121  0.94470  1.0000
  N   N1        1.0  0.20195  0.92539  0.30423  1.0000
  N   N2        1.0  0.79806  0.42539  0.69577  1.0000
  N   N3        1.0  0.28010  0.93647  0.36166  1.0000
  N   N4        1.0  0.71990  0.43647  0.63833  1.0000
  N   N5        1.0  0.35411  0.94651  0.41686  1.0000
  N   N6        1.0  0.64587  0.44650  0.58314  1.0000
  N   N7        1.0  0.06243  0.86868  0.17565  1.0000
  N   N8        1.0  0.93759  0.36867  0.82435  1.0000
  N   N9        1.0  0.98537  0.85602  0.11799  1.0000
  N   N10       1.0  0.01465  0.35601  0.88200  1.0000
  N   N11       1.0  0.91215  0.84393  0.06298  1.0000
  N   N12       1.0  0.08788  0.34393  0.93703  1.0000
  N   N13       1.0  0.69490  0.99428  0.29288  1.0000
  N   N14       1.0  0.30510  0.49428  0.70712  1.0000
  N   N15       1.0  0.76315  0.11146  0.32825  1.0000
  N   N16       1.0  0.23686  0.61146  0.67174  1.0000
  N   N17       1.0  0.82480  0.22496  0.36250  1.0000
  N   N18       1.0  0.17518  0.72494  0.63750  1.0000
  N   N19       1.0  0.56805  0.77327  0.19285  1.0000
  N   N20       1.0  0.43196  0.27326  0.80715  1.0000
  N   N21       1.0  0.49172  0.68106  0.14798  1.0000
  N   N22       1.0  0.50831  0.18105  0.85202  1.0000
  N   N23       1.0  0.41489  0.59386  0.10511  1.0000
  N   N24       1.0  0.58514  0.09386  0.89489  1.0000
  N   N25       1.0  0.00008  0.58810  0.36017  1.0000
  N   N26       1.0  0.99991  0.08808  0.63983  1.0000
  N   N27       1.0  0.57353  0.23302  0.15339  1.0000
  N   N28       1.0  0.42648  0.73299  0.84662  1.0000
  O   O1        1.0  0.89918  0.59470  0.29805  1.0000
  O   O2        1.0  0.10080  0.09467  0.70195  1.0000
  O   O3        1.0  0.39424  0.18926  0.18297  1.0000
  O   O4        1.0  0.60577  0.68924  0.81702  1.0000
