data_image0
_chemical_formula_structural       Cd4H24C20N32
_chemical_formula_sum              "Cd4 H24 C20 N32"
_cell_length_a       8.20184
_cell_length_b       8.92716
_cell_length_c       12.7571
_cell_angle_alpha    109.035
_cell_angle_beta     90
_cell_angle_gamma    90

_space_group_name_H-M_alt    "P 1"
_space_group_IT_number       1

loop_
  _space_group_symop_operation_xyz
  'x, y, z'

loop_
  _atom_site_type_symbol
  _atom_site_label
  _atom_site_symmetry_multiplicity
  _atom_site_fract_x
  _atom_site_fract_y
  _atom_site_fract_z
  _atom_site_occupancy
  Cd  Cd1       1.0  0.80985  0.96036  0.93007  1.0000
  Cd  Cd2       1.0  0.30985  0.53964  0.56993  1.0000
  Cd  Cd3       1.0  0.19015  0.03964  0.06993  1.0000
  Cd  Cd4       1.0  0.69015  0.46036  0.43007  1.0000
  H   H1        1.0  0.03851  0.71008  0.75855  1.0000
  H   H2        1.0  0.53851  0.78992  0.74145  1.0000
  H   H3        1.0  0.96149  0.28992  0.24145  1.0000
  H   H4        1.0  0.46149  0.21008  0.25855  1.0000
  H   H5        1.0  0.26873  0.86809  0.52431  1.0000
  H   H6        1.0  0.76873  0.63190  0.97569  1.0000
  H   H7        1.0  0.73127  0.13191  0.47569  1.0000
  H   H8        1.0  0.23127  0.36809  0.02431  1.0000
  H   H9        1.0  0.10558  0.12028  0.58897  1.0000
  H   H10       1.0  0.60558  0.37972  0.91104  1.0000
  H   H11       1.0  0.89442  0.87972  0.41104  1.0000
  H   H12       1.0  0.39442  0.62028  0.08896  1.0000
  H   H13       1.0  0.85213  0.24630  0.69462  1.0000
  H   H14       1.0  0.35213  0.25370  0.80538  1.0000
  H   H15       1.0  0.14787  0.75370  0.30538  1.0000
  H   H16       1.0  0.64787  0.74630  0.19462  1.0000
  H   H17       1.0  0.96017  0.28748  0.82105  1.0000
  H   H18       1.0  0.46017  0.21252  0.67895  1.0000
  H   H19       1.0  0.03983  0.71252  0.17895  1.0000
  H   H20       1.0  0.53983  0.78748  0.32105  1.0000
  H   H21       1.0  0.77409  0.17740  0.80127  1.0000
  H   H22       1.0  0.27408  0.32260  0.69873  1.0000
  H   H23       1.0  0.22592  0.82260  0.19873  1.0000
  H   H24       1.0  0.72592  0.67740  0.30127  1.0000
  C   C1        1.0  0.05373  0.80281  0.72112  1.0000
  C   C2        1.0  0.55373  0.69718  0.77888  1.0000
  C   C3        1.0  0.94627  0.19718  0.27888  1.0000
  C   C4        1.0  0.44627  0.30282  0.22112  1.0000
  C   C5        1.0  0.18076  0.89034  0.59186  1.0000
  C   C6        1.0  0.68076  0.60965  0.90814  1.0000
  C   C7        1.0  0.81924  0.10965  0.40814  1.0000
  C   C8        1.0  0.31924  0.39035  0.09186  1.0000
  C   C9        1.0  0.09078  0.02851  0.62732  1.0000
  C   C10       1.0  0.59078  0.47149  0.87268  1.0000
  C   C11       1.0  0.90922  0.97149  0.37268  1.0000
  C   C12       1.0  0.40922  0.52852  0.12732  1.0000
  C   C13       1.0  0.98036  0.04925  0.71487  1.0000
  C   C14       1.0  0.48036  0.45075  0.78513  1.0000
  C   C15       1.0  0.01964  0.95075  0.28513  1.0000
  C   C16       1.0  0.51964  0.54925  0.21487  1.0000
  C   C17       1.0  0.88502  0.19783  0.76032  1.0000
  C   C18       1.0  0.38502  0.30217  0.73968  1.0000
  C   C19       1.0  0.11498  0.80217  0.23968  1.0000
  C   C20       1.0  0.61498  0.69783  0.26032  1.0000
  N   N1        1.0  0.96839  0.17759  0.01774  1.0000
  N   N2        1.0  0.46839  0.32241  0.48226  1.0000
  N   N3        1.0  0.03162  0.82242  0.98226  1.0000
  N   N4        1.0  0.53161  0.67758  0.51774  1.0000
  N   N5        1.0  0.91347  0.31025  0.05172  1.0000
  N   N6        1.0  0.41347  0.18975  0.44828  1.0000
  N   N7        1.0  0.08653  0.68975  0.94828  1.0000
  N   N8        1.0  0.58653  0.81025  0.55172  1.0000
  N   N9        1.0  0.86233  0.43915  0.08404  1.0000
  N   N10       1.0  0.36233  0.06085  0.41596  1.0000
  N   N11       1.0  0.13767  0.56085  0.91596  1.0000
  N   N12       1.0  0.63767  0.93915  0.58404  1.0000
  N   N13       1.0  0.58735  0.10780  0.90549  1.0000
  N   N14       1.0  0.08735  0.39220  0.59451  1.0000
  N   N15       1.0  0.41266  0.89220  0.09451  1.0000
  N   N16       1.0  0.91265  0.60780  0.40549  1.0000
  N   N17       1.0  0.44984  0.06349  0.89777  1.0000
  N   N18       1.0  0.94984  0.43651  0.60223  1.0000
  N   N19       1.0  0.55015  0.93651  0.10223  1.0000
  N   N20       1.0  0.05016  0.56349  0.39777  1.0000
  N   N21       1.0  0.31129  0.02462  0.88917  1.0000
  N   N22       1.0  0.81129  0.47538  0.61083  1.0000
  N   N23       1.0  0.68871  0.97538  0.11083  1.0000
  N   N24       1.0  0.18871  0.52462  0.38917  1.0000
  N   N25       1.0  0.96210  0.93291  0.76044  1.0000
  N   N26       1.0  0.46210  0.56709  0.73956  1.0000
  N   N27       1.0  0.03790  0.06709  0.23956  1.0000
  N   N28       1.0  0.53790  0.43291  0.26044  1.0000
  N   N29       1.0  0.16278  0.77666  0.63936  1.0000
  N   N30       1.0  0.66279  0.72334  0.86064  1.0000
  N   N31       1.0  0.83721  0.22334  0.36064  1.0000
  N   N32       1.0  0.33721  0.27666  0.13936  1.0000
