data_image0
_chemical_formula_structural       H32Pb2C32N4O12
_chemical_formula_sum              "H32 Pb2 C32 N4 O12"
_cell_length_a       8.19498
_cell_length_b       10.8895
_cell_length_c       11.6338
_cell_angle_alpha    117.923
_cell_angle_beta     108.647
_cell_angle_gamma    89.9635

_space_group_name_H-M_alt    "P 1"
_space_group_IT_number       1

loop_
  _space_group_symop_operation_xyz
  'x, y, z'

loop_
  _atom_site_type_symbol
  _atom_site_label
  _atom_site_symmetry_multiplicity
  _atom_site_fract_x
  _atom_site_fract_y
  _atom_site_fract_z
  _atom_site_occupancy
  H   H1        1.0  0.55144  0.34740  0.02998  1.0000
  H   H2        1.0  0.94837  0.31726  0.96998  1.0000
  H   H3        1.0  0.44856  0.65261  0.97002  1.0000
  H   H4        1.0  0.05162  0.68274  0.03002  1.0000
  H   H5        1.0  0.69214  0.59330  0.12113  1.0000
  H   H6        1.0  0.80811  0.47244  0.87917  1.0000
  H   H7        1.0  0.30786  0.40670  0.87887  1.0000
  H   H8        1.0  0.19188  0.52755  0.12082  1.0000
  H   H9        1.0  0.74388  0.77678  0.36589  1.0000
  H   H10       1.0  0.75652  0.41143  0.63455  1.0000
  H   H11       1.0  0.25611  0.22322  0.63410  1.0000
  H   H12       1.0  0.24347  0.58856  0.36544  1.0000
  H   H13       1.0  0.65420  0.71451  0.52082  1.0000
  H   H14       1.0  0.84566  0.19393  0.47930  1.0000
  H   H15       1.0  0.34580  0.28549  0.47918  1.0000
  H   H16       1.0  0.15435  0.80605  0.52069  1.0000
  H   H17       1.0  0.97967  0.72464  0.63564  1.0000
  H   H18       1.0  0.52057  0.08915  0.36397  1.0000
  H   H19       1.0  0.02033  0.27536  0.36436  1.0000
  H   H20       1.0  0.47943  0.91086  0.63603  1.0000
  H   H21       1.0  0.91956  0.54600  0.59281  1.0000
  H   H22       1.0  0.58083  0.95348  0.40707  1.0000
  H   H23       1.0  0.08044  0.45400  0.40719  1.0000
  H   H24       1.0  0.41917  0.04652  0.59294  1.0000
  H   H25       1.0  0.14478  0.62646  0.67168  1.0000
  H   H26       1.0  0.35558  0.95514  0.32819  1.0000
  H   H27       1.0  0.85523  0.37354  0.32833  1.0000
  H   H28       1.0  0.64442  0.04487  0.67181  1.0000
  H   H29       1.0  0.89491  0.71673  0.80823  1.0000
  H   H30       1.0  0.60532  0.90839  0.19154  1.0000
  H   H31       1.0  0.10509  0.28327  0.19177  1.0000
  H   H32       1.0  0.39468  0.09161  0.80846  1.0000
  Pb  Pb1       1.0  0.25003  0.93494  0.99994  1.0000
  Pb  Pb2       1.0  0.74998  0.06505  0.00006  1.0000
  C   C1        1.0  0.43737  0.24477  0.16853  1.0000
  C   C2        1.0  0.06232  0.07585  0.83119  1.0000
  C   C3        1.0  0.56262  0.75524  0.83147  1.0000
  C   C4        1.0  0.93768  0.92415  0.16882  1.0000
  C   C5        1.0  0.52059  0.39327  0.22302  1.0000
  C   C6        1.0  0.97904  0.17001  0.77684  1.0000
  C   C7        1.0  0.47942  0.60674  0.77699  1.0000
  C   C8        1.0  0.02096  0.82999  0.22316  1.0000
  C   C9        1.0  0.57205  0.42849  0.13686  1.0000
  C   C10       1.0  0.92772  0.29149  0.86310  1.0000
  C   C11       1.0  0.42795  0.57151  0.86314  1.0000
  C   C12       1.0  0.07227  0.70851  0.13690  1.0000
  C   C13       1.0  0.65066  0.56648  0.18797  1.0000
  C   C14       1.0  0.84940  0.37864  0.81222  1.0000
  C   C15       1.0  0.34934  0.43353  0.81203  1.0000
  C   C16       1.0  0.15059  0.62136  0.18778  1.0000
  C   C17       1.0  0.67929  0.67003  0.32562  1.0000
  C   C18       1.0  0.82086  0.34473  0.67464  1.0000
  C   C19       1.0  0.32070  0.32996  0.67436  1.0000
  C   C20       1.0  0.17915  0.65526  0.32536  1.0000
  C   C21       1.0  0.62916  0.63653  0.41233  1.0000
  C   C22       1.0  0.87073  0.22435  0.58777  1.0000
  C   C23       1.0  0.37084  0.36348  0.58768  1.0000
  C   C24       1.0  0.12927  0.77564  0.41223  1.0000
  C   C25       1.0  0.54964  0.49778  0.36159  1.0000
  C   C26       1.0  0.94997  0.13608  0.63831  1.0000
  C   C27       1.0  0.45036  0.50222  0.63841  1.0000
  C   C28       1.0  0.05003  0.86391  0.36169  1.0000
  C   C29       1.0  0.01263  0.64552  0.66914  1.0000
  C   C30       1.0  0.48770  0.97657  0.33065  1.0000
  C   C31       1.0  0.98737  0.35448  0.33086  1.0000
  C   C32       1.0  0.51230  0.02343  0.66935  1.0000
  N   N1        1.0  0.50954  0.45149  0.44594  1.0000
  N   N2        1.0  0.99001  0.00537  0.55383  1.0000
  N   N3        1.0  0.49046  0.54851  0.55406  1.0000
  N   N4        1.0  0.01001  0.99462  0.44618  1.0000
  O   O1        1.0  0.52391  0.14711  0.12300  1.0000
  O   O2        1.0  0.97594  0.02379  0.87676  1.0000
  O   O3        1.0  0.47610  0.85290  0.87701  1.0000
  O   O4        1.0  0.02406  0.97620  0.12323  1.0000
  O   O5        1.0  0.28478  0.21845  0.16580  1.0000
  O   O6        1.0  0.21488  0.05211  0.83376  1.0000
  O   O7        1.0  0.71522  0.78156  0.83419  1.0000
  O   O8        1.0  0.78512  0.94788  0.16624  1.0000
  O   O9        1.0  0.01231  0.69371  0.80677  1.0000
  O   O10       1.0  0.48794  0.88690  0.19303  1.0000
  O   O11       1.0  0.98769  0.30629  0.19324  1.0000
  O   O12       1.0  0.51206  0.11310  0.80697  1.0000
