data_image0
_chemical_formula_structural       Mn2Ni2H42C38N14O4
_chemical_formula_sum              "Mn2 Ni2 H42 C38 N14 O4"
_cell_length_a       9.41237
_cell_length_b       10.6568
_cell_length_c       10.7514
_cell_angle_alpha    68.0766
_cell_angle_beta     90.3471
_cell_angle_gamma    90.3384

_space_group_name_H-M_alt    "P 1"
_space_group_IT_number       1

loop_
  _space_group_symop_operation_xyz
  'x, y, z'

loop_
  _atom_site_type_symbol
  _atom_site_label
  _atom_site_symmetry_multiplicity
  _atom_site_fract_x
  _atom_site_fract_y
  _atom_site_fract_z
  _atom_site_occupancy
  Mn  Mn1       1.0  0.25033  0.76879  0.23152  1.0000
  Mn  Mn2       1.0  0.74967  0.23121  0.76848  1.0000
  Ni  Ni1       1.0  0.00000  0.99999  0.50001  1.0000
  Ni  Ni2       1.0  0.50000  0.50000  0.00000  1.0000
  H   H1        1.0  0.24863  0.26410  0.73459  1.0000
  H   H2        1.0  0.75137  0.73590  0.26541  1.0000
  H   H3        1.0  0.40266  0.45914  0.72088  1.0000
  H   H4        1.0  0.09550  0.27698  0.54093  1.0000
  H   H5        1.0  0.59736  0.54086  0.27911  1.0000
  H   H6        1.0  0.90450  0.72303  0.45907  1.0000
  H   H7        1.0  0.57241  0.61028  0.65439  1.0000
  H   H8        1.0  0.92716  0.34329  0.39027  1.0000
  H   H9        1.0  0.42759  0.38973  0.34562  1.0000
  H   H10       1.0  0.07286  0.65670  0.60974  1.0000
  H   H11       1.0  0.45582  0.72960  0.67838  1.0000
  H   H12       1.0  0.04326  0.31856  0.27194  1.0000
  H   H13       1.0  0.54419  0.27044  0.32160  1.0000
  H   H14       1.0  0.95674  0.68146  0.72804  1.0000
  H   H15       1.0  0.60050  0.78630  0.56553  1.0000
  H   H16       1.0  0.89889  0.43263  0.21580  1.0000
  H   H17       1.0  0.39952  0.21369  0.43445  1.0000
  H   H18       1.0  0.10110  0.56738  0.78422  1.0000
  H   H19       1.0  0.58587  0.91150  0.30247  1.0000
  H   H20       1.0  0.91475  0.69638  0.08986  1.0000
  H   H21       1.0  0.41412  0.08850  0.69752  1.0000
  H   H22       1.0  0.08525  0.30363  0.91014  1.0000
  H   H23       1.0  0.49700  0.96227  0.41941  1.0000
  H   H24       1.0  0.00433  0.57770  0.04092  1.0000
  H   H25       1.0  0.50299  0.03773  0.58058  1.0000
  H   H26       1.0  0.99566  0.42230  0.95909  1.0000
  H   H27       1.0  0.30361  0.06605  0.26115  1.0000
  H   H28       1.0  0.19707  0.73708  0.93700  1.0000
  H   H29       1.0  0.69638  0.93395  0.73885  1.0000
  H   H30       1.0  0.80293  0.26291  0.06301  1.0000
  H   H31       1.0  0.46894  0.12334  0.17844  1.0000
  H   H32       1.0  0.03183  0.82073  0.87997  1.0000
  H   H33       1.0  0.53104  0.87666  0.82156  1.0000
  H   H34       1.0  0.96817  0.17926  0.12003  1.0000
  H   H35       1.0  0.34285  0.15019  0.95385  1.0000
  H   H36       1.0  0.15847  0.04702  0.85219  1.0000
  H   H37       1.0  0.65714  0.84982  0.04615  1.0000
  H   H38       1.0  0.84153  0.95297  0.14780  1.0000
  H   H39       1.0  0.18819  0.10388  0.05798  1.0000
  H   H40       1.0  0.31306  0.94194  0.89882  1.0000
  H   H41       1.0  0.81179  0.89612  0.94202  1.0000
  H   H42       1.0  0.68695  0.05806  0.10118  1.0000
  C   C1        1.0  0.24899  0.35514  0.64381  1.0000
  C   C2        1.0  0.75102  0.64486  0.35619  1.0000
  C   C3        1.0  0.33556  0.46430  0.63649  1.0000
  C   C4        1.0  0.16290  0.36205  0.53544  1.0000
  C   C5        1.0  0.66446  0.53570  0.36351  1.0000
  C   C6        1.0  0.83711  0.63796  0.46456  1.0000
  C   C7        1.0  0.33411  0.57927  0.51790  1.0000
  C   C8        1.0  0.16520  0.48105  0.42083  1.0000
  C   C9        1.0  0.66590  0.42073  0.48210  1.0000
  C   C10       1.0  0.83480  0.51894  0.57918  1.0000
  C   C11       1.0  0.42224  0.70304  0.49456  1.0000
  C   C12       1.0  0.07762  0.50405  0.29790  1.0000
  C   C13       1.0  0.57777  0.29696  0.50543  1.0000
  C   C14       1.0  0.92238  0.49596  0.70210  1.0000
  C   C15       1.0  0.51924  0.70736  0.60327  1.0000
  C   C16       1.0  0.98024  0.39456  0.29398  1.0000
  C   C17       1.0  0.48077  0.29265  0.39672  1.0000
  C   C18       1.0  0.01976  0.60544  0.70602  1.0000
  C   C19       1.0  0.47964  0.92588  0.33745  1.0000
  C   C20       1.0  0.02114  0.66102  0.07618  1.0000
  C   C21       1.0  0.52035  0.07413  0.66255  1.0000
  C   C22       1.0  0.97886  0.33898  0.92382  1.0000
  C   C23       1.0  0.40045  0.03409  0.22437  1.0000
  C   C24       1.0  0.10036  0.77460  0.96849  1.0000
  C   C25       1.0  0.59954  0.96591  0.77563  1.0000
  C   C26       1.0  0.89964  0.22539  0.03151  1.0000
  C   C27       1.0  0.27719  0.06444  0.01750  1.0000
  C   C28       1.0  0.22404  0.98316  0.93750  1.0000
  C   C29       1.0  0.72280  0.93556  0.98250  1.0000
  C   C30       1.0  0.77596  0.01683  0.06250  1.0000
  C   C31       1.0  0.05642  0.92790  0.37752  1.0000
  C   C32       1.0  0.44504  0.62193  0.07395  1.0000
  C   C33       1.0  0.94358  0.07208  0.62248  1.0000
  C   C34       1.0  0.55496  0.37807  0.92605  1.0000
  C   C35       1.0  0.83620  0.06723  0.40236  1.0000
  C   C36       1.0  0.66448  0.59722  0.93335  1.0000
  C   C37       1.0  0.16380  0.93275  0.59767  1.0000
  C   C38       1.0  0.33551  0.40279  0.06667  1.0000
  N   N1        1.0  0.24986  0.58486  0.41486  1.0000
  N   N2        1.0  0.75015  0.41514  0.58514  1.0000
  N   N3        1.0  0.40342  0.79832  0.37924  1.0000
  N   N4        1.0  0.09708  0.61987  0.20281  1.0000
  N   N5        1.0  0.59658  0.20168  0.62076  1.0000
  N   N6        1.0  0.90291  0.38013  0.79720  1.0000
  N   N7        1.0  0.09473  0.87812  0.30258  1.0000
  N   N8        1.0  0.40677  0.69639  0.12469  1.0000
  N   N9        1.0  0.90526  0.12188  0.69742  1.0000
  N   N10       1.0  0.59324  0.30362  0.87532  1.0000
  N   N11       1.0  0.73382  0.11306  0.33888  1.0000
  N   N12       1.0  0.76777  0.65970  0.88797  1.0000
  N   N13       1.0  0.26618  0.88691  0.66114  1.0000
  N   N14       1.0  0.23223  0.34032  0.11204  1.0000
  O   O1        1.0  0.36211  0.97680  0.12672  1.0000
  O   O2        1.0  0.13900  0.87346  0.02470  1.0000
  O   O3        1.0  0.63788  0.02320  0.87327  1.0000
  O   O4        1.0  0.86100  0.12654  0.97529  1.0000
