data_image0
_chemical_formula_structural       Ag2H8C10S2N2O6
_chemical_formula_sum              "Ag2 H8 C10 S2 N2 O6"
_cell_length_a       5.40351
_cell_length_b       7.96982
_cell_length_c       8.09436
_cell_angle_alpha    93.6198
_cell_angle_beta     89.9827
_cell_angle_gamma    109.531

_space_group_name_H-M_alt    "P 1"
_space_group_IT_number       1

loop_
  _space_group_symop_operation_xyz
  'x, y, z'

loop_
  _atom_site_type_symbol
  _atom_site_label
  _atom_site_symmetry_multiplicity
  _atom_site_fract_x
  _atom_site_fract_y
  _atom_site_fract_z
  _atom_site_occupancy
  Ag  Ag1       1.0  0.11465  0.99935  0.49885  1.0000
  Ag  Ag2       1.0  0.20198  0.00144  0.00113  1.0000
  H   H1        1.0  0.33454  0.71109  0.53186  1.0000
  H   H2        1.0  0.61987  0.28515  0.46870  1.0000
  H   H3        1.0  0.21728  0.40879  0.64868  1.0000
  H   H4        1.0  0.80723  0.58767  0.35333  1.0000
  H   H5        1.0  0.70101  0.80674  0.75792  1.0000
  H   H6        1.0  0.89618  0.19646  0.23980  1.0000
  H   H7        1.0  0.56004  0.51122  0.88204  1.0000
  H   H8        1.0  0.05335  0.49261  0.11689  1.0000
  C   C1        1.0  0.16372  0.65988  0.60883  1.0000
  C   C2        1.0  0.50213  0.33791  0.39129  1.0000
  C   C3        1.0  0.09806  0.49336  0.67277  1.0000
  C   C4        1.0  0.60414  0.50458  0.32822  1.0000
  C   C5        1.0  0.87439  0.43578  0.76855  1.0000
  C   C6        1.0  0.44057  0.56433  0.23178  1.0000
  C   C7        1.0  0.80883  0.71439  0.73470  1.0000
  C   C8        1.0  0.09590  0.28720  0.26385  1.0000
  C   C9        1.0  0.73069  0.54931  0.80362  1.0000
  C   C10       1.0  0.18412  0.45266  0.19561  1.0000
  S   S1        1.0  0.76772  0.21325  0.83508  1.0000
  S   S2        1.0  0.55917  0.78698  0.16560  1.0000
  N   N1        1.0  0.01812  0.76719  0.63571  1.0000
  N   N2        1.0  0.25012  0.23226  0.36315  1.0000
  O   O1        1.0  0.64247  0.22335  0.99551  1.0000
  O   O2        1.0  0.42230  0.77922  0.00634  1.0000
  O   O3        1.0  0.01211  0.17072  0.84656  1.0000
  O   O4        1.0  0.84434  0.82475  0.15162  1.0000
  O   O5        1.0  0.58611  0.10569  0.70409  1.0000
  O   O6        1.0  0.49066  0.89669  0.29791  1.0000
