data_image0
_chemical_formula_structural       K2Fe4H48C24S2N8O20
_chemical_formula_sum              "K2 Fe4 H48 C24 S2 N8 O20"
_cell_length_a       9.38511
_cell_length_b       11.0864
_cell_length_c       12.966
_cell_angle_alpha    99.611
_cell_angle_beta     109.233
_cell_angle_gamma    112.788

_space_group_name_H-M_alt    "P 1"
_space_group_IT_number       1

loop_
  _space_group_symop_operation_xyz
  'x, y, z'

loop_
  _atom_site_type_symbol
  _atom_site_label
  _atom_site_symmetry_multiplicity
  _atom_site_fract_x
  _atom_site_fract_y
  _atom_site_fract_z
  _atom_site_occupancy
  K   K1        1.0  0.49990  0.92458  0.33661  1.0000
  K   K2        1.0  0.50010  0.07542  0.66339  1.0000
  Fe  Fe1       1.0  0.62414  0.62893  0.08734  1.0000
  Fe  Fe2       1.0  0.37585  0.37106  0.91264  1.0000
  Fe  Fe3       1.0  0.57598  0.47016  0.20943  1.0000
  Fe  Fe4       1.0  0.42401  0.52984  0.79056  1.0000
  H   H1        1.0  0.07470  0.23675  0.54139  1.0000
  H   H2        1.0  0.92530  0.76326  0.45862  1.0000
  H   H3        1.0  0.90082  0.27134  0.53211  1.0000
  H   H4        1.0  0.09917  0.72866  0.46789  1.0000
  H   H5        1.0  0.98058  0.29905  0.36915  1.0000
  H   H6        1.0  0.01942  0.70095  0.63085  1.0000
  H   H7        1.0  0.93420  0.12051  0.32570  1.0000
  H   H8        1.0  0.06580  0.87949  0.67431  1.0000
  H   H9        1.0  0.71461  0.07589  0.14205  1.0000
  H   H10       1.0  0.28539  0.92411  0.85795  1.0000
  H   H11       1.0  0.75352  0.25248  0.18367  1.0000
  H   H12       1.0  0.24648  0.74753  0.81633  1.0000
  H   H13       1.0  0.45773  0.16683  0.17483  1.0000
  H   H14       1.0  0.54227  0.83317  0.82518  1.0000
  H   H15       1.0  0.46332  0.11588  0.03903  1.0000
  H   H16       1.0  0.53668  0.88412  0.96098  1.0000
  H   H17       1.0  0.16624  0.92719  0.98415  1.0000
  H   H18       1.0  0.83377  0.07280  0.01585  1.0000
  H   H19       1.0  0.19227  0.97682  0.12972  1.0000
  H   H20       1.0  0.80774  0.02317  0.87029  1.0000
  H   H21       1.0  0.98611  0.72593  0.01745  1.0000
  H   H22       1.0  0.01390  0.27406  0.98255  1.0000
  H   H23       1.0  0.15490  0.70048  0.99804  1.0000
  H   H24       1.0  0.84510  0.29952  0.00196  1.0000
  H   H25       1.0  0.98690  0.62978  0.20609  1.0000
  H   H26       1.0  0.01310  0.37022  0.79391  1.0000
  H   H27       1.0  0.00250  0.53818  0.08777  1.0000
  H   H28       1.0  0.99751  0.46182  0.91223  1.0000
  H   H29       1.0  0.10805  0.47233  0.25697  1.0000
  H   H30       1.0  0.89195  0.52767  0.74304  1.0000
  H   H31       1.0  0.27755  0.55886  0.21840  1.0000
  H   H32       1.0  0.72245  0.44114  0.78160  1.0000
  H   H33       1.0  0.49307  0.63440  0.41356  1.0000
  H   H34       1.0  0.50694  0.36561  0.58644  1.0000
  H   H35       1.0  0.32597  0.54049  0.45194  1.0000
  H   H36       1.0  0.67404  0.45951  0.54806  1.0000
  H   H37       1.0  0.39073  0.76220  0.58843  1.0000
  H   H38       1.0  0.60927  0.23780  0.41157  1.0000
  H   H39       1.0  0.56095  0.71972  0.62830  1.0000
  H   H40       1.0  0.43905  0.28029  0.37170  1.0000
  H   H41       1.0  0.77387  0.83418  0.53508  1.0000
  H   H42       1.0  0.22613  0.16582  0.46493  1.0000
  H   H43       1.0  0.82387  0.90097  0.68557  1.0000
  H   H44       1.0  0.17613  0.09904  0.31444  1.0000
  H   H45       1.0  0.86769  0.13331  0.65957  1.0000
  H   H46       1.0  0.13231  0.86670  0.34044  1.0000
  H   H47       1.0  0.01996  0.08002  0.64656  1.0000
  H   H48       1.0  0.98004  0.91998  0.35345  1.0000
  C   C1        1.0  0.93609  0.19890  0.49096  1.0000
  C   C2        1.0  0.06391  0.80111  0.50904  1.0000
  C   C3        1.0  0.90083  0.19408  0.36763  1.0000
  C   C4        1.0  0.09917  0.80592  0.63238  1.0000
  C   C5        1.0  0.68102  0.14788  0.18588  1.0000
  C   C6        1.0  0.31898  0.85213  0.81412  1.0000
  C   C7        1.0  0.49209  0.10155  0.12443  1.0000
  C   C8        1.0  0.50791  0.89845  0.87557  1.0000
  C   C9        1.0  0.21674  0.91383  0.06891  1.0000
  C   C10       1.0  0.78327  0.08616  0.93109  1.0000
  C   C11       1.0  0.12535  0.76258  0.05572  1.0000
  C   C12       1.0  0.87465  0.23742  0.94428  1.0000
  C   C13       1.0  0.07833  0.61890  0.17430  1.0000
  C   C14       1.0  0.92167  0.38110  0.82570  1.0000
  C   C15       1.0  0.19006  0.57320  0.25291  1.0000
  C   C16       1.0  0.80994  0.42680  0.74709  1.0000
  C   C17       1.0  0.40002  0.64206  0.44529  1.0000
  C   C18       1.0  0.59998  0.35794  0.55471  1.0000
  C   C19       1.0  0.48775  0.75194  0.56373  1.0000
  C   C20       1.0  0.51225  0.24807  0.43627  1.0000
  C   C21       1.0  0.77255  0.91171  0.59979  1.0000
  C   C22       1.0  0.22745  0.08829  0.40022  1.0000
  C   C23       1.0  0.88425  0.05608  0.60568  1.0000
  C   C24       1.0  0.11575  0.94393  0.39433  1.0000
  S   S1        1.0  0.62908  0.42907  0.05369  1.0000
  S   S2        1.0  0.37091  0.57092  0.94629  1.0000
  N   N1        1.0  0.77444  0.77547  0.09662  1.0000
  N   N2        1.0  0.22555  0.22452  0.90337  1.0000
  N   N3        1.0  0.60213  0.65372  0.21601  1.0000
  N   N4        1.0  0.39787  0.34627  0.78399  1.0000
  N   N5        1.0  0.37768  0.36946  0.18817  1.0000
  N   N6        1.0  0.62232  0.63053  0.81180  1.0000
  N   N7        1.0  0.73440  0.48272  0.32211  1.0000
  N   N8        1.0  0.26559  0.51729  0.67787  1.0000
  O   O1        1.0  0.87610  0.89298  0.11561  1.0000
  O   O2        1.0  0.12390  0.10702  0.88438  1.0000
  O   O3        1.0  0.63430  0.74948  0.29791  1.0000
  O   O4        1.0  0.36568  0.25051  0.70207  1.0000
  O   O5        1.0  0.25050  0.28711  0.19026  1.0000
  O   O6        1.0  0.74949  0.71286  0.80971  1.0000
  O   O7        1.0  0.83255  0.47396  0.40353  1.0000
  O   O8        1.0  0.16744  0.52603  0.59646  1.0000
  O   O9        1.0  0.84005  0.06219  0.49073  1.0000
  O   O10       1.0  0.15995  0.93781  0.50928  1.0000
  O   O11       1.0  0.72321  0.15131  0.30328  1.0000
  O   O12       1.0  0.27680  0.84869  0.69673  1.0000
  O   O13       1.0  0.39692  0.95875  0.11164  1.0000
  O   O14       1.0  0.60309  0.04124  0.88837  1.0000
  O   O15       1.0  0.18334  0.74905  0.16806  1.0000
  O   O16       1.0  0.81666  0.25095  0.83194  1.0000
  O   O17       1.0  0.28689  0.67640  0.36617  1.0000
  O   O18       1.0  0.71311  0.32360  0.63383  1.0000
  O   O19       1.0  0.59965  0.88831  0.56858  1.0000
  O   O20       1.0  0.40035  0.11170  0.43142  1.0000
