data_image0
_chemical_formula_structural       Cd2P4H68C50N8O16
_chemical_formula_sum              "Cd2 P4 H68 C50 N8 O16"
_cell_length_a       8.92077
_cell_length_b       12.9304
_cell_length_c       13.095
_cell_angle_alpha    82.7781
_cell_angle_beta     70.9447
_cell_angle_gamma    87.4589

_space_group_name_H-M_alt    "P 1"
_space_group_IT_number       1

loop_
  _space_group_symop_operation_xyz
  'x, y, z'

loop_
  _atom_site_type_symbol
  _atom_site_label
  _atom_site_symmetry_multiplicity
  _atom_site_fract_x
  _atom_site_fract_y
  _atom_site_fract_z
  _atom_site_occupancy
  Cd  Cd1       1.0  1.00000  0.00000  0.50000  1.0000
  Cd  Cd2       1.0  0.00000  0.50000  0.50000  1.0000
  P   P1        1.0  0.93210  0.09344  0.73850  1.0000
  P   P2        1.0  0.06790  0.90657  0.26149  1.0000
  P   P3        1.0  0.01842  0.58540  0.73566  1.0000
  P   P4        1.0  0.98158  0.41460  0.26434  1.0000
  H   H1        1.0  0.07912  0.18592  0.82276  1.0000
  H   H2        1.0  0.92088  0.81408  0.17724  1.0000
  H   H3        1.0  0.92153  0.11261  0.91969  1.0000
  H   H4        1.0  0.07847  0.88739  0.08031  1.0000
  H   H5        1.0  0.99989  0.89569  0.84747  1.0000
  H   H6        1.0  0.00011  0.10431  0.15253  1.0000
  H   H7        1.0  0.19593  0.76199  0.86796  1.0000
  H   H8        1.0  0.80407  0.23801  0.13204  1.0000
  H   H9        1.0  0.50401  0.00226  0.88591  1.0000
  H   H10       1.0  0.49599  0.99774  0.11408  1.0000
  H   H11       1.0  0.30395  0.13408  0.87051  1.0000
  H   H12       1.0  0.69605  0.86592  0.12949  1.0000
  H   H13       1.0  0.40793  0.67266  0.81755  1.0000
  H   H14       1.0  0.59207  0.32734  0.18245  1.0000
  H   H15       1.0  0.63099  0.55415  0.81388  1.0000
  H   H16       1.0  0.36901  0.44585  0.18612  1.0000
  H   H17       1.0  0.82743  0.77171  0.95839  1.0000
  H   H18       1.0  0.17257  0.22829  0.04162  1.0000
  H   H19       1.0  0.60857  0.89223  0.95966  1.0000
  H   H20       1.0  0.39143  0.10777  0.04034  1.0000
  H   H21       1.0  0.85726  0.50488  0.90869  1.0000
  H   H22       1.0  0.14274  0.49512  0.09131  1.0000
  H   H23       1.0  0.96058  0.61401  0.92308  1.0000
  H   H24       1.0  0.03942  0.38599  0.07692  1.0000
  H   H25       1.0  0.59500  0.21966  0.78360  1.0000
  H   H26       1.0  0.40500  0.78034  0.21640  1.0000
  H   H27       1.0  0.67776  0.16289  0.88395  1.0000
  H   H28       1.0  0.32224  0.83711  0.11605  1.0000
  H   H29       1.0  0.59333  0.34993  0.90997  1.0000
  H   H30       1.0  0.40667  0.65007  0.09003  1.0000
  H   H31       1.0  0.73058  0.39093  0.77777  1.0000
  H   H32       1.0  0.26942  0.60907  0.22223  1.0000
  H   H33       1.0  0.80087  0.33260  0.88349  1.0000
  H   H34       1.0  0.19913  0.66740  0.11651  1.0000
  H   H35       1.0  0.09286  0.40210  0.86879  1.0000
  H   H36       1.0  0.90714  0.59790  0.13121  1.0000
  H   H37       1.0  0.12461  0.37785  0.73196  1.0000
  H   H38       1.0  0.87539  0.62215  0.26804  1.0000
  H   H39       1.0  0.33707  0.29615  0.80530  1.0000
  H   H40       1.0  0.66293  0.70385  0.19470  1.0000
  H   H41       1.0  0.38747  0.42103  0.82682  1.0000
  H   H42       1.0  0.61253  0.57897  0.17318  1.0000
  H   H43       1.0  0.41861  0.39108  0.69204  1.0000
  H   H44       1.0  0.58139  0.60892  0.30796  1.0000
  H   H45       1.0  0.22701  0.87310  0.64001  1.0000
  H   H46       1.0  0.77299  0.12690  0.35999  1.0000
  H   H47       1.0  0.63664  0.89075  0.36037  1.0000
  H   H48       1.0  0.36336  0.10925  0.63963  1.0000
  H   H49       1.0  0.37047  0.96177  0.30120  1.0000
  H   H50       1.0  0.62953  0.03823  0.69880  1.0000
  H   H51       1.0  0.65697  0.87496  0.56999  1.0000
  H   H52       1.0  0.34303  0.12504  0.43001  1.0000
  H   H53       1.0  0.47962  0.82554  0.67072  1.0000
  H   H54       1.0  0.52038  0.17446  0.32928  1.0000
  H   H55       1.0  0.85703  0.75506  0.48527  1.0000
  H   H56       1.0  0.14297  0.24494  0.51473  1.0000
  H   H57       1.0  0.60733  0.47097  0.55821  1.0000
  H   H58       1.0  0.39268  0.52903  0.44179  1.0000
  H   H59       1.0  0.39193  0.63196  0.62694  1.0000
  H   H60       1.0  0.60808  0.36804  0.37306  1.0000
  H   H61       1.0  0.05319  0.19846  0.33999  1.0000
  H   H62       1.0  0.94681  0.80154  0.66001  1.0000
  H   H63       1.0  0.14752  0.09541  0.29527  1.0000
  H   H64       1.0  0.85248  0.90459  0.70473  1.0000
  H   H65       1.0  0.13403  0.68659  0.53353  1.0000
  H   H66       1.0  0.86596  0.31341  0.46647  1.0000
  H   H67       1.0  0.15132  0.71425  0.40689  1.0000
  H   H68       1.0  0.84868  0.28575  0.59311  1.0000
  C   C1        1.0  0.02053  0.10951  0.84307  1.0000
  C   C2        1.0  0.97947  0.89050  0.15693  1.0000
  C   C3        1.0  0.13663  0.02521  0.85741  1.0000
  C   C4        1.0  0.86337  0.97479  0.14259  1.0000
  C   C5        1.0  0.10981  0.91901  0.85739  1.0000
  C   C6        1.0  0.89019  0.08099  0.14261  1.0000
  C   C7        1.0  0.22166  0.84356  0.86894  1.0000
  C   C8        1.0  0.77834  0.15644  0.13106  1.0000
  C   C9        1.0  0.36584  0.87081  0.88072  1.0000
  C   C10       1.0  0.63416  0.12919  0.11928  1.0000
  C   C11       1.0  0.39137  0.97730  0.88142  1.0000
  C   C12       1.0  0.60863  0.02270  0.11858  1.0000
  C   C13       1.0  0.27909  0.05219  0.87052  1.0000
  C   C14       1.0  0.72091  0.94781  0.12948  1.0000
  C   C15       1.0  0.49027  0.79351  0.88760  1.0000
  C   C16       1.0  0.50973  0.20649  0.11240  1.0000
  C   C17       1.0  0.49838  0.69552  0.84979  1.0000
  C   C18       1.0  0.50162  0.30448  0.15021  1.0000
  C   C19       1.0  0.62408  0.62732  0.84843  1.0000
  C   C20       1.0  0.37592  0.37268  0.15157  1.0000
  C   C21       1.0  0.74585  0.65395  0.88625  1.0000
  C   C22       1.0  0.25415  0.34605  0.11375  1.0000
  C   C23       1.0  0.73453  0.74948  0.92804  1.0000
  C   C24       1.0  0.26547  0.25052  0.07196  1.0000
  C   C25       1.0  0.60982  0.81787  0.92873  1.0000
  C   C26       1.0  0.39018  0.18213  0.07127  1.0000
  C   C27       1.0  0.88979  0.58662  0.87705  1.0000
  C   C28       1.0  0.11021  0.41338  0.12295  1.0000
  C   C29       1.0  0.69406  0.22455  0.81536  1.0000
  C   C30       1.0  0.30594  0.77545  0.18464  1.0000
  C   C31       1.0  0.70487  0.33104  0.84831  1.0000
  C   C32       1.0  0.29513  0.66896  0.15169  1.0000
  C   C33       1.0  0.17322  0.41698  0.78410  1.0000
  C   C34       1.0  0.82678  0.58302  0.21590  1.0000
  C   C35       1.0  0.33905  0.37970  0.77636  1.0000
  C   C36       1.0  0.66095  0.62030  0.22364  1.0000
  C   C37       1.0  0.29920  0.88809  0.55520  1.0000
  C   C38       1.0  0.70080  0.11191  0.44480  1.0000
  C   C39       1.0  0.51205  0.89657  0.40710  1.0000
  C   C40       1.0  0.48795  0.10343  0.59290  1.0000
  C   C41       1.0  0.38137  0.93197  0.37960  1.0000
  C   C42       1.0  0.61863  0.06803  0.62040  1.0000
  C   C43       1.0  0.55277  0.82641  0.58522  1.0000
  C   C44       1.0  0.44722  0.17359  0.41477  1.0000
  C   C45       1.0  0.76342  0.69717  0.51429  1.0000
  C   C46       1.0  0.23658  0.30283  0.48571  1.0000
  C   C47       1.0  0.62605  0.55387  0.55341  1.0000
  C   C48       1.0  0.37395  0.44613  0.44659  1.0000
  C   C49       1.0  0.51945  0.63222  0.58775  1.0000
  C   C50       1.0  0.48055  0.36778  0.41225  1.0000
  N   N1        1.0  0.24968  0.92657  0.47276  1.0000
  N   N2        1.0  0.75032  0.07343  0.52725  1.0000
  N   N3        1.0  0.77691  0.59538  0.50787  1.0000
  N   N4        1.0  0.22309  0.40462  0.49213  1.0000
  N   N5        1.0  0.45767  0.86905  0.51867  1.0000
  N   N6        1.0  0.54232  0.13095  0.48133  1.0000
  N   N7        1.0  0.60895  0.72241  0.56249  1.0000
  N   N8        1.0  0.39105  0.27760  0.43751  1.0000
  O   O1        1.0  0.06003  0.09168  0.62865  1.0000
  O   O2        1.0  0.93998  0.90833  0.37135  1.0000
  O   O3        1.0  0.81460  0.00468  0.77996  1.0000
  O   O4        1.0  0.18541  0.99532  0.22004  1.0000
  O   O5        1.0  0.83877  0.20393  0.72800  1.0000
  O   O6        1.0  0.16123  0.79607  0.27200  1.0000
  O   O7        1.0  0.07080  0.69439  0.68067  1.0000
  O   O8        1.0  0.92920  0.30561  0.31933  1.0000
  O   O9        1.0  0.93886  0.51801  0.68217  1.0000
  O   O10       1.0  0.06114  0.48199  0.31783  1.0000
  O   O11       1.0  0.17824  0.52821  0.74990  1.0000
  O   O12       1.0  0.82176  0.47179  0.25010  1.0000
  O   O13       1.0  0.11588  0.13761  0.35823  1.0000
  O   O14       1.0  0.88412  0.86239  0.64177  1.0000
  O   O15       1.0  0.16119  0.65825  0.46263  1.0000
  O   O16       1.0  0.83881  0.34175  0.53737  1.0000
