data_image0
_chemical_formula_structural       Zn2H36C46N8O10
_chemical_formula_sum              "Zn2 H36 C46 N8 O10"
_cell_length_a       10.4447
_cell_length_b       11.3468
_cell_length_c       11.492
_cell_angle_alpha    116.083
_cell_angle_beta     100.455
_cell_angle_gamma    104.616

_space_group_name_H-M_alt    "P 1"
_space_group_IT_number       1

loop_
  _space_group_symop_operation_xyz
  'x, y, z'

loop_
  _atom_site_type_symbol
  _atom_site_label
  _atom_site_symmetry_multiplicity
  _atom_site_fract_x
  _atom_site_fract_y
  _atom_site_fract_z
  _atom_site_occupancy
  Zn  Zn1       1.0  0.74142  0.89244  0.67829  1.0000
  Zn  Zn2       1.0  0.25858  0.10756  0.32171  1.0000
  H   H1        1.0  0.48136  0.61885  0.40794  1.0000
  H   H2        1.0  0.51865  0.38115  0.59206  1.0000
  H   H3        1.0  0.64078  0.90170  0.92366  1.0000
  H   H4        1.0  0.35922  0.09830  0.07634  1.0000
  H   H5        1.0  0.47779  0.84799  0.04439  1.0000
  H   H6        1.0  0.52220  0.15201  0.95561  1.0000
  H   H7        1.0  0.24248  0.65717  0.91354  1.0000
  H   H8        1.0  0.75752  0.34283  0.08646  1.0000
  H   H9        1.0  0.15878  0.51242  0.65791  1.0000
  H   H10       1.0  0.84122  0.48758  0.34209  1.0000
  H   H11       1.0  0.92528  0.74997  0.50336  1.0000
  H   H12       1.0  0.07472  0.25003  0.49664  1.0000
  H   H13       1.0  0.60647  0.01575  0.50835  1.0000
  H   H14       1.0  0.39353  0.98425  0.49165  1.0000
  H   H15       1.0  0.59080  0.11240  0.35174  1.0000
  H   H16       1.0  0.40920  0.88761  0.64826  1.0000
  H   H17       1.0  0.72943  0.08224  0.19603  1.0000
  H   H18       1.0  0.27057  0.91776  0.80397  1.0000
  H   H19       1.0  0.88548  0.94329  0.18405  1.0000
  H   H20       1.0  0.11452  0.05671  0.81595  1.0000
  H   H21       1.0  0.10458  0.85699  0.94352  1.0000
  H   H22       1.0  0.89542  0.14300  0.05648  1.0000
  H   H23       1.0  0.96315  0.83254  0.00456  1.0000
  H   H24       1.0  0.03685  0.16746  0.99544  1.0000
  H   H25       1.0  0.74482  0.66983  0.90382  1.0000
  H   H26       1.0  0.25518  0.33017  0.09618  1.0000
  H   H27       1.0  0.54665  0.47041  0.86692  1.0000
  H   H28       1.0  0.45335  0.52959  0.13308  1.0000
  H   H29       1.0  0.56705  0.23640  0.80495  1.0000
  H   H30       1.0  0.43296  0.76360  0.19506  1.0000
  H   H31       1.0  0.99513  0.41157  0.83053  1.0000
  H   H32       1.0  0.00487  0.58843  0.16946  1.0000
  H   H33       1.0  0.26115  0.47821  0.42952  1.0000
  H   H34       1.0  0.73885  0.52179  0.57048  1.0000
  H   H35       1.0  0.97810  0.80362  0.31174  1.0000
  H   H36       1.0  0.02190  0.19638  0.68826  1.0000
  C   C1        1.0  0.46404  0.64043  0.50445  1.0000
  C   C2        1.0  0.53596  0.35957  0.49555  1.0000
  C   C3        1.0  0.49159  0.73314  0.72311  1.0000
  C   C4        1.0  0.50841  0.26687  0.27690  1.0000
  C   C5        1.0  0.53790  0.81587  0.86681  1.0000
  C   C6        1.0  0.46210  0.18413  0.13318  1.0000
  C   C7        1.0  0.44626  0.78512  0.93269  1.0000
  C   C8        1.0  0.55374  0.21488  0.06731  1.0000
  C   C9        1.0  0.31187  0.67597  0.85815  1.0000
  C   C10       1.0  0.68813  0.32403  0.14185  1.0000
  C   C11       1.0  0.26424  0.59347  0.71511  1.0000
  C   C12       1.0  0.73576  0.40653  0.28488  1.0000
  C   C13       1.0  0.35668  0.62324  0.64884  1.0000
  C   C14       1.0  0.64332  0.37676  0.35116  1.0000
  C   C15       1.0  0.87676  0.80313  0.46113  1.0000
  C   C16       1.0  0.12324  0.19687  0.53888  1.0000
  C   C17       1.0  0.75150  0.92138  0.43041  1.0000
  C   C18       1.0  0.24850  0.07862  0.56959  1.0000
  C   C19       1.0  0.66490  0.99842  0.43697  1.0000
  C   C20       1.0  0.33510  0.00159  0.56303  1.0000
  C   C21       1.0  0.65873  0.05382  0.35045  1.0000
  C   C22       1.0  0.34127  0.94619  0.64955  1.0000
  C   C23       1.0  0.73666  0.03445  0.25994  1.0000
  C   C24       1.0  0.26334  0.96555  0.74006  1.0000
  C   C25       1.0  0.82238  0.95680  0.25124  1.0000
  C   C26       1.0  0.17762  0.04321  0.74876  1.0000
  C   C27       1.0  0.82761  0.90053  0.33778  1.0000
  C   C28       1.0  0.17240  0.09947  0.66223  1.0000
  C   C29       1.0  0.90509  0.78575  0.79309  1.0000
  C   C30       1.0  0.09491  0.21425  0.20691  1.0000
  C   C31       1.0  0.99575  0.78710  0.91430  1.0000
  C   C32       1.0  0.00425  0.21290  0.08570  1.0000
  C   C33       1.0  0.88309  0.55183  0.86606  1.0000
  C   C34       1.0  0.11691  0.44817  0.13394  1.0000
  C   C35       1.0  0.75704  0.56968  0.87824  1.0000
  C   C36       1.0  0.24296  0.43031  0.12176  1.0000
  C   C37       1.0  0.64433  0.45575  0.85701  1.0000
  C   C38       1.0  0.35567  0.54425  0.14299  1.0000
  C   C39       1.0  0.65521  0.32565  0.82380  1.0000
  C   C40       1.0  0.34479  0.67435  0.17620  1.0000
  C   C41       1.0  0.78269  0.30967  0.81434  1.0000
  C   C42       1.0  0.21731  0.69033  0.18566  1.0000
  C   C43       1.0  0.89541  0.42251  0.83569  1.0000
  C   C44       1.0  0.10459  0.57749  0.16431  1.0000
  C   C45       1.0  0.80228  0.17370  0.78091  1.0000
  C   C46       1.0  0.19772  0.82630  0.21909  1.0000
  N   N1        1.0  0.55556  0.74103  0.62895  1.0000
  N   N2        1.0  0.44444  0.25897  0.37105  1.0000
  N   N3        1.0  0.34404  0.56756  0.51116  1.0000
  N   N4        1.0  0.65596  0.43244  0.48884  1.0000
  N   N5        1.0  0.78471  0.85861  0.50613  1.0000
  N   N6        1.0  0.21529  0.14139  0.49387  1.0000
  N   N7        1.0  0.90403  0.82433  0.35997  1.0000
  N   N8        1.0  0.09597  0.17567  0.64003  1.0000
  O   O1        1.0  0.87480  0.89709  0.82818  1.0000
  O   O2        1.0  0.12520  0.10291  0.17181  1.0000
  O   O3        1.0  0.86901  0.68524  0.67216  1.0000
  O   O4        1.0  0.13099  0.31476  0.32783  1.0000
  O   O5        1.0  0.00070  0.65278  0.88303  1.0000
  O   O6        1.0  0.99930  0.34722  0.11697  1.0000
  O   O7        1.0  0.69699  0.06852  0.75891  1.0000
  O   O8        1.0  0.30301  0.93148  0.24109  1.0000
  O   O9        1.0  0.91877  0.16437  0.77326  1.0000
  O   O10       1.0  0.08123  0.83563  0.22674  1.0000
