data_image0
_chemical_formula_structural       Co2H32C42N4O12
_chemical_formula_sum              "Co2 H32 C42 N4 O12"
_cell_length_a       9.46598
_cell_length_b       9.59898
_cell_length_c       11.4431
_cell_angle_alpha    70.715
_cell_angle_beta     66.1982
_cell_angle_gamma    83.5894

_space_group_name_H-M_alt    "P 1"
_space_group_IT_number       1

loop_
  _space_group_symop_operation_xyz
  'x, y, z'

loop_
  _atom_site_type_symbol
  _atom_site_label
  _atom_site_symmetry_multiplicity
  _atom_site_fract_x
  _atom_site_fract_y
  _atom_site_fract_z
  _atom_site_occupancy
  Co  Co1       1.0  0.91167  0.33983  0.24930  1.0000
  Co  Co2       1.0  0.07938  0.65575  0.76476  1.0000
  H   H1        1.0  0.01844  0.62120  0.08735  1.0000
  H   H2        1.0  0.97201  0.38371  0.91993  1.0000
  H   H3        1.0  0.14244  0.52022  0.02049  1.0000
  H   H4        1.0  0.85453  0.49085  0.98165  1.0000
  H   H5        1.0  0.68909  0.59018  0.21546  1.0000
  H   H6        1.0  0.31200  0.38886  0.77925  1.0000
  H   H7        1.0  0.54139  0.74514  0.36100  1.0000
  H   H8        1.0  0.46481  0.24386  0.62421  1.0000
  H   H9        1.0  0.55195  0.69398  0.58616  1.0000
  H   H10       1.0  0.44836  0.30508  0.40031  1.0000
  H   H11       1.0  0.66886  0.52911  0.75866  1.0000
  H   H12       1.0  0.33538  0.47191  0.23363  1.0000
  H   H13       1.0  0.84515  0.33114  0.80816  1.0000
  H   H14       1.0  0.15747  0.66947  0.18611  1.0000
  H   H15       1.0  0.05318  0.14307  0.72671  1.0000
  H   H16       1.0  0.95096  0.84967  0.26745  1.0000
  H   H17       1.0  0.19722  0.03506  0.54161  1.0000
  H   H18       1.0  0.80602  0.96451  0.44870  1.0000
  H   H19       1.0  0.15093  0.12694  0.32744  1.0000
  H   H20       1.0  0.86114  0.88373  0.65914  1.0000
  H   H21       1.0  0.59848  0.36289  0.02042  1.0000
  H   H22       1.0  0.40665  0.63634  0.98355  1.0000
  H   H23       1.0  0.41154  0.25633  0.97105  1.0000
  H   H24       1.0  0.58859  0.74999  0.03377  1.0000
  H   H25       1.0  0.33901  0.87891  0.32498  1.0000
  H   H26       1.0  0.65897  0.12182  0.67640  1.0000
  H   H27       1.0  0.52558  0.99109  0.37606  1.0000
  H   H28       1.0  0.47379  0.00528  0.62724  1.0000
  H   H29       1.0  0.14803  0.96641  0.01946  1.0000
  H   H30       1.0  0.83960  0.04780  0.98811  1.0000
  H   H31       1.0  0.29953  0.10171  0.92757  1.0000
  H   H32       1.0  0.68502  0.91585  0.08036  1.0000
  C   C1        1.0  0.69653  0.57332  0.31157  1.0000
  C   C2        1.0  0.30592  0.41149  0.68164  1.0000
  C   C3        1.0  0.61270  0.65803  0.39552  1.0000
  C   C4        1.0  0.39201  0.33186  0.59356  1.0000
  C   C5        1.0  0.61857  0.62959  0.52027  1.0000
  C   C6        1.0  0.38363  0.36661  0.46930  1.0000
  C   C7        1.0  0.71417  0.51626  0.56018  1.0000
  C   C8        1.0  0.28858  0.48235  0.43290  1.0000
  C   C9        1.0  0.73370  0.47229  0.68525  1.0000
  C   C10       1.0  0.27086  0.52858  0.30723  1.0000
  C   C11       1.0  0.83297  0.36293  0.71234  1.0000
  C   C12       1.0  0.17193  0.63802  0.28088  1.0000
  C   C13       1.0  0.92580  0.29097  0.61580  1.0000
  C   C14       1.0  0.08111  0.70911  0.37839  1.0000
  C   C15       1.0  0.03387  0.18049  0.63358  1.0000
  C   C16       1.0  0.97151  0.81763  0.35995  1.0000
  C   C17       1.0  0.11476  0.12186  0.52992  1.0000
  C   C18       1.0  0.89022  0.87964  0.46096  1.0000
  C   C19       1.0  0.08962  0.17135  0.40992  1.0000
  C   C20       1.0  0.92032  0.83556  0.57856  1.0000
  C   C21       1.0  0.90686  0.33298  0.49270  1.0000
  C   C22       1.0  0.10072  0.66896  0.50151  1.0000
  C   C23       1.0  0.79974  0.44088  0.46723  1.0000
  C   C24       1.0  0.20415  0.55481  0.52922  1.0000
  C   C25       1.0  0.68964  0.23877  0.23440  1.0000
  C   C26       1.0  0.31226  0.75081  0.77547  1.0000
  C   C27       1.0  0.57483  0.18355  0.20153  1.0000
  C   C28       1.0  0.42760  0.81356  0.80259  1.0000
  C   C29       1.0  0.54103  0.25711  0.08796  1.0000
  C   C30       1.0  0.46241  0.74276  0.91604  1.0000
  C   C31       1.0  0.43631  0.19642  0.05937  1.0000
  C   C32       1.0  0.56422  0.80711  0.94474  1.0000
  C   C33       1.0  0.36492  0.05864  0.14464  1.0000
  C   C34       1.0  0.63356  0.94545  0.85859  1.0000
  C   C35       1.0  0.39821  0.98423  0.25879  1.0000
  C   C36       1.0  0.60090  0.01625  0.74348  1.0000
  C   C37       1.0  0.50027  0.04687  0.28716  1.0000
  C   C38       1.0  0.49949  0.95092  0.71616  1.0000
  C   C39       1.0  0.20493  0.05566  0.02608  1.0000
  C   C40       1.0  0.78340  0.95683  0.98333  1.0000
  C   C41       1.0  0.08501  0.17496  0.05301  1.0000
  C   C42       1.0  0.90056  0.83401  0.96397  1.0000
  N   N1        1.0  0.78857  0.46561  0.34637  1.0000
  N   N2        1.0  0.21310  0.51974  0.65125  1.0000
  N   N3        1.0  0.98700  0.27488  0.39030  1.0000
  N   N4        1.0  0.02334  0.73348  0.59859  1.0000
  O   O1        1.0  0.76783  0.36101  0.15610  1.0000
  O   O2        1.0  0.25401  0.61963  0.84721  1.0000
  O   O3        1.0  0.71449  0.16572  0.33856  1.0000
  O   O4        1.0  0.26751  0.82654  0.68259  1.0000
  O   O5        1.0  0.26199  0.98654  0.12864  1.0000
  O   O6        1.0  0.73237  0.02139  0.87585  1.0000
  O   O7        1.0  0.05146  0.20569  0.16147  1.0000
  O   O8        1.0  0.93148  0.79259  0.86190  1.0000
  O   O9        1.0  0.03299  0.22734  0.96206  1.0000
  O   O10       1.0  0.95452  0.78657  0.05446  1.0000
  O   O11       1.0  0.06417  0.52022  0.10891  1.0000
  O   O12       1.0  0.92821  0.48588  0.89359  1.0000
