data_image0
_chemical_formula_structural       Cd4Hg4H40C32S16N24O8
_chemical_formula_sum              "Cd4 Hg4 H40 C32 S16 N24 O8"
_cell_length_a       7.55101
_cell_length_b       15.2559
_cell_length_c       16.2036
_cell_angle_alpha    90
_cell_angle_beta     89.9997
_cell_angle_gamma    90.0003

_space_group_name_H-M_alt    "P 1"
_space_group_IT_number       1

loop_
  _space_group_symop_operation_xyz
  'x, y, z'

loop_
  _atom_site_type_symbol
  _atom_site_label
  _atom_site_symmetry_multiplicity
  _atom_site_fract_x
  _atom_site_fract_y
  _atom_site_fract_z
  _atom_site_occupancy
  Cd  Cd1       1.0  0.49058  0.24649  0.61660  1.0000
  Cd  Cd2       1.0  0.50942  0.74650  0.38341  1.0000
  Cd  Cd3       1.0  0.99058  0.74649  0.88340  1.0000
  Cd  Cd4       1.0  0.00942  0.24650  0.11659  1.0000
  Hg  Hg1       1.0  0.03306  0.44044  0.42390  1.0000
  Hg  Hg2       1.0  0.96693  0.94044  0.57609  1.0000
  Hg  Hg3       1.0  0.53306  0.94044  0.07609  1.0000
  Hg  Hg4       1.0  0.46693  0.44044  0.92391  1.0000
  H   H1        1.0  0.13453  0.20144  0.72307  1.0000
  H   H2        1.0  0.86548  0.70144  0.27693  1.0000
  H   H3        1.0  0.63453  0.70144  0.77693  1.0000
  H   H4        1.0  0.36547  0.20144  0.22307  1.0000
  H   H5        1.0  0.45431  0.03826  0.87289  1.0000
  H   H6        1.0  0.54570  0.53826  0.12711  1.0000
  H   H7        1.0  0.95431  0.53826  0.62711  1.0000
  H   H8        1.0  0.04569  0.03826  0.37289  1.0000
  H   H9        1.0  0.91021  0.20008  0.62953  1.0000
  H   H10       1.0  0.08980  0.70009  0.37047  1.0000
  H   H11       1.0  0.41021  0.70008  0.87047  1.0000
  H   H12       1.0  0.58979  0.20009  0.12953  1.0000
  H   H13       1.0  0.13652  0.25798  0.85467  1.0000
  H   H14       1.0  0.86349  0.75798  0.14533  1.0000
  H   H15       1.0  0.63652  0.75797  0.64533  1.0000
  H   H16       1.0  0.36348  0.25797  0.35467  1.0000
  H   H17       1.0  0.91365  0.21978  0.86476  1.0000
  H   H18       1.0  0.08636  0.71979  0.13524  1.0000
  H   H19       1.0  0.41365  0.71978  0.63524  1.0000
  H   H20       1.0  0.58636  0.21979  0.36476  1.0000
  H   H21       1.0  0.95564  0.32752  0.82751  1.0000
  H   H22       1.0  0.04438  0.82752  0.17249  1.0000
  H   H23       1.0  0.45564  0.82752  0.67249  1.0000
  H   H24       1.0  0.54437  0.32752  0.32751  1.0000
  H   H25       1.0  0.57402  0.13966  0.78940  1.0000
  H   H26       1.0  0.42599  0.63966  0.21060  1.0000
  H   H27       1.0  0.07402  0.63966  0.71060  1.0000
  H   H28       1.0  0.92598  0.13967  0.28940  1.0000
  H   H29       1.0  0.19548  0.95741  0.85547  1.0000
  H   H30       1.0  0.80452  0.45742  0.14453  1.0000
  H   H31       1.0  0.69548  0.45741  0.64453  1.0000
  H   H32       1.0  0.30452  0.95742  0.35547  1.0000
  H   H33       1.0  0.20166  0.98459  0.74840  1.0000
  H   H34       1.0  0.79835  0.48459  0.25160  1.0000
  H   H35       1.0  0.70165  0.48459  0.75160  1.0000
  H   H36       1.0  0.29834  0.98459  0.24840  1.0000
  H   H37       1.0  0.09568  0.05633  0.81976  1.0000
  H   H38       1.0  0.90432  0.55633  0.18024  1.0000
  H   H39       1.0  0.59568  0.55633  0.68024  1.0000
  H   H40       1.0  0.40431  0.05633  0.31976  1.0000
  C   C1        1.0  0.64629  0.41041  0.48764  1.0000
  C   C2        1.0  0.35372  0.91041  0.51237  1.0000
  C   C3        1.0  0.14629  0.91041  0.01236  1.0000
  C   C4        1.0  0.85372  0.41040  0.98763  1.0000
  C   C5        1.0  0.17638  0.41083  0.24338  1.0000
  C   C6        1.0  0.82362  0.91082  0.75662  1.0000
  C   C7        1.0  0.67637  0.91082  0.25662  1.0000
  C   C8        1.0  0.32363  0.41082  0.74338  1.0000
  C   C9        1.0  0.29190  0.58378  0.49537  1.0000
  C   C10       1.0  0.70809  0.08378  0.50463  1.0000
  C   C11       1.0  0.79191  0.08377  0.00463  1.0000
  C   C12       1.0  0.20810  0.58378  0.99537  1.0000
  C   C13       1.0  0.13387  0.24638  0.49174  1.0000
  C   C14       1.0  0.86613  0.74639  0.50826  1.0000
  C   C15       1.0  0.63385  0.74638  0.00826  1.0000
  C   C16       1.0  0.36613  0.24638  0.99174  1.0000
  C   C17       1.0  0.88015  0.22623  0.69138  1.0000
  C   C18       1.0  0.11985  0.72623  0.30862  1.0000
  C   C19       1.0  0.38015  0.72623  0.80862  1.0000
  C   C20       1.0  0.61985  0.22623  0.19138  1.0000
  C   C21       1.0  0.00419  0.25964  0.82720  1.0000
  C   C22       1.0  0.99582  0.75964  0.17279  1.0000
  C   C23       1.0  0.50420  0.75964  0.67279  1.0000
  C   C24       1.0  0.49581  0.25964  0.32721  1.0000
  C   C25       1.0  0.44116  0.11557  0.77327  1.0000
  C   C26       1.0  0.55885  0.61558  0.22673  1.0000
  C   C27       1.0  0.94116  0.61557  0.72673  1.0000
  C   C28       1.0  0.05884  0.11557  0.27327  1.0000
  C   C29       1.0  0.20747  0.01117  0.81128  1.0000
  C   C30       1.0  0.79253  0.51118  0.18872  1.0000
  C   C31       1.0  0.70748  0.51117  0.68872  1.0000
  C   C32       1.0  0.29252  0.01118  0.31128  1.0000
  S   S1        1.0  0.71161  0.49538  0.43319  1.0000
  S   S2        1.0  0.28837  0.99539  0.56681  1.0000
  S   S3        1.0  0.21161  0.99539  0.06681  1.0000
  S   S4        1.0  0.78839  0.49538  0.93319  1.0000
  S   S5        1.0  0.21943  0.50021  0.54988  1.0000
  S   S6        1.0  0.78057  0.00021  0.45012  1.0000
  S   S7        1.0  0.71943  0.00021  0.95012  1.0000
  S   S8        1.0  0.28057  0.50021  0.04988  1.0000
  S   S9        1.0  0.99700  0.27156  0.41680  1.0000
  S   S10       1.0  0.00300  0.77156  0.58320  1.0000
  S   S11       1.0  0.49699  0.77156  0.08321  1.0000
  S   S12       1.0  0.50300  0.27156  0.91680  1.0000
  S   S13       1.0  0.23248  0.49233  0.30450  1.0000
  S   S14       1.0  0.76751  0.99233  0.69550  1.0000
  S   S15       1.0  0.73248  0.99233  0.19550  1.0000
  S   S16       1.0  0.26752  0.49233  0.80449  1.0000
  N   N1        1.0  0.59620  0.35057  0.52708  1.0000
  N   N2        1.0  0.40379  0.85058  0.47293  1.0000
  N   N3        1.0  0.09619  0.85057  0.97293  1.0000
  N   N4        1.0  0.90380  0.35057  0.02708  1.0000
  N   N5        1.0  0.13969  0.35269  0.19883  1.0000
  N   N6        1.0  0.86030  0.85269  0.80117  1.0000
  N   N7        1.0  0.63969  0.85269  0.30117  1.0000
  N   N8        1.0  0.36030  0.35269  0.69883  1.0000
  N   N9        1.0  0.34752  0.64227  0.45568  1.0000
  N   N10       1.0  0.65247  0.14226  0.54432  1.0000
  N   N11       1.0  0.84753  0.14226  0.04432  1.0000
  N   N12       1.0  0.15247  0.64227  0.95568  1.0000
  N   N13       1.0  0.23049  0.22557  0.54549  1.0000
  N   N14       1.0  0.76952  0.72557  0.45451  1.0000
  N   N15       1.0  0.73048  0.72557  0.95451  1.0000
  N   N16       1.0  0.26951  0.22557  0.04550  1.0000
  N   N17       1.0  0.01612  0.22655  0.74317  1.0000
  N   N18       1.0  0.98388  0.72655  0.25683  1.0000
  N   N19       1.0  0.51612  0.72655  0.75683  1.0000
  N   N20       1.0  0.48388  0.22655  0.24317  1.0000
  N   N21       1.0  0.37608  0.05521  0.82395  1.0000
  N   N22       1.0  0.62393  0.55521  0.17606  1.0000
  N   N23       1.0  0.87608  0.55521  0.67606  1.0000
  N   N24       1.0  0.12392  0.05521  0.32394  1.0000
  O   O1        1.0  0.72783  0.25347  0.71034  1.0000
  O   O2        1.0  0.27218  0.75347  0.28966  1.0000
  O   O3        1.0  0.22783  0.75347  0.78966  1.0000
  O   O4        1.0  0.77217  0.25347  0.21034  1.0000
  O   O5        1.0  0.35972  0.14412  0.71091  1.0000
  O   O6        1.0  0.64029  0.64412  0.28910  1.0000
  O   O7        1.0  0.85972  0.64412  0.78909  1.0000
  O   O8        1.0  0.14028  0.14412  0.21091  1.0000
