data_image0
_chemical_formula_structural       Mg2H32C24O16
_chemical_formula_sum              "Mg2 H32 C24 O16"
_cell_length_a       7.10713
_cell_length_b       7.84678
_cell_length_c       11.9296
_cell_angle_alpha    90.0002
_cell_angle_beta     93.6214
_cell_angle_gamma    89.9997

_space_group_name_H-M_alt    "P 1"
_space_group_IT_number       1

loop_
  _space_group_symop_operation_xyz
  'x, y, z'

loop_
  _atom_site_type_symbol
  _atom_site_label
  _atom_site_symmetry_multiplicity
  _atom_site_fract_x
  _atom_site_fract_y
  _atom_site_fract_z
  _atom_site_occupancy
  Mg  Mg1       1.0  0.00000  0.50000  0.50000  1.0000
  Mg  Mg2       1.0  0.50000  1.00000  0.50000  1.0000
  H   H1        1.0  0.41603  0.60850  0.69667  1.0000
  H   H2        1.0  0.08398  0.10850  0.30334  1.0000
  H   H3        1.0  0.58397  0.39150  0.30333  1.0000
  H   H4        1.0  0.91602  0.89150  0.69666  1.0000
  H   H5        1.0  0.53845  0.80053  0.73538  1.0000
  H   H6        1.0  0.96156  0.30053  0.26463  1.0000
  H   H7        1.0  0.46155  0.19947  0.26462  1.0000
  H   H8        1.0  0.03844  0.69947  0.73537  1.0000
  H   H9        1.0  0.32880  0.70108  0.86873  1.0000
  H   H10       1.0  0.17120  0.20107  0.13127  1.0000
  H   H11       1.0  0.67120  0.29893  0.13127  1.0000
  H   H12       1.0  0.82879  0.79893  0.86873  1.0000
  H   H13       1.0  0.80679  0.37630  0.95247  1.0000
  H   H14       1.0  0.69321  0.87629  0.04754  1.0000
  H   H15       1.0  0.19321  0.62371  0.04753  1.0000
  H   H16       1.0  0.30679  0.12371  0.95246  1.0000
  H   H17       1.0  0.94058  0.80214  0.28588  1.0000
  H   H18       1.0  0.55942  0.30215  0.71412  1.0000
  H   H19       1.0  0.05942  0.19786  0.71412  1.0000
  H   H20       1.0  0.44059  0.69785  0.28588  1.0000
  H   H21       1.0  0.77556  0.67762  0.20155  1.0000
  H   H22       1.0  0.72443  0.17762  0.79845  1.0000
  H   H23       1.0  0.22444  0.32238  0.79845  1.0000
  H   H24       1.0  0.27557  0.82238  0.20155  1.0000
  H   H25       1.0  0.00420  0.59298  0.24215  1.0000
  H   H26       1.0  0.49580  0.09298  0.75785  1.0000
  H   H27       1.0  0.99580  0.40703  0.75785  1.0000
  H   H28       1.0  0.50420  0.90702  0.24215  1.0000
  H   H29       1.0  0.73830  0.67677  0.40795  1.0000
  H   H30       1.0  0.76170  0.17678  0.59205  1.0000
  H   H31       1.0  0.26170  0.32323  0.59205  1.0000
  H   H32       1.0  0.23830  0.82322  0.40795  1.0000
  C   C1        1.0  0.66045  0.65156  0.60544  1.0000
  C   C2        1.0  0.83957  0.15158  0.39457  1.0000
  C   C3        1.0  0.33955  0.34844  0.39456  1.0000
  C   C4        1.0  0.16043  0.84842  0.60544  1.0000
  C   C5        1.0  0.55720  0.66568  0.71329  1.0000
  C   C6        1.0  0.94280  0.16568  0.28672  1.0000
  C   C7        1.0  0.44280  0.33432  0.28671  1.0000
  C   C8        1.0  0.05720  0.83432  0.71328  1.0000
  C   C9        1.0  0.57598  0.54134  0.89803  1.0000
  C   C10       1.0  0.92403  0.04134  0.10198  1.0000
  C   C11       1.0  0.42403  0.45866  0.10197  1.0000
  C   C12       1.0  0.07597  0.95865  0.89802  1.0000
  C   C13       1.0  0.40329  0.61129  0.92497  1.0000
  C   C14       1.0  0.09671  0.11128  0.07503  1.0000
  C   C15       1.0  0.59671  0.38872  0.07503  1.0000
  C   C16       1.0  0.90328  0.88872  0.92498  1.0000
  C   C17       1.0  0.67231  0.43058  0.97355  1.0000
  C   C18       1.0  0.82770  0.93058  0.02645  1.0000
  C   C19       1.0  0.32769  0.56943  0.02645  1.0000
  C   C20       1.0  0.17230  0.06942  0.97355  1.0000
  C   C21       1.0  0.88851  0.67284  0.26861  1.0000
  C   C22       1.0  0.61148  0.17285  0.73140  1.0000
  C   C23       1.0  0.11148  0.32716  0.73139  1.0000
  C   C24       1.0  0.38852  0.82715  0.26860  1.0000
  O   O1        1.0  0.78679  0.53928  0.60188  1.0000
  O   O2        1.0  0.71322  0.03928  0.39813  1.0000
  O   O3        1.0  0.21322  0.46073  0.39812  1.0000
  O   O4        1.0  0.28678  0.96072  0.60187  1.0000
  O   O5        1.0  0.61005  0.75133  0.52456  1.0000
  O   O6        1.0  0.88996  0.25133  0.47545  1.0000
  O   O7        1.0  0.38995  0.24867  0.47544  1.0000
  O   O8        1.0  0.11005  0.74867  0.52456  1.0000
  O   O9        1.0  0.66244  0.57579  0.80039  1.0000
  O   O10       1.0  0.83757  0.07579  0.19961  1.0000
  O   O11       1.0  0.33757  0.42421  0.19961  1.0000
  O   O12       1.0  0.16243  0.92421  0.80039  1.0000
  O   O13       1.0  0.82126  0.59696  0.36847  1.0000
  O   O14       1.0  0.67874  0.09697  0.63153  1.0000
  O   O15       1.0  0.17875  0.40304  0.63153  1.0000
  O   O16       1.0  0.32126  0.90303  0.36847  1.0000
