data_image0
_chemical_formula_structural       Cd4H48C36O32
_chemical_formula_sum              "Cd4 H48 C36 O32"
_cell_length_a       6.97984
_cell_length_b       10.1644
_cell_length_c       16.417
_cell_angle_alpha    90
_cell_angle_beta     90
_cell_angle_gamma    99.5658

_space_group_name_H-M_alt    "P 1"
_space_group_IT_number       1

loop_
  _space_group_symop_operation_xyz
  'x, y, z'

loop_
  _atom_site_type_symbol
  _atom_site_label
  _atom_site_symmetry_multiplicity
  _atom_site_fract_x
  _atom_site_fract_y
  _atom_site_fract_z
  _atom_site_occupancy
  Cd  Cd1       1.0  0.76583  0.02648  0.62086  1.0000
  Cd  Cd2       1.0  0.23417  0.47351  0.12086  1.0000
  Cd  Cd3       1.0  0.23417  0.97351  0.37914  1.0000
  Cd  Cd4       1.0  0.76583  0.52649  0.87914  1.0000
  H   H1        1.0  0.30324  0.67392  0.73978  1.0000
  H   H2        1.0  0.69676  0.82608  0.23978  1.0000
  H   H3        1.0  0.69675  0.32608  0.26023  1.0000
  H   H4        1.0  0.30324  0.17393  0.76023  1.0000
  H   H5        1.0  0.43540  0.74168  0.82646  1.0000
  H   H6        1.0  0.56460  0.75832  0.32647  1.0000
  H   H7        1.0  0.56459  0.25832  0.17354  1.0000
  H   H8        1.0  0.43541  0.24168  0.67354  1.0000
  H   H9        1.0  0.90656  0.94702  0.82297  1.0000
  H   H10       1.0  0.09345  0.55298  0.32297  1.0000
  H   H11       1.0  0.09344  0.05299  0.17703  1.0000
  H   H12       1.0  0.90656  0.44702  0.67703  1.0000
  H   H13       1.0  0.51004  0.93890  0.87733  1.0000
  H   H14       1.0  0.48996  0.56110  0.37733  1.0000
  H   H15       1.0  0.48995  0.06110  0.12267  1.0000
  H   H16       1.0  0.51004  0.43890  0.62267  1.0000
  H   H17       1.0  0.91297  0.13920  0.91723  1.0000
  H   H18       1.0  0.08703  0.36080  0.41723  1.0000
  H   H19       1.0  0.08703  0.86080  0.08278  1.0000
  H   H20       1.0  0.91297  0.63920  0.58277  1.0000
  H   H21       1.0  0.51475  0.13043  0.96890  1.0000
  H   H22       1.0  0.48524  0.36957  0.46890  1.0000
  H   H23       1.0  0.48525  0.86957  0.03110  1.0000
  H   H24       1.0  0.51475  0.63042  0.53109  1.0000
  H   H25       1.0  0.15141  0.01295  0.57678  1.0000
  H   H26       1.0  0.84859  0.48705  0.07679  1.0000
  H   H27       1.0  0.84859  0.98705  0.42322  1.0000
  H   H28       1.0  0.15141  0.51295  0.92322  1.0000
  H   H29       1.0  0.75142  0.21459  0.75610  1.0000
  H   H30       1.0  0.24858  0.28541  0.25610  1.0000
  H   H31       1.0  0.24858  0.78541  0.24391  1.0000
  H   H32       1.0  0.75142  0.71459  0.74390  1.0000
  H   H33       1.0  0.60174  0.84762  0.48895  1.0000
  H   H34       1.0  0.39826  0.65238  0.98895  1.0000
  H   H35       1.0  0.39825  0.15238  0.51105  1.0000
  H   H36       1.0  0.60175  0.34762  0.01105  1.0000
  H   H37       1.0  0.83281  0.83125  0.50120  1.0000
  H   H38       1.0  0.16719  0.66875  0.00120  1.0000
  H   H39       1.0  0.16719  0.16875  0.49880  1.0000
  H   H40       1.0  0.83281  0.33125  0.99880  1.0000
  H   H41       1.0  0.17620  0.95923  0.66402  1.0000
  H   H42       1.0  0.82380  0.54077  0.16402  1.0000
  H   H43       1.0  0.82380  0.04077  0.33598  1.0000
  H   H44       1.0  0.17620  0.45923  0.83598  1.0000
  H   H45       1.0  0.96343  0.21308  0.72367  1.0000
  H   H46       1.0  0.03657  0.28692  0.22367  1.0000
  H   H47       1.0  0.03657  0.78691  0.27633  1.0000
  H   H48       1.0  0.96343  0.71309  0.77633  1.0000
  C   C1        1.0  0.48742  0.86079  0.71660  1.0000
  C   C2        1.0  0.51258  0.63921  0.21660  1.0000
  C   C3        1.0  0.51258  0.13921  0.28340  1.0000
  C   C4        1.0  0.48742  0.36080  0.78340  1.0000
  C   C5        1.0  0.35513  0.76713  0.77265  1.0000
  C   C6        1.0  0.64487  0.73287  0.27265  1.0000
  C   C7        1.0  0.64487  0.23287  0.22735  1.0000
  C   C8        1.0  0.35513  0.26713  0.72735  1.0000
  C   C9        1.0  0.20456  0.92820  0.84634  1.0000
  C   C10       1.0  0.79544  0.57180  0.34634  1.0000
  C   C11       1.0  0.79543  0.07180  0.15366  1.0000
  C   C12       1.0  0.20456  0.42820  0.65366  1.0000
  C   C13       1.0  0.03756  0.98607  0.85702  1.0000
  C   C14       1.0  0.96244  0.51393  0.35702  1.0000
  C   C15       1.0  0.96244  0.01393  0.14298  1.0000
  C   C16       1.0  0.03756  0.48607  0.64297  1.0000
  C   C17       1.0  0.37805  0.98128  0.88571  1.0000
  C   C18       1.0  0.62195  0.51872  0.38570  1.0000
  C   C19       1.0  0.62195  0.01872  0.11430  1.0000
  C   C20       1.0  0.37805  0.48128  0.61429  1.0000
  C   C21       1.0  0.21457  0.25633  0.01099  1.0000
  C   C22       1.0  0.78543  0.24367  0.51099  1.0000
  C   C23       1.0  0.78543  0.74367  0.98901  1.0000
  C   C24       1.0  0.21457  0.75633  0.48901  1.0000
  C   C25       1.0  0.21344  0.14644  0.95128  1.0000
  C   C26       1.0  0.78656  0.35356  0.45128  1.0000
  C   C27       1.0  0.78656  0.85356  0.04872  1.0000
  C   C28       1.0  0.21344  0.64644  0.54872  1.0000
  C   C29       1.0  0.04233  0.09373  0.90925  1.0000
  C   C30       1.0  0.95767  0.40627  0.40925  1.0000
  C   C31       1.0  0.95767  0.90627  0.09075  1.0000
  C   C32       1.0  0.04232  0.59372  0.59074  1.0000
  C   C33       1.0  0.38052  0.09005  0.93757  1.0000
  C   C34       1.0  0.61948  0.40994  0.43757  1.0000
  C   C35       1.0  0.61948  0.90995  0.06243  1.0000
  C   C36       1.0  0.38051  0.59005  0.56242  1.0000
  O   O1        1.0  0.65517  0.83159  0.70197  1.0000
  O   O2        1.0  0.34482  0.66841  0.20197  1.0000
  O   O3        1.0  0.34482  0.16841  0.29803  1.0000
  O   O4        1.0  0.65518  0.33158  0.79803  1.0000
  O   O5        1.0  0.43051  0.96174  0.68635  1.0000
  O   O6        1.0  0.56949  0.53826  0.18635  1.0000
  O   O7        1.0  0.56949  0.03826  0.31365  1.0000
  O   O8        1.0  0.43052  0.46175  0.81365  1.0000
  O   O9        1.0  0.18485  0.81966  0.79512  1.0000
  O   O10       1.0  0.81515  0.68034  0.29512  1.0000
  O   O11       1.0  0.81515  0.18034  0.20488  1.0000
  O   O12       1.0  0.18486  0.31966  0.70488  1.0000
  O   O13       1.0  0.37681  0.31145  0.04364  1.0000
  O   O14       1.0  0.62319  0.18854  0.54364  1.0000
  O   O15       1.0  0.62319  0.68855  0.95636  1.0000
  O   O16       1.0  0.37682  0.81145  0.45636  1.0000
  O   O17       1.0  0.05638  0.29374  0.03143  1.0000
  O   O18       1.0  0.94362  0.20627  0.53143  1.0000
  O   O19       1.0  0.94361  0.70626  0.96857  1.0000
  O   O20       1.0  0.05638  0.79374  0.46856  1.0000
  O   O21       1.0  0.07532  0.97010  0.62358  1.0000
  O   O22       1.0  0.92468  0.52990  0.12358  1.0000
  O   O23       1.0  0.92468  0.02990  0.37642  1.0000
  O   O24       1.0  0.07532  0.47010  0.87642  1.0000
  O   O25       1.0  0.83854  0.15409  0.73349  1.0000
  O   O26       1.0  0.16146  0.34591  0.23349  1.0000
  O   O27       1.0  0.16146  0.84591  0.26651  1.0000
  O   O28       1.0  0.83854  0.65409  0.76651  1.0000
  O   O29       1.0  0.73614  0.89270  0.50452  1.0000
  O   O30       1.0  0.26387  0.60729  0.00452  1.0000
  O   O31       1.0  0.26386  0.10730  0.49548  1.0000
  O   O32       1.0  0.73614  0.39271  0.99548  1.0000
