data_image0
_chemical_formula_structural       Ag8H16C48Cl24O8
_chemical_formula_sum              "Ag8 H16 C48 Cl24 O8"
_cell_length_a       5.67871
_cell_length_b       11.4035
_cell_length_c       23.75
_cell_angle_alpha    90
_cell_angle_beta     90
_cell_angle_gamma    90

_space_group_name_H-M_alt    "P 1"
_space_group_IT_number       1

loop_
  _space_group_symop_operation_xyz
  'x, y, z'

loop_
  _atom_site_type_symbol
  _atom_site_label
  _atom_site_symmetry_multiplicity
  _atom_site_fract_x
  _atom_site_fract_y
  _atom_site_fract_z
  _atom_site_occupancy
  Ag  Ag1       1.0  0.11551  0.15292  0.19322  1.0000
  Ag  Ag2       1.0  0.61551  0.34708  0.19322  1.0000
  Ag  Ag3       1.0  0.61551  0.15292  0.30678  1.0000
  Ag  Ag4       1.0  0.11551  0.34707  0.30678  1.0000
  Ag  Ag5       1.0  0.88449  0.84708  0.80678  1.0000
  Ag  Ag6       1.0  0.38449  0.65292  0.80678  1.0000
  Ag  Ag7       1.0  0.38449  0.84708  0.69322  1.0000
  Ag  Ag8       1.0  0.88450  0.65293  0.69322  1.0000
  H   H1        1.0  0.67897  0.99482  0.02811  1.0000
  H   H2        1.0  0.17897  0.50518  0.02811  1.0000
  H   H3        1.0  0.17897  0.99482  0.47189  1.0000
  H   H4        1.0  0.67897  0.50518  0.47189  1.0000
  H   H5        1.0  0.32103  0.00518  0.97189  1.0000
  H   H6        1.0  0.82103  0.49482  0.97189  1.0000
  H   H7        1.0  0.82103  0.00518  0.52811  1.0000
  H   H8        1.0  0.32103  0.49482  0.52811  1.0000
  H   H9        1.0  0.84901  0.99078  0.23278  1.0000
  H   H10       1.0  0.34901  0.50922  0.23278  1.0000
  H   H11       1.0  0.34901  0.99078  0.26722  1.0000
  H   H12       1.0  0.84901  0.50922  0.26722  1.0000
  H   H13       1.0  0.15099  0.00922  0.76722  1.0000
  H   H14       1.0  0.65099  0.49078  0.76722  1.0000
  H   H15       1.0  0.65099  0.00922  0.73278  1.0000
  H   H16       1.0  0.15099  0.49078  0.73278  1.0000
  C   C1        1.0  0.64346  0.07540  0.16756  1.0000
  C   C2        1.0  0.14346  0.42461  0.16756  1.0000
  C   C3        1.0  0.14346  0.07540  0.33244  1.0000
  C   C4        1.0  0.64346  0.42461  0.33244  1.0000
  C   C5        1.0  0.35654  0.92460  0.83244  1.0000
  C   C6        1.0  0.85654  0.57539  0.83244  1.0000
  C   C7        1.0  0.85654  0.92460  0.66756  1.0000
  C   C8        1.0  0.35654  0.57539  0.66756  1.0000
  C   C9        1.0  0.59308  0.06825  0.10899  1.0000
  C   C10       1.0  0.09308  0.43175  0.10899  1.0000
  C   C11       1.0  0.09307  0.06825  0.39101  1.0000
  C   C12       1.0  0.59308  0.43175  0.39101  1.0000
  C   C13       1.0  0.40693  0.93175  0.89101  1.0000
  C   C14       1.0  0.90692  0.56825  0.89101  1.0000
  C   C15       1.0  0.90693  0.93175  0.60899  1.0000
  C   C16       1.0  0.40693  0.56825  0.60899  1.0000
  C   C17       1.0  0.71941  0.99624  0.07287  1.0000
  C   C18       1.0  0.21941  0.50376  0.07287  1.0000
  C   C19       1.0  0.21941  0.99624  0.42713  1.0000
  C   C20       1.0  0.71941  0.50376  0.42713  1.0000
  C   C21       1.0  0.28059  0.00376  0.92713  1.0000
  C   C22       1.0  0.78059  0.49624  0.92713  1.0000
  C   C23       1.0  0.78059  0.00376  0.57287  1.0000
  C   C24       1.0  0.28059  0.49624  0.57287  1.0000
  C   C25       1.0  0.90407  0.92665  0.09302  1.0000
  C   C26       1.0  0.40407  0.57334  0.09302  1.0000
  C   C27       1.0  0.40407  0.92665  0.40698  1.0000
  C   C28       1.0  0.90407  0.57335  0.40698  1.0000
  C   C29       1.0  0.09593  0.07335  0.90698  1.0000
  C   C30       1.0  0.59593  0.42666  0.90698  1.0000
  C   C31       1.0  0.59593  0.07335  0.59302  1.0000
  C   C32       1.0  0.09593  0.42665  0.59302  1.0000
  C   C33       1.0  0.95657  0.92844  0.15057  1.0000
  C   C34       1.0  0.45657  0.57156  0.15057  1.0000
  C   C35       1.0  0.45657  0.92844  0.34943  1.0000
  C   C36       1.0  0.95657  0.57156  0.34943  1.0000
  C   C37       1.0  0.04343  0.07156  0.84943  1.0000
  C   C38       1.0  0.54343  0.42844  0.84943  1.0000
  C   C39       1.0  0.54343  0.07156  0.65057  1.0000
  C   C40       1.0  0.04343  0.42844  0.65057  1.0000
  C   C41       1.0  0.83024  0.00246  0.18734  1.0000
  C   C42       1.0  0.33024  0.49754  0.18734  1.0000
  C   C43       1.0  0.33024  0.00246  0.31266  1.0000
  C   C44       1.0  0.83024  0.49754  0.31266  1.0000
  C   C45       1.0  0.16976  0.99754  0.81266  1.0000
  C   C46       1.0  0.66976  0.50246  0.81266  1.0000
  C   C47       1.0  0.66976  0.99754  0.68734  1.0000
  C   C48       1.0  0.16976  0.50246  0.68734  1.0000
  Cl  Cl1       1.0  0.36393  0.15235  0.08233  1.0000
  Cl  Cl2       1.0  0.86393  0.34765  0.08233  1.0000
  Cl  Cl3       1.0  0.86393  0.15235  0.41767  1.0000
  Cl  Cl4       1.0  0.36393  0.34765  0.41767  1.0000
  Cl  Cl5       1.0  0.63607  0.84765  0.91767  1.0000
  Cl  Cl6       1.0  0.13607  0.65235  0.91767  1.0000
  Cl  Cl7       1.0  0.13607  0.84765  0.58233  1.0000
  Cl  Cl8       1.0  0.63607  0.65235  0.58233  1.0000
  Cl  Cl9       1.0  0.06406  0.84256  0.04653  1.0000
  Cl  Cl10      1.0  0.56407  0.65743  0.04653  1.0000
  Cl  Cl11      1.0  0.56406  0.84256  0.45347  1.0000
  Cl  Cl12      1.0  0.06407  0.65743  0.45347  1.0000
  Cl  Cl13      1.0  0.93594  0.15744  0.95347  1.0000
  Cl  Cl14      1.0  0.43593  0.34257  0.95347  1.0000
  Cl  Cl15      1.0  0.43594  0.15744  0.54653  1.0000
  Cl  Cl16      1.0  0.93593  0.34257  0.54653  1.0000
  Cl  Cl17      1.0  0.17350  0.83942  0.17821  1.0000
  Cl  Cl18      1.0  0.67351  0.66057  0.17822  1.0000
  Cl  Cl19      1.0  0.67350  0.83942  0.32178  1.0000
  Cl  Cl20      1.0  0.17351  0.66057  0.32179  1.0000
  Cl  Cl21      1.0  0.82650  0.16058  0.82179  1.0000
  Cl  Cl22      1.0  0.32649  0.33943  0.82178  1.0000
  Cl  Cl23      1.0  0.32650  0.16058  0.67822  1.0000
  Cl  Cl24      1.0  0.82649  0.33943  0.67821  1.0000
  O   O1        1.0  0.52385  0.14368  0.20237  1.0000
  O   O2        1.0  0.02385  0.35632  0.20237  1.0000
  O   O3        1.0  0.02385  0.14368  0.29763  1.0000
  O   O4        1.0  0.52385  0.35632  0.29763  1.0000
  O   O5        1.0  0.47615  0.85632  0.79763  1.0000
  O   O6        1.0  0.97615  0.64368  0.79763  1.0000
  O   O7        1.0  0.97615  0.85632  0.70237  1.0000
  O   O8        1.0  0.47615  0.64368  0.70237  1.0000
