data_image0
_chemical_formula_structural       Cd2H24C26N4O10
_chemical_formula_sum              "Cd2 H24 C26 N4 O10"
_cell_length_a       8.90997
_cell_length_b       9.25589
_cell_length_c       8.28369
_cell_angle_alpha    68.8215
_cell_angle_beta     78.8195
_cell_angle_gamma    77.7255

_space_group_name_H-M_alt    "P 1"
_space_group_IT_number       1

loop_
  _space_group_symop_operation_xyz
  'x, y, z'

loop_
  _atom_site_type_symbol
  _atom_site_label
  _atom_site_symmetry_multiplicity
  _atom_site_fract_x
  _atom_site_fract_y
  _atom_site_fract_z
  _atom_site_occupancy
  Cd  Cd1       1.0  0.10402  0.58097  0.27801  1.0000
  Cd  Cd2       1.0  0.89598  0.41904  0.72198  1.0000
  H   H1        1.0  0.12656  0.19662  0.51446  1.0000
  H   H2        1.0  0.87346  0.80337  0.48552  1.0000
  H   H3        1.0  0.85401  0.81196  0.99435  1.0000
  H   H4        1.0  0.14600  0.18804  0.00566  1.0000
  H   H5        1.0  0.37763  0.96485  0.36840  1.0000
  H   H6        1.0  0.62237  0.03516  0.63160  1.0000
  H   H7        1.0  0.59511  0.79070  0.25780  1.0000
  H   H8        1.0  0.40490  0.20930  0.74221  1.0000
  H   H9        1.0  0.55935  0.37897  0.01047  1.0000
  H   H10       1.0  0.44065  0.62104  0.98953  1.0000
  H   H11       1.0  0.11770  0.92647  0.54382  1.0000
  H   H12       1.0  0.88230  0.07351  0.45617  1.0000
  H   H13       1.0  0.04187  0.80444  0.75153  1.0000
  H   H14       1.0  0.95812  0.19555  0.24849  1.0000
  H   H15       1.0  0.21937  0.87904  0.72395  1.0000
  H   H16       1.0  0.78063  0.12095  0.27606  1.0000
  H   H17       1.0  0.67993  0.37913  0.24824  1.0000
  H   H18       1.0  0.32007  0.62087  0.75176  1.0000
  H   H19       1.0  0.58668  0.57181  0.19818  1.0000
  H   H20       1.0  0.41333  0.42819  0.80181  1.0000
  H   H21       1.0  0.47262  0.35555  0.46776  1.0000
  H   H22       1.0  0.52738  0.64445  0.53225  1.0000
  H   H23       1.0  0.62277  0.35888  0.57723  1.0000
  H   H24       1.0  0.37723  0.64111  0.42277  1.0000
  C   C1        1.0  0.31336  0.27805  0.25302  1.0000
  C   C2        1.0  0.68664  0.72196  0.74698  1.0000
  C   C3        1.0  0.45325  0.18020  0.19371  1.0000
  C   C4        1.0  0.54675  0.81980  0.80628  1.0000
  C   C5        1.0  0.46634  0.01515  0.26455  1.0000
  C   C6        1.0  0.53366  0.98485  0.73545  1.0000
  C   C7        1.0  0.58697  0.91731  0.20358  1.0000
  C   C8        1.0  0.41303  0.08269  0.79643  1.0000
  C   C9        1.0  0.69404  0.98911  0.06619  1.0000
  C   C10       1.0  0.30596  0.01089  0.93382  1.0000
  C   C11       1.0  0.68632  0.15542  0.99845  1.0000
  C   C12       1.0  0.31368  0.84458  0.00155  1.0000
  C   C13       1.0  0.56667  0.25208  0.06372  1.0000
  C   C14       1.0  0.43332  0.74793  0.93628  1.0000
  C   C15       1.0  0.88661  0.05404  0.84915  1.0000
  C   C16       1.0  0.11337  0.94596  0.15088  1.0000
  C   C17       1.0  0.01579  0.04784  0.72322  1.0000
  C   C18       1.0  0.98425  0.95216  0.27676  1.0000
  C   C19       1.0  0.10168  0.90615  0.68551  1.0000
  C   C20       1.0  0.89831  0.09384  0.31450  1.0000
  C   C21       1.0  0.80638  0.52474  0.28786  1.0000
  C   C22       1.0  0.19362  0.47526  0.71215  1.0000
  C   C23       1.0  0.65074  0.47883  0.29761  1.0000
  C   C24       1.0  0.34927  0.52117  0.70239  1.0000
  C   C25       1.0  0.54950  0.43102  0.47468  1.0000
  C   C26       1.0  0.45050  0.56898  0.52532  1.0000
  N   N1        1.0  0.80770  0.19195  0.86861  1.0000
  N   N2        1.0  0.19230  0.80805  0.13139  1.0000
  N   N3        1.0  0.82001  0.93006  0.97206  1.0000
  N   N4        1.0  0.17999  0.06994  0.02794  1.0000
  O   O1        1.0  0.31461  0.42591  0.20746  1.0000
  O   O2        1.0  0.68539  0.57410  0.79253  1.0000
  O   O3        1.0  0.19894  0.21022  0.34158  1.0000
  O   O4        1.0  0.80105  0.78980  0.65841  1.0000
  O   O5        1.0  0.06610  0.18604  0.63892  1.0000
  O   O6        1.0  0.93389  0.81395  0.36108  1.0000
  O   O7        1.0  0.87512  0.47893  0.42478  1.0000
  O   O8        1.0  0.12488  0.52106  0.57522  1.0000
  O   O9        1.0  0.87439  0.59981  0.14030  1.0000
  O   O10       1.0  0.12560  0.40019  0.85970  1.0000
