data_image0
_chemical_formula_structural       Cd4H36C44N8O16
_chemical_formula_sum              "Cd4 H36 C44 N8 O16"
_cell_length_a       7.96569
_cell_length_b       8.15586
_cell_length_c       16.788
_cell_angle_alpha    90
_cell_angle_beta     90
_cell_angle_gamma    98.501

_space_group_name_H-M_alt    "P 1"
_space_group_IT_number       1

loop_
  _space_group_symop_operation_xyz
  'x, y, z'

loop_
  _atom_site_type_symbol
  _atom_site_label
  _atom_site_symmetry_multiplicity
  _atom_site_fract_x
  _atom_site_fract_y
  _atom_site_fract_z
  _atom_site_occupancy
  Cd  Cd1       1.0  0.12716  0.28969  0.26409  1.0000
  Cd  Cd2       1.0  0.37284  0.71031  0.76409  1.0000
  Cd  Cd3       1.0  0.87284  0.71032  0.73591  1.0000
  Cd  Cd4       1.0  0.62715  0.28968  0.23591  1.0000
  H   H1        1.0  0.78854  0.69352  0.32901  1.0000
  H   H2        1.0  0.71146  0.30648  0.82900  1.0000
  H   H3        1.0  0.21147  0.30648  0.67100  1.0000
  H   H4        1.0  0.28853  0.69351  0.17099  1.0000
  H   H5        1.0  0.86308  0.92145  0.22657  1.0000
  H   H6        1.0  0.63692  0.07855  0.72656  1.0000
  H   H7        1.0  0.13693  0.07855  0.77344  1.0000
  H   H8        1.0  0.36307  0.92145  0.27344  1.0000
  H   H9        1.0  0.92561  0.62828  0.48793  1.0000
  H   H10       1.0  0.57439  0.37172  0.98793  1.0000
  H   H11       1.0  0.07439  0.37172  0.51206  1.0000
  H   H12       1.0  0.42560  0.62828  0.01206  1.0000
  H   H13       1.0  0.35922  0.99077  0.54313  1.0000
  H   H14       1.0  0.14078  0.00923  0.04313  1.0000
  H   H15       1.0  0.64078  0.00923  0.45687  1.0000
  H   H16       1.0  0.85922  0.99078  0.95687  1.0000
  H   H17       1.0  0.34026  0.13338  0.41116  1.0000
  H   H18       1.0  0.15974  0.86662  0.91116  1.0000
  H   H19       1.0  0.65974  0.86662  0.58884  1.0000
  H   H20       1.0  0.84026  0.13338  0.08884  1.0000
  H   H21       1.0  0.26976  0.54332  0.41309  1.0000
  H   H22       1.0  0.23024  0.45668  0.91309  1.0000
  H   H23       1.0  0.73024  0.45668  0.58691  1.0000
  H   H24       1.0  0.76976  0.54332  0.08691  1.0000
  H   H25       1.0  0.41199  0.72372  0.38580  1.0000
  H   H26       1.0  0.08801  0.27628  0.88580  1.0000
  H   H27       1.0  0.58802  0.27628  0.61420  1.0000
  H   H28       1.0  0.91198  0.72372  0.11420  1.0000
  H   H29       1.0  0.63652  0.64322  0.47362  1.0000
  H   H30       1.0  0.86348  0.35678  0.97362  1.0000
  H   H31       1.0  0.36348  0.35678  0.52638  1.0000
  H   H32       1.0  0.13652  0.64322  0.02638  1.0000
  H   H33       1.0  0.45034  0.66748  0.52614  1.0000
  H   H34       1.0  0.04966  0.33252  0.02614  1.0000
  H   H35       1.0  0.54966  0.33252  0.47386  1.0000
  H   H36       1.0  0.95034  0.66748  0.97386  1.0000
  C   C1        1.0  0.93496  0.91038  0.28065  1.0000
  C   C2        1.0  0.56504  0.08962  0.78065  1.0000
  C   C3        1.0  0.06504  0.08962  0.71935  1.0000
  C   C4        1.0  0.43496  0.91038  0.21935  1.0000
  C   C5        1.0  0.11970  0.95866  0.37610  1.0000
  C   C6        1.0  0.38030  0.04134  0.87610  1.0000
  C   C7        1.0  0.88030  0.04134  0.62390  1.0000
  C   C8        1.0  0.61969  0.95866  0.12390  1.0000
  C   C9        1.0  0.00660  0.81355  0.39652  1.0000
  C   C10       1.0  0.49339  0.18645  0.89652  1.0000
  C   C11       1.0  0.99340  0.18645  0.60348  1.0000
  C   C12       1.0  0.50660  0.81355  0.10348  1.0000
  C   C13       1.0  0.01525  0.73555  0.46979  1.0000
  C   C14       1.0  0.48475  0.26445  0.96979  1.0000
  C   C15       1.0  0.98475  0.26445  0.53021  1.0000
  C   C16       1.0  0.51525  0.73555  0.03021  1.0000
  C   C17       1.0  0.14302  0.80473  0.52190  1.0000
  C   C18       1.0  0.35698  0.19527  0.02190  1.0000
  C   C19       1.0  0.85698  0.19527  0.47810  1.0000
  C   C20       1.0  0.64302  0.80473  0.97810  1.0000
  C   C21       1.0  0.26199  0.94389  0.49984  1.0000
  C   C22       1.0  0.23801  0.05611  0.99984  1.0000
  C   C23       1.0  0.73801  0.05611  0.50016  1.0000
  C   C24       1.0  0.76199  0.94389  0.00016  1.0000
  C   C25       1.0  0.25234  0.02300  0.42720  1.0000
  C   C26       1.0  0.24766  0.97700  0.92720  1.0000
  C   C27       1.0  0.74766  0.97700  0.57280  1.0000
  C   C28       1.0  0.75233  0.02300  0.07280  1.0000
  C   C29       1.0  0.14739  0.73850  0.60505  1.0000
  C   C30       1.0  0.35261  0.26150  0.10505  1.0000
  C   C31       1.0  0.85261  0.26150  0.39495  1.0000
  C   C32       1.0  0.64739  0.73850  0.89495  1.0000
  C   C33       1.0  0.47679  0.49714  0.33959  1.0000
  C   C34       1.0  0.02321  0.50286  0.83959  1.0000
  C   C35       1.0  0.52322  0.50286  0.66041  1.0000
  C   C36       1.0  0.97679  0.49714  0.16041  1.0000
  C   C37       1.0  0.40420  0.59364  0.40453  1.0000
  C   C38       1.0  0.09580  0.40636  0.90453  1.0000
  C   C39       1.0  0.59580  0.40636  0.59547  1.0000
  C   C40       1.0  0.90420  0.59364  0.09547  1.0000
  C   C41       1.0  0.50346  0.58749  0.48305  1.0000
  C   C42       1.0  0.99654  0.41251  0.98305  1.0000
  C   C43       1.0  0.49655  0.41251  0.51695  1.0000
  C   C44       1.0  0.00345  0.58749  0.01695  1.0000
  N   N1        1.0  0.07030  0.01671  0.30317  1.0000
  N   N2        1.0  0.42970  0.98329  0.80317  1.0000
  N   N3        1.0  0.92970  0.98329  0.69683  1.0000
  N   N4        1.0  0.57030  0.01671  0.19683  1.0000
  N   N5        1.0  0.89311  0.78659  0.33380  1.0000
  N   N6        1.0  0.60689  0.21341  0.83380  1.0000
  N   N7        1.0  0.10690  0.21341  0.66620  1.0000
  N   N8        1.0  0.39310  0.78659  0.16620  1.0000
  O   O1        1.0  0.39449  0.35680  0.31706  1.0000
  O   O2        1.0  0.10551  0.64320  0.81706  1.0000
  O   O3        1.0  0.60551  0.64320  0.68294  1.0000
  O   O4        1.0  0.89449  0.35680  0.18294  1.0000
  O   O5        1.0  0.62188  0.54829  0.30997  1.0000
  O   O6        1.0  0.87812  0.45171  0.80997  1.0000
  O   O7        1.0  0.37812  0.45171  0.69003  1.0000
  O   O8        1.0  0.12188  0.54829  0.19003  1.0000
  O   O9        1.0  0.27569  0.79672  0.64697  1.0000
  O   O10       1.0  0.22431  0.20328  0.14697  1.0000
  O   O11       1.0  0.72431  0.20328  0.35303  1.0000
  O   O12       1.0  0.77569  0.79673  0.85303  1.0000
  O   O13       1.0  0.02131  0.63412  0.62848  1.0000
  O   O14       1.0  0.47869  0.36588  0.12848  1.0000
  O   O15       1.0  0.97869  0.36588  0.37152  1.0000
  O   O16       1.0  0.52131  0.63412  0.87152  1.0000
