data_image0
_chemical_formula_structural       Cd3H54C52S2N18O20
_chemical_formula_sum              "Cd3 H54 C52 S2 N18 O20"
_cell_length_a       10.2109
_cell_length_b       13.0167
_cell_length_c       13.8717
_cell_angle_alpha    60.765
_cell_angle_beta     83.027
_cell_angle_gamma    88.0866

_space_group_name_H-M_alt    "P 1"
_space_group_IT_number       1

loop_
  _space_group_symop_operation_xyz
  'x, y, z'

loop_
  _atom_site_type_symbol
  _atom_site_label
  _atom_site_symmetry_multiplicity
  _atom_site_fract_x
  _atom_site_fract_y
  _atom_site_fract_z
  _atom_site_occupancy
  Cd  Cd1       1.0  0.51657  0.69124  0.85245  1.0000
  Cd  Cd2       1.0  0.48345  0.30875  0.14756  1.0000
  Cd  Cd3       1.0  0.50000  0.50002  0.49999  1.0000
  H   H1        1.0  0.94157  0.17052  0.26136  1.0000
  H   H2        1.0  0.05839  0.82948  0.73864  1.0000
  H   H3        1.0  0.11535  0.10542  0.16266  1.0000
  H   H4        1.0  0.88461  0.89459  0.83732  1.0000
  H   H5        1.0  0.04677  0.74702  0.42911  1.0000
  H   H6        1.0  0.95323  0.25300  0.57091  1.0000
  H   H7        1.0  0.88152  0.81232  0.52785  1.0000
  H   H8        1.0  0.11849  0.18770  0.47218  1.0000
  H   H9        1.0  0.83507  0.06843  0.50928  1.0000
  H   H10       1.0  0.16492  0.93158  0.49073  1.0000
  H   H11       1.0  0.74924  0.12100  0.39130  1.0000
  H   H12       1.0  0.25074  0.87901  0.60871  1.0000
  H   H13       1.0  0.13649  0.81945  0.20396  1.0000
  H   H14       1.0  0.86347  0.18054  0.79606  1.0000
  H   H15       1.0  0.22905  0.95387  0.14256  1.0000
  H   H16       1.0  0.77090  0.04613  0.85744  1.0000
  H   H17       1.0  0.71485  0.91684  0.68884  1.0000
  H   H18       1.0  0.28515  0.08317  0.31117  1.0000
  H   H19       1.0  0.46579  0.76983  0.56515  1.0000
  H   H20       1.0  0.53419  0.23018  0.43487  1.0000
  H   H21       1.0  0.56233  0.79717  0.38299  1.0000
  H   H22       1.0  0.43764  0.20289  0.61700  1.0000
  H   H23       1.0  0.24560  0.63664  0.33126  1.0000
  H   H24       1.0  0.75441  0.36338  0.66873  1.0000
  H   H25       1.0  0.12047  0.85877  0.95255  1.0000
  H   H26       1.0  0.87951  0.14121  0.04744  1.0000
  H   H27       1.0  0.93247  0.78808  0.10115  1.0000
  H   H28       1.0  0.06750  0.21190  0.89885  1.0000
  H   H29       1.0  0.18784  0.09406  0.74511  1.0000
  H   H30       1.0  0.81216  0.90593  0.25489  1.0000
  H   H31       1.0  0.25599  0.17221  0.80315  1.0000
  H   H32       1.0  0.74400  0.82778  0.19685  1.0000
  H   H33       1.0  0.54203  0.85697  0.00520  1.0000
  H   H34       1.0  0.45796  0.14302  0.99482  1.0000
  H   H35       1.0  0.33265  0.93753  0.73524  1.0000
  H   H36       1.0  0.66737  0.06246  0.26476  1.0000
  H   H37       1.0  0.00925  0.67305  0.85693  1.0000
  H   H38       1.0  0.99078  0.32690  0.14308  1.0000
  H   H39       1.0  0.18820  0.55769  0.15756  1.0000
  H   H40       1.0  0.81182  0.44230  0.84244  1.0000
  H   H41       1.0  0.76530  0.56996  0.16596  1.0000
  H   H42       1.0  0.23472  0.43002  0.83404  1.0000
  H   H43       1.0  0.59227  0.47779  0.87267  1.0000
  H   H44       1.0  0.40776  0.52221  0.12732  1.0000
  H   H45       1.0  0.44172  0.46377  0.88787  1.0000
  H   H46       1.0  0.55831  0.53622  0.11212  1.0000
  H   H47       1.0  0.54690  0.46792  0.29526  1.0000
  H   H48       1.0  0.45312  0.53209  0.70473  1.0000
  H   H49       1.0  0.68049  0.47455  0.34423  1.0000
  H   H50       1.0  0.31952  0.52546  0.65577  1.0000
  H   H51       1.0  0.77064  0.57940  0.43988  1.0000
  H   H52       1.0  0.22938  0.42061  0.56011  1.0000
  H   H53       1.0  0.75970  0.56838  0.55739  1.0000
  H   H54       1.0  0.24029  0.43165  0.44258  1.0000
  C   C1        1.0  0.89857  0.99695  0.39969  1.0000
  C   C2        1.0  0.10141  0.00306  0.60032  1.0000
  C   C3        1.0  0.96700  0.07818  0.29788  1.0000
  C   C4        1.0  0.03297  0.92182  0.70213  1.0000
  C   C5        1.0  0.06400  0.04106  0.24269  1.0000
  C   C6        1.0  0.93597  0.95895  0.75730  1.0000
  C   C7        1.0  0.09179  0.92158  0.28736  1.0000
  C   C8        1.0  0.90818  0.07843  0.71265  1.0000
  C   C9        1.0  0.02525  0.84046  0.39070  1.0000
  C   C10       1.0  0.97473  0.15956  0.60931  1.0000
  C   C11       1.0  0.93021  0.87780  0.44710  1.0000
  C   C12       1.0  0.06978  0.12221  0.55292  1.0000
  C   C13       1.0  0.79328  0.04234  0.45468  1.0000
  C   C14       1.0  0.20671  0.95768  0.54533  1.0000
  C   C15       1.0  0.18689  0.88010  0.22219  1.0000
  C   C16       1.0  0.81309  0.11990  0.77781  1.0000
  C   C17       1.0  0.66434  0.89781  0.63476  1.0000
  C   C18       1.0  0.33566  0.10220  0.36525  1.0000
  C   C19       1.0  0.53919  0.82617  0.56858  1.0000
  C   C20       1.0  0.46080  0.17385  0.43143  1.0000
  C   C21       1.0  0.47215  0.78420  0.35573  1.0000
  C   C22       1.0  0.52782  0.21584  0.64427  1.0000
  C   C23       1.0  0.31463  0.69901  0.33050  1.0000
  C   C24       1.0  0.68537  0.30100  0.66949  1.0000
  C   C25       1.0  0.10690  0.04052  0.91514  1.0000
  C   C26       1.0  0.89309  0.95947  0.08486  1.0000
  C   C27       1.0  0.06825  0.92129  0.97308  1.0000
  C   C28       1.0  0.93173  0.07870  0.02691  1.0000
  C   C29       1.0  0.96196  0.88119  0.05696  1.0000
  C   C30       1.0  0.03803  0.11880  0.94303  1.0000
  C   C31       1.0  0.21941  0.08519  0.82185  1.0000
  C   C32       1.0  0.78058  0.91480  0.17815  1.0000
  C   C33       1.0  0.47334  0.89592  0.94376  1.0000
  C   C34       1.0  0.52666  0.10407  0.05625  1.0000
  C   C35       1.0  0.36901  0.93429  0.80675  1.0000
  C   C36       1.0  0.63100  0.06570  0.19326  1.0000
  C   C37       1.0  0.87510  0.62709  0.00512  1.0000
  C   C38       1.0  0.12492  0.37289  0.99487  1.0000
  C   C39       1.0  0.00036  0.64437  0.94539  1.0000
  C   C40       1.0  0.99966  0.35560  0.05460  1.0000
  C   C41       1.0  0.11320  0.62083  0.99976  1.0000
  C   C42       1.0  0.88683  0.37913  0.00025  1.0000
  C   C43       1.0  0.10055  0.57641  0.11501  1.0000
  C   C44       1.0  0.89947  0.42357  0.88499  1.0000
  C   C45       1.0  0.97572  0.55648  0.17484  1.0000
  C   C46       1.0  0.02430  0.44351  0.82516  1.0000
  C   C47       1.0  0.86307  0.58257  0.12033  1.0000
  C   C48       1.0  0.13695  0.41741  0.87966  1.0000
  C   C49       1.0  0.75364  0.65419  0.94731  1.0000
  C   C50       1.0  0.24639  0.34577  0.05268  1.0000
  C   C51       1.0  0.24795  0.64272  0.93619  1.0000
  C   C52       1.0  0.75207  0.35727  0.06381  1.0000
  S   S1        1.0  0.96073  0.49424  0.32256  1.0000
  S   S2        1.0  0.03930  0.50575  0.67744  1.0000
  N   N1        1.0  0.68989  0.95398  0.52360  1.0000
  N   N2        1.0  0.31009  0.04603  0.47642  1.0000
  N   N3        1.0  0.61112  0.90933  0.47926  1.0000
  N   N4        1.0  0.38886  0.09069  0.52076  1.0000
  N   N5        1.0  0.56894  0.81625  0.66591  1.0000
  N   N6        1.0  0.43105  0.18375  0.33411  1.0000
  N   N7        1.0  0.29600  0.81537  0.28252  1.0000
  N   N8        1.0  0.70398  0.18464  0.71747  1.0000
  N   N9        1.0  0.39469  0.87138  0.29820  1.0000
  N   N10       1.0  0.60527  0.12865  0.70179  1.0000
  N   N11       1.0  0.42672  0.67644  0.37751  1.0000
  N   N12       1.0  0.57328  0.32360  0.62249  1.0000
  N   N13       1.0  0.32758  0.00398  0.84995  1.0000
  N   N14       1.0  0.67242  0.99601  0.15006  1.0000
  N   N15       1.0  0.39290  0.98061  0.93818  1.0000
  N   N16       1.0  0.60709  0.01938  0.06184  1.0000
  N   N17       1.0  0.46163  0.86447  0.86453  1.0000
  N   N18       1.0  0.53838  0.13553  0.13548  1.0000
  O   O1        1.0  0.76298  0.68602  0.84483  1.0000
  O   O2        1.0  0.23703  0.31390  0.15516  1.0000
  O   O3        1.0  0.64175  0.64505  0.00543  1.0000
  O   O4        1.0  0.35829  0.35495  0.99455  1.0000
  O   O5        1.0  0.26286  0.69932  0.83123  1.0000
  O   O6        1.0  0.73716  0.30067  0.16877  1.0000
  O   O7        1.0  0.34577  0.60325  0.99427  1.0000
  O   O8        1.0  0.65425  0.39674  0.00573  1.0000
  O   O9        1.0  0.95622  0.36686  0.36933  1.0000
  O   O10       1.0  0.04383  0.63314  0.63067  1.0000
  O   O11       1.0  0.07411  0.54066  0.34706  1.0000
  O   O12       1.0  0.92591  0.45934  0.65293  1.0000
  O   O13       1.0  0.83233  0.54052  0.34697  1.0000
  O   O14       1.0  0.16769  0.45945  0.65303  1.0000
  O   O15       1.0  0.51574  0.51664  0.83184  1.0000
  O   O16       1.0  0.48429  0.48336  0.16815  1.0000
  O   O17       1.0  0.58693  0.44630  0.36401  1.0000
  O   O18       1.0  0.41308  0.55373  0.63598  1.0000
  O   O19       1.0  0.70965  0.59376  0.49395  1.0000
  O   O20       1.0  0.29036  0.40627  0.50602  1.0000
