data_image0
_chemical_formula_structural       K2Cu4H38C42N12O8
_chemical_formula_sum              "K2 Cu4 H38 C42 N12 O8"
_cell_length_a       9.85806
_cell_length_b       10.7704
_cell_length_c       11.94
_cell_angle_alpha    84.6986
_cell_angle_beta     65.4967
_cell_angle_gamma    77.1279

_space_group_name_H-M_alt    "P 1"
_space_group_IT_number       1

loop_
  _space_group_symop_operation_xyz
  'x, y, z'

loop_
  _atom_site_type_symbol
  _atom_site_label
  _atom_site_symmetry_multiplicity
  _atom_site_fract_x
  _atom_site_fract_y
  _atom_site_fract_z
  _atom_site_occupancy
  K   K1        1.0  0.00000  0.50000  0.50001  1.0000
  K   K2        1.0  0.50000  1.00000  0.50000  1.0000
  Cu  Cu1       1.0  0.01174  0.80324  0.52631  1.0000
  Cu  Cu2       1.0  0.46200  0.69667  0.52619  1.0000
  Cu  Cu3       1.0  0.98826  0.19676  0.47369  1.0000
  Cu  Cu4       1.0  0.53800  0.30332  0.47381  1.0000
  H   H1        1.0  0.74001  0.76466  0.79315  1.0000
  H   H2        1.0  0.46605  0.73479  0.79326  1.0000
  H   H3        1.0  0.25998  0.23534  0.20685  1.0000
  H   H4        1.0  0.53395  0.26521  0.20673  1.0000
  H   H5        1.0  0.78661  0.74988  0.42749  1.0000
  H   H6        1.0  0.21339  0.25012  0.57251  1.0000
  H   H7        1.0  0.76152  0.84230  0.16358  1.0000
  H   H8        1.0  0.07470  0.65793  0.16433  1.0000
  H   H9        1.0  0.23847  0.15770  0.83642  1.0000
  H   H10       1.0  0.92530  0.34207  0.83567  1.0000
  H   H11       1.0  0.82538  0.76249  0.95699  1.0000
  H   H12       1.0  0.21617  0.73896  0.95799  1.0000
  H   H13       1.0  0.17461  0.23751  0.04301  1.0000
  H   H14       1.0  0.78383  0.26105  0.04201  1.0000
  H   H15       1.0  0.69944  0.59294  0.93306  1.0000
  H   H16       1.0  0.36739  0.90774  0.93327  1.0000
  H   H17       1.0  0.30056  0.40706  0.06694  1.0000
  H   H18       1.0  0.63261  0.09226  0.06673  1.0000
  H   H19       1.0  0.50286  0.51623  0.11818  1.0000
  H   H20       1.0  0.37914  0.98401  0.11822  1.0000
  H   H21       1.0  0.49714  0.48377  0.88182  1.0000
  H   H22       1.0  0.62086  0.01600  0.88178  1.0000
  H   H23       1.0  0.34494  0.52125  0.32322  1.0000
  H   H24       1.0  0.33230  0.97876  0.32300  1.0000
  H   H25       1.0  0.65506  0.47875  0.67679  1.0000
  H   H26       1.0  0.66770  0.02124  0.67700  1.0000
  H   H27       1.0  0.13975  0.49555  0.83726  1.0000
  H   H28       1.0  0.02235  0.00413  0.83712  1.0000
  H   H29       1.0  0.86025  0.50444  0.16274  1.0000
  H   H30       1.0  0.97765  0.99587  0.16288  1.0000
  H   H31       1.0  0.03931  0.48784  0.74384  1.0000
  H   H32       1.0  0.21642  0.01214  0.74347  1.0000
  H   H33       1.0  0.96070  0.51216  0.25616  1.0000
  H   H34       1.0  0.78358  0.98786  0.25653  1.0000
  H   H35       1.0  0.01396  0.63355  0.81755  1.0000
  H   H36       1.0  0.16839  0.86592  0.81662  1.0000
  H   H37       1.0  0.98605  0.36645  0.18245  1.0000
  H   H38       1.0  0.83161  0.13409  0.18338  1.0000
  C   C1        1.0  0.70932  0.75533  0.71756  1.0000
  C   C2        1.0  0.57254  0.74431  0.71760  1.0000
  C   C3        1.0  0.29067  0.24467  0.28243  1.0000
  C   C4        1.0  0.42745  0.25569  0.28240  1.0000
  C   C5        1.0  0.73650  0.74993  0.52712  1.0000
  C   C6        1.0  0.26350  0.25007  0.47288  1.0000
  C   C7        1.0  0.59596  0.72651  0.26104  1.0000
  C   C8        1.0  0.14395  0.77281  0.26141  1.0000
  C   C9        1.0  0.40404  0.27349  0.73896  1.0000
  C   C10       1.0  0.85605  0.22720  0.73858  1.0000
  C   C11       1.0  0.70476  0.77099  0.15302  1.0000
  C   C12       1.0  0.14252  0.72894  0.15360  1.0000
  C   C13       1.0  0.29524  0.22900  0.84698  1.0000
  C   C14       1.0  0.85748  0.27106  0.84640  1.0000
  C   C15       1.0  0.74068  0.72489  0.03725  1.0000
  C   C16       1.0  0.22156  0.77585  0.03795  1.0000
  C   C17       1.0  0.25932  0.27510  0.96275  1.0000
  C   C18       1.0  0.77844  0.22415  0.96205  1.0000
  C   C19       1.0  0.66978  0.63108  0.02351  1.0000
  C   C20       1.0  0.30654  0.86953  0.02379  1.0000
  C   C21       1.0  0.33023  0.36891  0.97649  1.0000
  C   C22       1.0  0.69346  0.13046  0.97621  1.0000
  C   C23       1.0  0.56078  0.58772  0.12714  1.0000
  C   C24       1.0  0.31255  0.91226  0.12722  1.0000
  C   C25       1.0  0.43922  0.41228  0.87287  1.0000
  C   C26       1.0  0.68745  0.08775  0.87278  1.0000
  C   C27       1.0  0.52086  0.63296  0.24645  1.0000
  C   C28       1.0  0.23370  0.86642  0.24651  1.0000
  C   C29       1.0  0.47914  0.36703  0.75355  1.0000
  C   C30       1.0  0.76630  0.13359  0.75349  1.0000
  C   C31       1.0  0.40352  0.58362  0.34655  1.0000
  C   C32       1.0  0.25046  0.91620  0.34648  1.0000
  C   C33       1.0  0.59648  0.41638  0.65345  1.0000
  C   C34       1.0  0.74954  0.08380  0.65352  1.0000
  C   C35       1.0  0.22408  0.58792  0.66276  1.0000
  C   C36       1.0  0.11267  0.91226  0.66254  1.0000
  C   C37       1.0  0.77592  0.41208  0.33724  1.0000
  C   C38       1.0  0.88733  0.08774  0.33746  1.0000
  C   C39       1.0  0.09648  0.54777  0.77148  1.0000
  C   C40       1.0  0.13174  0.95191  0.77119  1.0000
  C   C41       1.0  0.90353  0.45223  0.22852  1.0000
  C   C42       1.0  0.86826  0.04809  0.22882  1.0000
  N   N1        1.0  0.81276  0.75783  0.59634  1.0000
  N   N2        1.0  0.59070  0.74199  0.59638  1.0000
  N   N3        1.0  0.18723  0.24217  0.40366  1.0000
  N   N4        1.0  0.40931  0.25801  0.40361  1.0000
  N   N5        1.0  0.36209  0.60716  0.46245  1.0000
  N   N6        1.0  0.17528  0.89314  0.46239  1.0000
  N   N7        1.0  0.63791  0.39284  0.53755  1.0000
  N   N8        1.0  0.82472  0.10686  0.53761  1.0000
  N   N9        1.0  0.24062  0.56059  0.55052  1.0000
  N   N10       1.0  0.20840  0.93996  0.55029  1.0000
  N   N11       1.0  0.75939  0.43941  0.44948  1.0000
  N   N12       1.0  0.79160  0.06005  0.44971  1.0000
  O   O1        1.0  0.56822  0.77441  0.36827  1.0000
  O   O2        1.0  0.06426  0.72482  0.36867  1.0000
  O   O3        1.0  0.43177  0.22559  0.63173  1.0000
  O   O4        1.0  0.93574  0.27518  0.63133  1.0000
  O   O5        1.0  0.30962  0.64942  0.68435  1.0000
  O   O6        1.0  0.00557  0.85059  0.68436  1.0000
  O   O7        1.0  0.69038  0.35058  0.31565  1.0000
  O   O8        1.0  0.99443  0.14941  0.31564  1.0000
