data_image0
_chemical_formula_structural       Mg4H32C48O20
_chemical_formula_sum              "Mg4 H32 C48 O20"
_cell_length_a       6.95707
_cell_length_b       12.8802
_cell_length_c       17.3162
_cell_angle_alpha    90
_cell_angle_beta     90.9619
_cell_angle_gamma    90

_space_group_name_H-M_alt    "P 1"
_space_group_IT_number       1

loop_
  _space_group_symop_operation_xyz
  'x, y, z'

loop_
  _atom_site_type_symbol
  _atom_site_label
  _atom_site_symmetry_multiplicity
  _atom_site_fract_x
  _atom_site_fract_y
  _atom_site_fract_z
  _atom_site_occupancy
  Mg  Mg1       1.0  0.50000  0.50000  0.00000  1.0000
  Mg  Mg2       1.0  0.50000  0.00000  0.50000  1.0000
  Mg  Mg3       1.0  0.00000  0.50000  0.00000  1.0000
  Mg  Mg4       1.0  1.00000  0.00000  0.50000  1.0000
  H   H1        1.0  0.73089  0.35998  0.94808  1.0000
  H   H2        1.0  0.26910  0.85998  0.55192  1.0000
  H   H3        1.0  0.26911  0.64002  0.05193  1.0000
  H   H4        1.0  0.73090  0.14002  0.44808  1.0000
  H   H5        1.0  0.80430  0.35297  0.03551  1.0000
  H   H6        1.0  0.19571  0.85297  0.46449  1.0000
  H   H7        1.0  0.19570  0.64703  0.96449  1.0000
  H   H8        1.0  0.80429  0.14703  0.53551  1.0000
  H   H9        1.0  0.97690  0.35083  0.21144  1.0000
  H   H10       1.0  0.02311  0.85083  0.28856  1.0000
  H   H11       1.0  0.02311  0.64917  0.78856  1.0000
  H   H12       1.0  0.97690  0.14917  0.71144  1.0000
  H   H13       1.0  0.98012  0.24164  0.33053  1.0000
  H   H14       1.0  0.01989  0.74164  0.16947  1.0000
  H   H15       1.0  0.01989  0.75836  0.66946  1.0000
  H   H16       1.0  0.98012  0.25836  0.83054  1.0000
  H   H17       1.0  0.53727  0.24890  0.07451  1.0000
  H   H18       1.0  0.46273  0.74890  0.42549  1.0000
  H   H19       1.0  0.46273  0.75109  0.92549  1.0000
  H   H20       1.0  0.53727  0.25110  0.57451  1.0000
  H   H21       1.0  0.79597  0.11909  0.09558  1.0000
  H   H22       1.0  0.20403  0.61910  0.40442  1.0000
  H   H23       1.0  0.20403  0.88090  0.90442  1.0000
  H   H24       1.0  0.79598  0.38090  0.59558  1.0000
  H   H25       1.0  0.79839  0.00922  0.21452  1.0000
  H   H26       1.0  0.20162  0.50921  0.28549  1.0000
  H   H27       1.0  0.20161  0.99078  0.78549  1.0000
  H   H28       1.0  0.79839  0.49079  0.71452  1.0000
  H   H29       1.0  0.54638  0.02931  0.31096  1.0000
  H   H30       1.0  0.45362  0.52931  0.18904  1.0000
  H   H31       1.0  0.45362  0.97069  0.68904  1.0000
  H   H32       1.0  0.54638  0.47069  0.81096  1.0000
  C   C1        1.0  0.23789  0.36469  0.10395  1.0000
  C   C2        1.0  0.76210  0.86469  0.39605  1.0000
  C   C3        1.0  0.76211  0.63531  0.89605  1.0000
  C   C4        1.0  0.23789  0.13532  0.60395  1.0000
  C   C5        1.0  0.24423  0.10959  0.38041  1.0000
  C   C6        1.0  0.75578  0.60959  0.11959  1.0000
  C   C7        1.0  0.75578  0.89041  0.61959  1.0000
  C   C8        1.0  0.24423  0.39041  0.88041  1.0000
  C   C9        1.0  0.24299  0.29056  0.17043  1.0000
  C   C10       1.0  0.75701  0.79056  0.32957  1.0000
  C   C11       1.0  0.75701  0.70944  0.82957  1.0000
  C   C12       1.0  0.24298  0.20944  0.67043  1.0000
  C   C13       1.0  0.09428  0.29648  0.22246  1.0000
  C   C14       1.0  0.90571  0.79648  0.27754  1.0000
  C   C15       1.0  0.90572  0.70352  0.77754  1.0000
  C   C16       1.0  0.09428  0.20353  0.72246  1.0000
  C   C17       1.0  0.09664  0.23534  0.28955  1.0000
  C   C18       1.0  0.90337  0.73534  0.21045  1.0000
  C   C19       1.0  0.90337  0.76465  0.71044  1.0000
  C   C20       1.0  0.09663  0.26466  0.78956  1.0000
  C   C21       1.0  0.24693  0.16767  0.30542  1.0000
  C   C22       1.0  0.75307  0.66767  0.19458  1.0000
  C   C23       1.0  0.75307  0.83233  0.69458  1.0000
  C   C24       1.0  0.24693  0.33233  0.80543  1.0000
  C   C25       1.0  0.39851  0.15509  0.25113  1.0000
  C   C26       1.0  0.60148  0.65509  0.24887  1.0000
  C   C27       1.0  0.60148  0.84491  0.74887  1.0000
  C   C28       1.0  0.39851  0.34492  0.75113  1.0000
  C   C29       1.0  0.39647  0.21817  0.18246  1.0000
  C   C30       1.0  0.60352  0.71817  0.31754  1.0000
  C   C31       1.0  0.60352  0.78183  0.81754  1.0000
  C   C32       1.0  0.39647  0.28184  0.68246  1.0000
  C   C33       1.0  0.54239  0.20261  0.12706  1.0000
  C   C34       1.0  0.45760  0.70262  0.37294  1.0000
  C   C35       1.0  0.45760  0.79738  0.87294  1.0000
  C   C36       1.0  0.54239  0.29739  0.62706  1.0000
  C   C37       1.0  0.68515  0.12981  0.13870  1.0000
  C   C38       1.0  0.31486  0.62982  0.36131  1.0000
  C   C39       1.0  0.31485  0.87018  0.86130  1.0000
  C   C40       1.0  0.68515  0.37019  0.63870  1.0000
  C   C41       1.0  0.68684  0.06773  0.20592  1.0000
  C   C42       1.0  0.31317  0.56773  0.29408  1.0000
  C   C43       1.0  0.31316  0.93227  0.79408  1.0000
  C   C44       1.0  0.68684  0.43227  0.70592  1.0000
  C   C45       1.0  0.54623  0.07937  0.26041  1.0000
  C   C46       1.0  0.45378  0.57936  0.23959  1.0000
  C   C47       1.0  0.45377  0.92063  0.73959  1.0000
  C   C48       1.0  0.54622  0.42064  0.76041  1.0000
  O   O1        1.0  0.07543  0.38044  0.07065  1.0000
  O   O2        1.0  0.92457  0.88044  0.42934  1.0000
  O   O3        1.0  0.92457  0.61956  0.92935  1.0000
  O   O4        1.0  0.07542  0.11956  0.57066  1.0000
  O   O5        1.0  0.39173  0.41128  0.08624  1.0000
  O   O6        1.0  0.60826  0.91129  0.41375  1.0000
  O   O7        1.0  0.60827  0.58872  0.91376  1.0000
  O   O8        1.0  0.39173  0.08872  0.58624  1.0000
  O   O9        1.0  0.08243  0.07721  0.40357  1.0000
  O   O10       1.0  0.91756  0.57720  0.09643  1.0000
  O   O11       1.0  0.91758  0.92280  0.59643  1.0000
  O   O12       1.0  0.08244  0.42280  0.90357  1.0000
  O   O13       1.0  0.40273  0.09728  0.41713  1.0000
  O   O14       1.0  0.59726  0.59728  0.08287  1.0000
  O   O15       1.0  0.59727  0.90272  0.58287  1.0000
  O   O16       1.0  0.40274  0.40272  0.91713  1.0000
  O   O17       1.0  0.74814  0.39935  0.99594  1.0000
  O   O18       1.0  0.25186  0.89935  0.50406  1.0000
  O   O19       1.0  0.25186  0.60065  0.00406  1.0000
  O   O20       1.0  0.74814  0.10065  0.49594  1.0000
