data_image0
_chemical_formula_structural       Zn2H18C32N12O8
_chemical_formula_sum              "Zn2 H18 C32 N12 O8"
_cell_length_a       7.16159
_cell_length_b       7.61791
_cell_length_c       15.3264
_cell_angle_alpha    83.3702
_cell_angle_beta     86.9683
_cell_angle_gamma    67.09

_space_group_name_H-M_alt    "P 1"
_space_group_IT_number       1

loop_
  _space_group_symop_operation_xyz
  'x, y, z'

loop_
  _atom_site_type_symbol
  _atom_site_label
  _atom_site_symmetry_multiplicity
  _atom_site_fract_x
  _atom_site_fract_y
  _atom_site_fract_z
  _atom_site_occupancy
  Zn  Zn1       1.0  0.27597  0.86422  0.31008  1.0000
  Zn  Zn2       1.0  0.72403  0.13578  0.68992  1.0000
  H   H1        1.0  0.45572  0.67433  0.72264  1.0000
  H   H2        1.0  0.54428  0.32567  0.27736  1.0000
  H   H3        1.0  0.87390  0.94433  0.44164  1.0000
  H   H4        1.0  0.12610  0.05568  0.55836  1.0000
  H   H5        1.0  0.53297  0.92190  0.43030  1.0000
  H   H6        1.0  0.46703  0.07811  0.56970  1.0000
  H   H7        1.0  0.65415  0.80738  0.17000  1.0000
  H   H8        1.0  0.34585  0.19261  0.83001  1.0000
  H   H9        1.0  0.15415  0.63289  0.77130  1.0000
  H   H10       1.0  0.84585  0.36710  0.22870  1.0000
  H   H11       1.0  0.03795  0.67291  0.92804  1.0000
  H   H12       1.0  0.96205  0.32708  0.07196  1.0000
  H   H13       1.0  0.57444  0.77654  0.97516  1.0000
  H   H14       1.0  0.42555  0.22347  0.02484  1.0000
  H   H15       1.0  0.67294  0.72847  0.81497  1.0000
  H   H16       1.0  0.32706  0.27153  0.18502  1.0000
  H   H17       1.0  0.79651  0.31398  0.47051  1.0000
  H   H18       1.0  0.20349  0.68602  0.52949  1.0000
  C   C1        1.0  0.82863  0.90742  0.38185  1.0000
  C   C2        1.0  0.17137  0.09259  0.61814  1.0000
  C   C3        1.0  0.63944  0.89799  0.37546  1.0000
  C   C4        1.0  0.36056  0.10202  0.62454  1.0000
  C   C5        1.0  0.70802  0.83229  0.23089  1.0000
  C   C6        1.0  0.29198  0.16771  0.76911  1.0000
  C   C7        1.0  0.90132  0.83424  0.23843  1.0000
  C   C8        1.0  0.09868  0.16576  0.76157  1.0000
  C   C9        1.0  0.05407  0.80476  0.16896  1.0000
  C   C10       1.0  0.94593  0.19525  0.83104  1.0000
  C   C11       1.0  0.22902  0.76338  0.05333  1.0000
  C   C12       1.0  0.77098  0.23662  0.94667  1.0000
  C   C13       1.0  0.24318  0.66045  0.81966  1.0000
  C   C14       1.0  0.75682  0.33955  0.18034  1.0000
  C   C15       1.0  0.17949  0.68513  0.90566  1.0000
  C   C16       1.0  0.82051  0.31487  0.09434  1.0000
  C   C17       1.0  0.29662  0.72970  0.96364  1.0000
  C   C18       1.0  0.70338  0.27030  0.03636  1.0000
  C   C19       1.0  0.47981  0.74276  0.93204  1.0000
  C   C20       1.0  0.52019  0.25724  0.06796  1.0000
  C   C21       1.0  0.53625  0.71699  0.84541  1.0000
  C   C22       1.0  0.46374  0.28301  0.15459  1.0000
  C   C23       1.0  0.17848  0.47864  0.45216  1.0000
  C   C24       1.0  0.82151  0.52137  0.54784  1.0000
  C   C25       1.0  0.06471  0.37205  0.43496  1.0000
  C   C26       1.0  0.93528  0.62795  0.56504  1.0000
  C   C27       1.0  0.88687  0.39517  0.48292  1.0000
  C   C28       1.0  0.11312  0.60483  0.51708  1.0000
  C   C29       1.0  0.36666  0.46184  0.40017  1.0000
  C   C30       1.0  0.63334  0.53816  0.59983  1.0000
  C   C31       1.0  0.13027  0.23049  0.36744  1.0000
  C   C32       1.0  0.86973  0.76951  0.63256  1.0000
  N   N1        1.0  0.95776  0.87380  0.31429  1.0000
  N   N2        1.0  0.04225  0.12621  0.68571  1.0000
  N   N3        1.0  0.57953  0.86427  0.29994  1.0000
  N   N4        1.0  0.42047  0.13573  0.70006  1.0000
  N   N5        1.0  0.22972  0.82474  0.18568  1.0000
  N   N6        1.0  0.77028  0.17526  0.81432  1.0000
  N   N7        1.0  0.34263  0.79844  0.11194  1.0000
  N   N8        1.0  0.65737  0.20156  0.88806  1.0000
  N   N9        1.0  0.04742  0.76579  0.08643  1.0000
  N   N10       1.0  0.95257  0.23421  0.91357  1.0000
  N   N11       1.0  0.41692  0.67849  0.79142  1.0000
  N   N12       1.0  0.58308  0.32150  0.20858  1.0000
  O   O1        1.0  0.40824  0.61090  0.38275  1.0000
  O   O2        1.0  0.59176  0.38909  0.61725  1.0000
  O   O3        1.0  0.47693  0.30012  0.37539  1.0000
  O   O4        1.0  0.52307  0.69988  0.62461  1.0000
  O   O5        1.0  0.11822  0.28673  0.28703  1.0000
  O   O6        1.0  0.88178  0.71327  0.71297  1.0000
  O   O7        1.0  0.18836  0.05362  0.40020  1.0000
  O   O8        1.0  0.81164  0.94638  0.59980  1.0000
