data_image0
_chemical_formula_structural       Zn2H24C36N12O8
_chemical_formula_sum              "Zn2 H24 C36 N12 O8"
_cell_length_a       7.57812
_cell_length_b       9.07367
_cell_length_c       15.4845
_cell_angle_alpha    89.5243
_cell_angle_beta     83.2731
_cell_angle_gamma    84.1173

_space_group_name_H-M_alt    "P 1"
_space_group_IT_number       1

loop_
  _space_group_symop_operation_xyz
  'x, y, z'

loop_
  _atom_site_type_symbol
  _atom_site_label
  _atom_site_symmetry_multiplicity
  _atom_site_fract_x
  _atom_site_fract_y
  _atom_site_fract_z
  _atom_site_occupancy
  Zn  Zn1       1.0  0.08863  0.36829  0.24274  1.0000
  Zn  Zn2       1.0  0.91138  0.63171  0.75726  1.0000
  H   H1        1.0  0.10880  0.74061  0.95461  1.0000
  H   H2        1.0  0.89118  0.25938  0.04539  1.0000
  H   H3        1.0  0.84633  0.05824  0.14804  1.0000
  H   H4        1.0  0.15366  0.94175  0.85196  1.0000
  H   H5        1.0  0.17202  0.60523  0.08425  1.0000
  H   H6        1.0  0.82798  0.39477  0.91576  1.0000
  H   H7        1.0  0.70172  0.85581  0.19838  1.0000
  H   H8        1.0  0.29827  0.14419  0.80162  1.0000
  H   H9        1.0  0.43130  0.96273  0.34866  1.0000
  H   H10       1.0  0.56872  0.03727  0.65135  1.0000
  H   H11       1.0  0.71209  0.17974  0.53062  1.0000
  H   H12       1.0  0.28793  0.82026  0.46938  1.0000
  H   H13       1.0  0.92635  0.19503  0.40892  1.0000
  H   H14       1.0  0.07366  0.80498  0.59108  1.0000
  H   H15       1.0  0.47769  0.17499  0.26861  1.0000
  H   H16       1.0  0.52232  0.82501  0.73139  1.0000
  H   H17       1.0  0.41635  0.27071  0.98503  1.0000
  H   H18       1.0  0.58363  0.72926  0.01497  1.0000
  H   H19       1.0  0.60351  0.12484  0.86255  1.0000
  H   H20       1.0  0.39645  0.87513  0.13745  1.0000
  H   H21       1.0  0.23797  0.38210  0.57059  1.0000
  H   H22       1.0  0.76205  0.61792  0.42939  1.0000
  H   H23       1.0  0.45894  0.47073  0.66084  1.0000
  H   H24       1.0  0.54108  0.52929  0.33914  1.0000
  C   C1        1.0  0.97481  0.88625  0.05858  1.0000
  C   C2        1.0  0.02518  0.11374  0.94143  1.0000
  C   C3        1.0  0.06347  0.85377  0.97571  1.0000
  C   C4        1.0  0.93651  0.14622  0.02429  1.0000
  C   C5        1.0  0.91146  0.03157  0.08292  1.0000
  C   C6        1.0  0.08853  0.96842  0.91708  1.0000
  C   C7        1.0  0.05031  0.63997  0.12618  1.0000
  C   C8        1.0  0.94968  0.36003  0.87383  1.0000
  C   C9        1.0  0.81021  0.76821  0.18673  1.0000
  C   C10       1.0  0.18978  0.23179  0.81328  1.0000
  C   C11       1.0  0.58332  0.07703  0.43247  1.0000
  C   C12       1.0  0.41669  0.92297  0.56753  1.0000
  C   C13       1.0  0.46137  0.97899  0.41486  1.0000
  C   C14       1.0  0.53865  0.02102  0.58514  1.0000
  C   C15       1.0  0.62179  0.09906  0.51718  1.0000
  C   C16       1.0  0.37823  0.90094  0.48282  1.0000
  C   C17       1.0  0.83508  0.20486  0.35951  1.0000
  C   C18       1.0  0.16493  0.79514  0.64049  1.0000
  C   C19       1.0  0.60837  0.19679  0.28518  1.0000
  C   C20       1.0  0.39164  0.80321  0.71482  1.0000
  C   C21       1.0  0.39652  0.08058  0.06813  1.0000
  C   C22       1.0  0.60344  0.91940  0.93187  1.0000
  C   C23       1.0  0.45378  0.15210  0.99083  1.0000
  C   C24       1.0  0.54618  0.84788  0.00917  1.0000
  C   C25       1.0  0.55649  0.07188  0.92325  1.0000
  C   C26       1.0  0.44347  0.92810  0.07675  1.0000
  C   C27       1.0  0.28661  0.16420  0.14210  1.0000
  C   C28       1.0  0.71338  0.83578  0.85789  1.0000
  C   C29       1.0  0.37556  0.45049  0.44963  1.0000
  C   C30       1.0  0.62446  0.54954  0.55036  1.0000
  C   C31       1.0  0.35308  0.43407  0.54028  1.0000
  C   C32       1.0  0.64694  0.56595  0.45970  1.0000
  C   C33       1.0  0.47676  0.48290  0.59039  1.0000
  C   C34       1.0  0.52326  0.51712  0.40959  1.0000
  C   C35       1.0  0.24414  0.39184  0.39668  1.0000
  C   C36       1.0  0.75588  0.60819  0.60330  1.0000
  N   N1        1.0  0.98015  0.56443  0.19253  1.0000
  N   N2        1.0  0.01985  0.43557  0.80749  1.0000
  N   N3        1.0  0.82792  0.64470  0.23124  1.0000
  N   N4        1.0  0.17207  0.35530  0.76877  1.0000
  N   N5        1.0  0.94678  0.77087  0.11975  1.0000
  N   N6        1.0  0.05321  0.22913  0.88026  1.0000
  N   N7        1.0  0.86940  0.27124  0.28418  1.0000
  N   N8        1.0  0.13061  0.72876  0.71582  1.0000
  N   N9        1.0  0.72707  0.26694  0.23646  1.0000
  N   N10       1.0  0.27294  0.73306  0.76354  1.0000
  N   N11       1.0  0.67096  0.15515  0.36278  1.0000
  N   N12       1.0  0.32905  0.84486  0.63722  1.0000
  O   O1        1.0  0.26344  0.10363  0.21554  1.0000
  O   O2        1.0  0.73655  0.89635  0.78447  1.0000
  O   O3        1.0  0.22058  0.29775  0.12668  1.0000
  O   O4        1.0  0.77941  0.70224  0.87332  1.0000
  O   O5        1.0  0.25224  0.43869  0.31652  1.0000
  O   O6        1.0  0.74777  0.56132  0.68347  1.0000
  O   O7        1.0  0.14034  0.30285  0.42964  1.0000
  O   O8        1.0  0.85968  0.69715  0.57036  1.0000
