data_image0
_chemical_formula_structural       Zn4H32C36N12O20
_chemical_formula_sum              "Zn4 H32 C36 N12 O20"
_cell_length_a       7.19754
_cell_length_b       10.6995
_cell_length_c       14.804
_cell_angle_alpha    90
_cell_angle_beta     90
_cell_angle_gamma    100.903

_space_group_name_H-M_alt    "P 1"
_space_group_IT_number       1

loop_
  _space_group_symop_operation_xyz
  'x, y, z'

loop_
  _atom_site_type_symbol
  _atom_site_label
  _atom_site_symmetry_multiplicity
  _atom_site_fract_x
  _atom_site_fract_y
  _atom_site_fract_z
  _atom_site_occupancy
  Zn  Zn1       1.0  0.51340  0.96549  0.69286  1.0000
  Zn  Zn2       1.0  0.48660  0.53451  0.19286  1.0000
  Zn  Zn3       1.0  0.48660  0.03451  0.30714  1.0000
  Zn  Zn4       1.0  0.51340  0.46549  0.80714  1.0000
  H   H1        1.0  0.63947  0.85186  0.56134  1.0000
  H   H2        1.0  0.36053  0.64814  0.06133  1.0000
  H   H3        1.0  0.36053  0.14814  0.43867  1.0000
  H   H4        1.0  0.63947  0.35186  0.93866  1.0000
  H   H5        1.0  0.55693  0.73870  0.63451  1.0000
  H   H6        1.0  0.44308  0.76130  0.13451  1.0000
  H   H7        1.0  0.44308  0.26130  0.36549  1.0000
  H   H8        1.0  0.55692  0.23869  0.86549  1.0000
  H   H9        1.0  0.89367  0.28419  0.43374  1.0000
  H   H10       1.0  0.10634  0.21581  0.93374  1.0000
  H   H11       1.0  0.10633  0.71581  0.56626  1.0000
  H   H12       1.0  0.89366  0.78419  0.06626  1.0000
  H   H13       1.0  0.00716  0.53082  0.66707  1.0000
  H   H14       1.0  0.99283  0.96918  0.16707  1.0000
  H   H15       1.0  0.99284  0.46918  0.33293  1.0000
  H   H16       1.0  0.00717  0.03083  0.83293  1.0000
  H   H17       1.0  0.62207  0.20072  0.55244  1.0000
  H   H18       1.0  0.37793  0.29928  0.05243  1.0000
  H   H19       1.0  0.37794  0.79928  0.44757  1.0000
  H   H20       1.0  0.62206  0.70072  0.94756  1.0000
  H   H21       1.0  0.10921  0.30657  0.71674  1.0000
  H   H22       1.0  0.89080  0.19342  0.21674  1.0000
  H   H23       1.0  0.89080  0.69342  0.28326  1.0000
  H   H24       1.0  0.10920  0.80658  0.78326  1.0000
  H   H25       1.0  0.92422  0.91523  0.58186  1.0000
  H   H26       1.0  0.07578  0.58478  0.08186  1.0000
  H   H27       1.0  0.07577  0.08478  0.41814  1.0000
  H   H28       1.0  0.92422  0.41523  0.91814  1.0000
  H   H29       1.0  0.43893  0.85502  0.98564  1.0000
  H   H30       1.0  0.56106  0.64497  0.48564  1.0000
  H   H31       1.0  0.56107  0.14497  0.01436  1.0000
  H   H32       1.0  0.43892  0.35502  0.51436  1.0000
  C   C1        1.0  0.94815  0.39678  0.55612  1.0000
  C   C2        1.0  0.05186  0.10322  0.05611  1.0000
  C   C3        1.0  0.05186  0.60322  0.44388  1.0000
  C   C4        1.0  0.94814  0.89678  0.94388  1.0000
  C   C5        1.0  0.93895  0.37881  0.46258  1.0000
  C   C6        1.0  0.06106  0.12119  0.96258  1.0000
  C   C7        1.0  0.06106  0.62118  0.53742  1.0000
  C   C8        1.0  0.93894  0.87882  0.03742  1.0000
  C   C9        1.0  0.00860  0.51689  0.59418  1.0000
  C   C10       1.0  0.99140  0.98311  0.09418  1.0000
  C   C11       1.0  0.99141  0.48310  0.40582  1.0000
  C   C12       1.0  0.00860  0.01690  0.90582  1.0000
  C   C13       1.0  0.72876  0.20112  0.60384  1.0000
  C   C14       1.0  0.27124  0.29888  0.10384  1.0000
  C   C15       1.0  0.27124  0.79888  0.39616  1.0000
  C   C16       1.0  0.72876  0.70112  0.89616  1.0000
  C   C17       1.0  0.97640  0.25443  0.69007  1.0000
  C   C18       1.0  0.02362  0.24556  0.19007  1.0000
  C   C19       1.0  0.02361  0.74556  0.30993  1.0000
  C   C20       1.0  0.97638  0.75444  0.80993  1.0000
  C   C21       1.0  0.02534  0.97875  0.53996  1.0000
  C   C22       1.0  0.97466  0.52126  0.03995  1.0000
  C   C23       1.0  0.97466  0.02126  0.46005  1.0000
  C   C24       1.0  0.02534  0.47875  0.96004  1.0000
  C   C25       1.0  0.22099  0.01138  0.57657  1.0000
  C   C26       1.0  0.77901  0.48863  0.07657  1.0000
  C   C27       1.0  0.77901  0.98863  0.42343  1.0000
  C   C28       1.0  0.22099  0.51138  0.92343  1.0000
  C   C29       1.0  0.47518  0.95565  0.96809  1.0000
  C   C30       1.0  0.52480  0.54434  0.46809  1.0000
  C   C31       1.0  0.52481  0.04434  0.03191  1.0000
  C   C32       1.0  0.47518  0.45565  0.53191  1.0000
  C   C33       1.0  0.47268  0.98623  0.87045  1.0000
  C   C34       1.0  0.52731  0.51377  0.37045  1.0000
  C   C35       1.0  0.52731  0.01377  0.12955  1.0000
  C   C36       1.0  0.47268  0.48623  0.62955  1.0000
  N   N1        1.0  0.71960  0.11668  0.66937  1.0000
  N   N2        1.0  0.28041  0.38332  0.16937  1.0000
  N   N3        1.0  0.28041  0.88332  0.33063  1.0000
  N   N4        1.0  0.71959  0.61668  0.83063  1.0000
  N   N5        1.0  0.87653  0.14924  0.72410  1.0000
  N   N6        1.0  0.12348  0.35076  0.22410  1.0000
  N   N7        1.0  0.12348  0.85076  0.27590  1.0000
  N   N8        1.0  0.87652  0.64924  0.77590  1.0000
  N   N9        1.0  0.88916  0.28995  0.61398  1.0000
  N   N10       1.0  0.11085  0.21005  0.11398  1.0000
  N   N11       1.0  0.11085  0.71005  0.38602  1.0000
  N   N12       1.0  0.88915  0.78995  0.88602  1.0000
  O   O1        1.0  0.25123  0.94521  0.64621  1.0000
  O   O2        1.0  0.74878  0.55479  0.14622  1.0000
  O   O3        1.0  0.74877  0.05479  0.35379  1.0000
  O   O4        1.0  0.25122  0.44521  0.85379  1.0000
  O   O5        1.0  0.34562  0.09546  0.54064  1.0000
  O   O6        1.0  0.65438  0.40455  0.04064  1.0000
  O   O7        1.0  0.65438  0.90455  0.45936  1.0000
  O   O8        1.0  0.34562  0.59545  0.95936  1.0000
  O   O9        1.0  0.48344  0.89233  0.81683  1.0000
  O   O10       1.0  0.51655  0.60766  0.31683  1.0000
  O   O11       1.0  0.51655  0.10766  0.18317  1.0000
  O   O12       1.0  0.48343  0.39233  0.68317  1.0000
  O   O13       1.0  0.46175  0.09551  0.84176  1.0000
  O   O14       1.0  0.53825  0.40448  0.34175  1.0000
  O   O15       1.0  0.53826  0.90448  0.15825  1.0000
  O   O16       1.0  0.46175  0.59551  0.65824  1.0000
  O   O17       1.0  0.62165  0.83018  0.62733  1.0000
  O   O18       1.0  0.37835  0.66982  0.12733  1.0000
  O   O19       1.0  0.37836  0.16981  0.37267  1.0000
  O   O20       1.0  0.62164  0.33018  0.87267  1.0000
