data_image0
_chemical_formula_structural       Zn2H36C56N8O24
_chemical_formula_sum              "Zn2 H36 C56 N8 O24"
_cell_length_a       9.74058
_cell_length_b       11.894
_cell_length_c       13.16
_cell_angle_alpha    113.873
_cell_angle_beta     93.4182
_cell_angle_gamma    108.242

_space_group_name_H-M_alt    "P 1"
_space_group_IT_number       1

loop_
  _space_group_symop_operation_xyz
  'x, y, z'

loop_
  _atom_site_type_symbol
  _atom_site_label
  _atom_site_symmetry_multiplicity
  _atom_site_fract_x
  _atom_site_fract_y
  _atom_site_fract_z
  _atom_site_occupancy
  Zn  Zn1       1.0  0.62807  0.98734  0.60233  1.0000
  Zn  Zn2       1.0  0.37193  0.01266  0.39767  1.0000
  H   H1        1.0  0.52922  0.82735  0.83483  1.0000
  H   H2        1.0  0.47078  0.17266  0.16517  1.0000
  H   H3        1.0  0.48119  0.65772  0.65661  1.0000
  H   H4        1.0  0.51881  0.34228  0.34339  1.0000
  H   H5        1.0  0.16880  0.85545  0.99115  1.0000
  H   H6        1.0  0.83120  0.14455  0.00884  1.0000
  H   H7        1.0  0.30729  0.99886  0.90764  1.0000
  H   H8        1.0  0.69271  0.00114  0.09236  1.0000
  H   H9        1.0  0.16452  0.04786  0.77505  1.0000
  H   H10       1.0  0.83548  0.95214  0.22495  1.0000
  H   H11       1.0  0.79451  0.55606  0.60506  1.0000
  H   H12       1.0  0.20550  0.44394  0.39495  1.0000
  H   H13       1.0  0.78162  0.66615  0.48082  1.0000
  H   H14       1.0  0.21838  0.33385  0.51918  1.0000
  H   H15       1.0  0.01802  0.80221  0.45294  1.0000
  H   H16       1.0  0.98199  0.19779  0.54706  1.0000
  H   H17       1.0  0.82720  0.93616  0.42832  1.0000
  H   H18       1.0  0.17280  0.06384  0.57168  1.0000
  H   H19       1.0  0.83253  0.75825  0.25153  1.0000
  H   H20       1.0  0.16747  0.24175  0.74847  1.0000
  H   H21       1.0  0.40284  0.51494  0.26480  1.0000
  H   H22       1.0  0.59716  0.48506  0.73520  1.0000
  H   H23       1.0  0.41952  0.70307  0.44569  1.0000
  H   H24       1.0  0.58048  0.29693  0.55431  1.0000
  H   H25       1.0  0.49644  0.42192  0.10804  1.0000
  H   H26       1.0  0.50356  0.57808  0.89196  1.0000
  H   H27       1.0  0.80860  0.57577  0.09332  1.0000
  H   H28       1.0  0.19140  0.42423  0.90668  1.0000
  H   H29       1.0  0.84697  0.27169  0.74025  1.0000
  H   H30       1.0  0.15303  0.72831  0.25975  1.0000
  H   H31       1.0  0.88567  0.46937  0.92231  1.0000
  H   H32       1.0  0.11433  0.53063  0.07769  1.0000
  H   H33       1.0  0.47570  0.24364  0.97487  1.0000
  H   H34       1.0  0.52430  0.75636  0.02513  1.0000
  H   H35       1.0  0.45697  0.05590  0.79151  1.0000
  H   H36       1.0  0.54303  0.94410  0.20849  1.0000
  C   C1        1.0  0.95358  0.93286  0.78552  1.0000
  C   C2        1.0  0.04642  0.06714  0.21448  1.0000
  C   C3        1.0  0.87377  0.85101  0.83165  1.0000
  C   C4        1.0  0.12623  0.14899  0.16835  1.0000
  C   C5        1.0  0.95664  0.82550  0.90531  1.0000
  C   C6        1.0  0.04336  0.17450  0.09469  1.0000
  C   C7        1.0  0.11104  0.87782  0.93294  1.0000
  C   C8        1.0  0.88896  0.12218  0.06706  1.0000
  C   C9        1.0  0.18726  0.95825  0.88631  1.0000
  C   C10       1.0  0.81274  0.04175  0.11369  1.0000
  C   C11       1.0  0.10854  0.98487  0.81301  1.0000
  C   C12       1.0  0.89145  0.01514  0.18699  1.0000
  C   C13       1.0  0.87663  0.96929  0.70714  1.0000
  C   C14       1.0  0.12337  0.03071  0.29286  1.0000
  C   C15       1.0  0.70639  0.79294  0.79870  1.0000
  C   C16       1.0  0.29361  0.20706  0.20130  1.0000
  C   C17       1.0  0.15747  0.76499  0.55763  1.0000
  C   C18       1.0  0.84253  0.23501  0.44237  1.0000
  C   C19       1.0  0.16633  0.70009  0.62525  1.0000
  C   C20       1.0  0.83368  0.29991  0.37475  1.0000
  C   C21       1.0  0.03203  0.62596  0.64002  1.0000
  C   C22       1.0  0.96797  0.37404  0.35998  1.0000
  C   C23       1.0  0.89463  0.61408  0.59002  1.0000
  C   C24       1.0  0.10537  0.38592  0.40998  1.0000
  C   C25       1.0  0.88840  0.67630  0.52133  1.0000
  C   C26       1.0  0.11160  0.32370  0.47868  1.0000
  C   C27       1.0  0.01923  0.75133  0.50555  1.0000
  C   C28       1.0  0.98077  0.24867  0.49445  1.0000
  C   C29       1.0  0.29324  0.85312  0.53995  1.0000
  C   C30       1.0  0.70676  0.14688  0.46005  1.0000
  C   C31       1.0  0.31426  0.71434  0.68246  1.0000
  C   C32       1.0  0.68574  0.28566  0.31754  1.0000
  C   C33       1.0  0.73394  0.84183  0.38911  1.0000
  C   C34       1.0  0.26606  0.15817  0.61088  1.0000
  C   C35       1.0  0.73601  0.74008  0.28901  1.0000
  C   C36       1.0  0.26398  0.25992  0.71098  1.0000
  C   C37       1.0  0.61496  0.61834  0.23946  1.0000
  C   C38       1.0  0.38504  0.38166  0.76054  1.0000
  C   C39       1.0  0.49879  0.60690  0.29780  1.0000
  C   C40       1.0  0.50121  0.39310  0.70220  1.0000
  C   C41       1.0  0.50669  0.71244  0.39842  1.0000
  C   C42       1.0  0.49331  0.28756  0.60158  1.0000
  C   C43       1.0  0.60155  0.50465  0.13450  1.0000
  C   C44       1.0  0.39845  0.49534  0.86551  1.0000
  C   C45       1.0  0.70383  0.49329  0.07003  1.0000
  C   C46       1.0  0.29616  0.50671  0.92997  1.0000
  C   C47       1.0  0.76807  0.26978  0.79531  1.0000
  C   C48       1.0  0.23193  0.73022  0.20469  1.0000
  C   C49       1.0  0.78886  0.37957  0.89726  1.0000
  C   C50       1.0  0.21114  0.62043  0.10275  1.0000
  C   C51       1.0  0.68344  0.37582  0.96549  1.0000
  C   C52       1.0  0.31656  0.62418  0.03451  1.0000
  C   C53       1.0  0.56147  0.25552  0.92639  1.0000
  C   C54       1.0  0.43853  0.74448  0.07361  1.0000
  C   C55       1.0  0.54956  0.15023  0.82417  1.0000
  C   C56       1.0  0.45044  0.84977  0.17583  1.0000
  N   N1        1.0  0.88315  0.74385  0.95934  1.0000
  N   N2        1.0  0.11685  0.25615  0.04066  1.0000
  N   N3        1.0  0.03134  0.55451  0.70848  1.0000
  N   N4        1.0  0.96866  0.44550  0.29152  1.0000
  N   N5        1.0  0.62073  0.82975  0.44368  1.0000
  N   N6        1.0  0.37927  0.17025  0.55632  1.0000
  N   N7        1.0  0.64966  0.15643  0.75793  1.0000
  N   N8        1.0  0.35034  0.84357  0.24207  1.0000
  O   O1        1.0  0.95160  0.03832  0.66480  1.0000
  O   O2        1.0  0.04840  0.96168  0.33520  1.0000
  O   O3        1.0  0.73451  0.92424  0.69135  1.0000
  O   O4        1.0  0.26548  0.07576  0.30865  1.0000
  O   O5        1.0  0.64028  0.68580  0.71275  1.0000
  O   O6        1.0  0.35972  0.31420  0.28724  1.0000
  O   O7        1.0  0.64147  0.86350  0.86873  1.0000
  O   O8        1.0  0.35853  0.13650  0.13127  1.0000
  O   O9        1.0  0.74567  0.69402  0.93516  1.0000
  O   O10       1.0  0.25433  0.30599  0.06485  1.0000
  O   O11       1.0  0.96135  0.72914  0.02734  1.0000
  O   O12       1.0  0.03865  0.27086  0.97266  1.0000
  O   O13       1.0  0.27456  0.87817  0.45677  1.0000
  O   O14       1.0  0.72544  0.12183  0.54323  1.0000
  O   O15       1.0  0.41449  0.89438  0.60959  1.0000
  O   O16       1.0  0.58551  0.10562  0.39041  1.0000
  O   O17       1.0  0.37804  0.64087  0.61407  1.0000
  O   O18       1.0  0.62196  0.35913  0.38593  1.0000
  O   O19       1.0  0.36650  0.79068  0.78500  1.0000
  O   O20       1.0  0.63350  0.20932  0.21500  1.0000
  O   O21       1.0  0.14478  0.53424  0.72921  1.0000
  O   O22       1.0  0.85523  0.46576  0.27079  1.0000
  O   O23       1.0  0.91615  0.51695  0.74139  1.0000
  O   O24       1.0  0.08385  0.48305  0.25861  1.0000
