data_image0
_chemical_formula_structural       Zn2H36C56N8O24
_chemical_formula_sum              "Zn2 H36 C56 N8 O24"
_cell_length_a       9.84323
_cell_length_b       12.308
_cell_length_c       12.81
_cell_angle_alpha    114.656
_cell_angle_beta     95.462
_cell_angle_gamma    107.376

_space_group_name_H-M_alt    "P 1"
_space_group_IT_number       1

loop_
  _space_group_symop_operation_xyz
  'x, y, z'

loop_
  _atom_site_type_symbol
  _atom_site_label
  _atom_site_symmetry_multiplicity
  _atom_site_fract_x
  _atom_site_fract_y
  _atom_site_fract_z
  _atom_site_occupancy
  Zn  Zn1       1.0  0.64589  0.47546  0.59806  1.0000
  Zn  Zn2       1.0  0.35411  0.52454  0.40194  1.0000
  H   H1        1.0  0.56300  0.16562  0.66841  1.0000
  H   H2        1.0  0.43700  0.83438  0.33159  1.0000
  H   H3        1.0  0.50863  0.31757  0.81856  1.0000
  H   H4        1.0  0.49137  0.68243  0.18144  1.0000
  H   H5        1.0  0.19928  0.35633  0.00084  1.0000
  H   H6        1.0  0.80072  0.64367  0.99916  1.0000
  H   H7        1.0  0.33166  0.49842  0.91983  1.0000
  H   H8        1.0  0.66834  0.50158  0.08017  1.0000
  H   H9        1.0  0.18375  0.54670  0.78503  1.0000
  H   H10       1.0  0.81625  0.45330  0.21497  1.0000
  H   H11       1.0  0.82591  0.05804  0.59440  1.0000
  H   H12       1.0  0.17409  0.94196  0.40560  1.0000
  H   H13       1.0  0.80254  0.16364  0.46855  1.0000
  H   H14       1.0  0.19746  0.83637  0.53146  1.0000
  H   H15       1.0  0.03191  0.30581  0.44967  1.0000
  H   H16       1.0  0.96809  0.69419  0.55033  1.0000
  H   H17       1.0  0.81525  0.40820  0.39479  1.0000
  H   H18       1.0  0.18475  0.59180  0.60521  1.0000
  H   H19       1.0  0.77166  0.22891  0.19667  1.0000
  H   H20       1.0  0.22834  0.77109  0.80333  1.0000
  H   H21       1.0  0.39866  0.00366  0.26897  1.0000
  H   H22       1.0  0.60134  0.99634  0.73103  1.0000
  H   H23       1.0  0.46187  0.19122  0.46735  1.0000
  H   H24       1.0  0.53813  0.80878  0.53265  1.0000
  H   H25       1.0  0.46465  0.90332  0.08577  1.0000
  H   H26       1.0  0.53535  0.09668  0.91423  1.0000
  H   H27       1.0  0.70991  0.07279  0.02763  1.0000
  H   H28       1.0  0.29009  0.92721  0.97237  1.0000
  H   H29       1.0  0.84383  0.76674  0.73634  1.0000
  H   H30       1.0  0.15617  0.23326  0.26366  1.0000
  H   H31       1.0  0.83152  0.96861  0.88786  1.0000
  H   H32       1.0  0.16848  0.03139  0.11214  1.0000
  H   H33       1.0  0.46016  0.73298  0.95226  1.0000
  H   H34       1.0  0.53984  0.26702  0.04774  1.0000
  H   H35       1.0  0.48988  0.54101  0.79873  1.0000
  H   H36       1.0  0.51012  0.45899  0.20127  1.0000
  C   C1        1.0  0.97709  0.43111  0.78950  1.0000
  C   C2        1.0  0.02291  0.56889  0.21050  1.0000
  C   C3        1.0  0.90087  0.34759  0.83112  1.0000
  C   C4        1.0  0.09912  0.65241  0.16888  1.0000
  C   C5        1.0  0.98661  0.32440  0.90783  1.0000
  C   C6        1.0  0.01339  0.67560  0.09217  1.0000
  C   C7        1.0  0.13993  0.37786  0.94068  1.0000
  C   C8        1.0  0.86007  0.62214  0.05932  1.0000
  C   C9        1.0  0.21239  0.45753  0.89589  1.0000
  C   C10       1.0  0.78760  0.54247  0.10411  1.0000
  C   C11       1.0  0.13101  0.48387  0.82123  1.0000
  C   C12       1.0  0.86899  0.51613  0.17877  1.0000
  C   C13       1.0  0.89572  0.46787  0.71200  1.0000
  C   C14       1.0  0.10427  0.53213  0.28800  1.0000
  C   C15       1.0  0.73413  0.29129  0.79672  1.0000
  C   C16       1.0  0.26587  0.70871  0.20328  1.0000
  C   C17       1.0  0.17802  0.27206  0.55694  1.0000
  C   C18       1.0  0.82198  0.72794  0.44306  1.0000
  C   C19       1.0  0.19264  0.21018  0.62605  1.0000
  C   C20       1.0  0.80736  0.78982  0.37395  1.0000
  C   C21       1.0  0.06230  0.13543  0.63863  1.0000
  C   C22       1.0  0.93769  0.86457  0.36137  1.0000
  C   C23       1.0  0.92302  0.11778  0.58251  1.0000
  C   C24       1.0  0.07698  0.88222  0.41749  1.0000
  C   C25       1.0  0.91093  0.17728  0.51259  1.0000
  C   C26       1.0  0.08906  0.82272  0.48741  1.0000
  C   C27       1.0  0.03787  0.25500  0.50117  1.0000
  C   C28       1.0  0.96213  0.74501  0.49883  1.0000
  C   C29       1.0  0.30948  0.36050  0.54197  1.0000
  C   C30       1.0  0.69053  0.63950  0.45803  1.0000
  C   C31       1.0  0.34217  0.21981  0.67972  1.0000
  C   C32       1.0  0.65783  0.78019  0.32028  1.0000
  C   C33       1.0  0.72257  0.31743  0.36380  1.0000
  C   C34       1.0  0.27744  0.68257  0.63620  1.0000
  C   C35       1.0  0.69668  0.21509  0.25145  1.0000
  C   C36       1.0  0.30332  0.78491  0.74855  1.0000
  C   C37       1.0  0.57409  0.10053  0.21094  1.0000
  C   C38       1.0  0.42591  0.89947  0.78906  1.0000
  C   C39       1.0  0.49255  0.09133  0.29306  1.0000
  C   C40       1.0  0.50745  0.90867  0.70694  1.0000
  C   C41       1.0  0.52591  0.19658  0.40367  1.0000
  C   C42       1.0  0.47409  0.80342  0.59633  1.0000
  C   C43       1.0  0.51407  0.99527  0.08503  1.0000
  C   C44       1.0  0.48594  0.00473  0.91498  1.0000
  C   C45       1.0  0.60780  0.98848  0.99460  1.0000
  C   C46       1.0  0.39220  0.01152  0.00540  1.0000
  C   C47       1.0  0.76047  0.76342  0.78628  1.0000
  C   C48       1.0  0.23953  0.23658  0.21372  1.0000
  C   C49       1.0  0.75302  0.87593  0.87146  1.0000
  C   C50       1.0  0.24698  0.12407  0.12854  1.0000
  C   C51       1.0  0.63925  0.86948  0.92944  1.0000
  C   C52       1.0  0.36075  0.13052  0.07056  1.0000
  C   C53       1.0  0.54789  0.74633  0.90749  1.0000
  C   C54       1.0  0.45211  0.25368  0.09251  1.0000
  C   C55       1.0  0.56317  0.63818  0.82158  1.0000
  C   C56       1.0  0.43684  0.36182  0.17842  1.0000
  N   N1        1.0  0.91499  0.24085  0.95651  1.0000
  N   N2        1.0  0.08501  0.75915  0.04349  1.0000
  N   N3        1.0  0.06820  0.07189  0.71319  1.0000
  N   N4        1.0  0.93180  0.92811  0.28681  1.0000
  N   N5        1.0  0.63507  0.31081  0.43748  1.0000
  N   N6        1.0  0.36493  0.68919  0.56252  1.0000
  N   N7        1.0  0.66293  0.64564  0.75728  1.0000
  N   N8        1.0  0.33707  0.35436  0.24272  1.0000
  O   O1        1.0  0.96425  0.53448  0.66858  1.0000
  O   O2        1.0  0.03575  0.46552  0.33142  1.0000
  O   O3        1.0  0.75532  0.42493  0.69858  1.0000
  O   O4        1.0  0.24468  0.57507  0.30142  1.0000
  O   O5        1.0  0.67410  0.18639  0.69330  1.0000
  O   O6        1.0  0.32590  0.81361  0.30671  1.0000
  O   O7        1.0  0.66338  0.34075  0.86510  1.0000
  O   O8        1.0  0.33662  0.65925  0.13490  1.0000
  O   O9        1.0  0.78026  0.17840  0.91409  1.0000
  O   O10       1.0  0.21974  0.82159  0.08591  1.0000
  O   O11       1.0  0.98946  0.23602  0.03695  1.0000
  O   O12       1.0  0.01054  0.76398  0.96305  1.0000
  O   O13       1.0  0.28202  0.40714  0.47516  1.0000
  O   O14       1.0  0.71798  0.59286  0.52484  1.0000
  O   O15       1.0  0.43566  0.38102  0.59826  1.0000
  O   O16       1.0  0.56434  0.61898  0.40174  1.0000
  O   O17       1.0  0.39742  0.14337  0.62019  1.0000
  O   O18       1.0  0.60258  0.85663  0.37981  1.0000
  O   O19       1.0  0.40329  0.31263  0.78884  1.0000
  O   O20       1.0  0.59671  0.68737  0.21116  1.0000
  O   O21       1.0  0.18973  0.07629  0.75536  1.0000
  O   O22       1.0  0.81027  0.92371  0.24464  1.0000
  O   O23       1.0  0.95070  0.01735  0.73047  1.0000
  O   O24       1.0  0.04930  0.98265  0.26953  1.0000
