data_image0
_chemical_formula_structural       Cd5H48C60N30Cl4
_chemical_formula_sum              "Cd5 H48 C60 N30 Cl4"
_cell_length_a       9.91241
_cell_length_b       11.8441
_cell_length_c       14.5511
_cell_angle_alpha    74.2922
_cell_angle_beta     86.881
_cell_angle_gamma    81.5631

_space_group_name_H-M_alt    "P 1"
_space_group_IT_number       1

loop_
  _space_group_symop_operation_xyz
  'x, y, z'

loop_
  _atom_site_type_symbol
  _atom_site_label
  _atom_site_symmetry_multiplicity
  _atom_site_fract_x
  _atom_site_fract_y
  _atom_site_fract_z
  _atom_site_occupancy
  Cd  Cd1       1.0  1.00000  0.50000  0.00000  1.0000
  Cd  Cd2       1.0  0.37909  0.54769  0.62387  1.0000
  Cd  Cd3       1.0  0.62090  0.45231  0.37613  1.0000
  Cd  Cd4       1.0  0.36892  0.40554  0.91861  1.0000
  Cd  Cd5       1.0  0.63108  0.59445  0.08139  1.0000
  H   H1        1.0  0.86172  0.58355  0.76707  1.0000
  H   H2        1.0  0.13827  0.41645  0.23293  1.0000
  H   H3        1.0  0.78872  0.62389  0.62941  1.0000
  H   H4        1.0  0.21128  0.37611  0.37059  1.0000
  H   H5        1.0  0.74965  0.59422  0.52144  1.0000
  H   H6        1.0  0.25035  0.40578  0.47856  1.0000
  H   H7        1.0  0.74915  0.74323  0.52521  1.0000
  H   H8        1.0  0.25085  0.25677  0.47479  1.0000
  H   H9        1.0  0.81130  0.73131  0.33803  1.0000
  H   H10       1.0  0.18870  0.26869  0.66197  1.0000
  H   H11       1.0  0.95640  0.75569  0.19060  1.0000
  H   H12       1.0  0.04360  0.24431  0.80940  1.0000
  H   H13       1.0  0.20731  0.70589  0.19883  1.0000
  H   H14       1.0  0.79269  0.29411  0.80117  1.0000
  H   H15       1.0  0.32466  0.63415  0.35298  1.0000
  H   H16       1.0  0.67535  0.36585  0.64703  1.0000
  H   H17       1.0  0.47184  0.08649  0.66195  1.0000
  H   H18       1.0  0.52816  0.91351  0.33804  1.0000
  H   H19       1.0  0.68135  0.00489  0.64033  1.0000
  H   H20       1.0  0.31865  0.99511  0.35966  1.0000
  H   H21       1.0  0.81029  0.91539  0.59285  1.0000
  H   H22       1.0  0.18971  0.08461  0.40715  1.0000
  H   H23       1.0  0.63426  0.91166  0.57270  1.0000
  H   H24       1.0  0.36574  0.08834  0.42729  1.0000
  H   H25       1.0  0.93492  0.88966  0.45287  1.0000
  H   H26       1.0  0.06508  0.11034  0.54713  1.0000
  H   H27       1.0  0.07095  0.94019  0.30304  1.0000
  H   H28       1.0  0.92905  0.05981  0.69696  1.0000
  H   H29       1.0  0.02286  0.13742  0.18505  1.0000
  H   H30       1.0  0.97714  0.86259  0.81495  1.0000
  H   H31       1.0  0.83137  0.28634  0.21191  1.0000
  H   H32       1.0  0.16863  0.71366  0.78809  1.0000
  H   H33       1.0  0.91113  0.23744  0.96851  1.0000
  H   H34       1.0  0.08888  0.76256  0.03150  1.0000
  H   H35       1.0  0.84221  0.04757  0.00482  1.0000
  H   H36       1.0  0.15780  0.95243  0.99518  1.0000
  H   H37       1.0  0.87450  0.06743  0.87908  1.0000
  H   H38       1.0  0.12550  0.93257  0.12092  1.0000
  H   H39       1.0  0.80923  0.93728  0.95015  1.0000
  H   H40       1.0  0.19078  0.06271  0.04985  1.0000
  H   H41       1.0  0.65423  0.87462  0.86474  1.0000
  H   H42       1.0  0.34577  0.12539  0.13526  1.0000
  H   H43       1.0  0.43516  0.84343  0.80574  1.0000
  H   H44       1.0  0.56484  0.15658  0.19426  1.0000
  H   H45       1.0  0.22941  0.99256  0.79419  1.0000
  H   H46       1.0  0.77059  0.00744  0.20581  1.0000
  H   H47       1.0  0.23579  0.17919  0.84342  1.0000
  H   H48       1.0  0.76422  0.82081  0.15658  1.0000
  C   C1        1.0  0.97007  0.55453  0.76147  1.0000
  C   C2        1.0  0.02992  0.44547  0.23853  1.0000
  C   C3        1.0  0.06012  0.55895  0.68363  1.0000
  C   C4        1.0  0.93988  0.44105  0.31637  1.0000
  C   C5        1.0  0.05514  0.60169  0.58049  1.0000
  C   C6        1.0  0.94485  0.39832  0.41952  1.0000
  C   C7        1.0  0.79958  0.65202  0.55186  1.0000
  C   C8        1.0  0.20042  0.34798  0.44814  1.0000
  C   C9        1.0  0.99007  0.67125  0.42923  1.0000
  C   C10       1.0  0.00994  0.32875  0.57077  1.0000
  C   C11       1.0  0.92222  0.71322  0.34240  1.0000
  C   C12       1.0  0.07779  0.28679  0.65760  1.0000
  C   C13       1.0  0.00438  0.72666  0.26028  1.0000
  C   C14       1.0  0.99562  0.27334  0.73973  1.0000
  C   C15       1.0  0.14729  0.69924  0.26441  1.0000
  C   C16       1.0  0.85271  0.30076  0.73559  1.0000
  C   C17       1.0  0.21453  0.65816  0.35096  1.0000
  C   C18       1.0  0.78547  0.34184  0.64905  1.0000
  C   C19       1.0  0.13422  0.64410  0.43437  1.0000
  C   C20       1.0  0.86578  0.35590  0.56563  1.0000
  C   C21       1.0  0.47952  0.17677  0.62132  1.0000
  C   C22       1.0  0.52048  0.82322  0.37868  1.0000
  C   C23       1.0  0.54754  0.22287  0.53538  1.0000
  C   C24       1.0  0.45245  0.77713  0.46461  1.0000
  C   C25       1.0  0.64084  0.17467  0.47128  1.0000
  C   C26       1.0  0.35915  0.82533  0.52871  1.0000
  C   C27       1.0  0.70963  0.96847  0.57927  1.0000
  C   C28       1.0  0.29037  0.03153  0.42073  1.0000
  C   C29       1.0  0.80710  0.06126  0.41653  1.0000
  C   C30       1.0  0.19289  0.93874  0.58347  1.0000
  C   C31       1.0  0.91188  0.97552  0.40143  1.0000
  C   C32       1.0  0.08812  0.02448  0.59857  1.0000
  C   C33       1.0  0.98838  0.00538  0.31705  1.0000
  C   C34       1.0  0.01162  0.99463  0.68294  1.0000
  C   C35       1.0  0.96015  0.11635  0.24977  1.0000
  C   C36       1.0  0.03985  0.88365  0.75022  1.0000
  C   C37       1.0  0.85403  0.20124  0.26440  1.0000
  C   C38       1.0  0.14597  0.79877  0.73560  1.0000
  C   C39       1.0  0.77787  0.17353  0.34949  1.0000
  C   C40       1.0  0.22213  0.82647  0.65051  1.0000
  C   C41       1.0  0.81563  0.28845  0.98176  1.0000
  C   C42       1.0  0.18437  0.71155  0.01824  1.0000
  C   C43       1.0  0.67937  0.27573  0.97234  1.0000
  C   C44       1.0  0.32063  0.72427  0.02766  1.0000
  C   C45       1.0  0.61128  0.19725  0.93624  1.0000
  C   C46       1.0  0.38872  0.80274  0.06376  1.0000
  C   C47       1.0  0.80694  0.03286  0.93948  1.0000
  C   C48       1.0  0.19307  0.96714  0.06052  1.0000
  C   C49       1.0  0.56563  0.04612  0.88537  1.0000
  C   C50       1.0  0.43437  0.95388  0.11462  1.0000
  C   C51       1.0  0.56476  0.94178  0.85820  1.0000
  C   C52       1.0  0.43524  0.05822  0.14180  1.0000
  C   C53       1.0  0.44104  0.92467  0.82610  1.0000
  C   C54       1.0  0.55896  0.07534  0.17390  1.0000
  C   C55       1.0  0.32330  0.00908  0.82069  1.0000
  C   C56       1.0  0.67670  0.99092  0.17931  1.0000
  C   C57       1.0  0.32522  0.11286  0.84778  1.0000
  C   C58       1.0  0.67478  0.88714  0.15222  1.0000
  C   C59       1.0  0.44781  0.13113  0.88061  1.0000
  C   C60       1.0  0.55219  0.86887  0.11939  1.0000
  N   N1        1.0  0.04386  0.50380  0.84098  1.0000
  N   N2        1.0  0.95613  0.49620  0.15902  1.0000
  N   N3        1.0  0.17388  0.47792  0.81455  1.0000
  N   N4        1.0  0.82611  0.52208  0.18545  1.0000
  N   N5        1.0  0.18537  0.51018  0.72079  1.0000
  N   N6        1.0  0.81463  0.48982  0.27921  1.0000
  N   N7        1.0  0.17087  0.60102  0.52890  1.0000
  N   N8        1.0  0.82912  0.39898  0.47111  1.0000
  N   N9        1.0  0.94269  0.64435  0.52364  1.0000
  N   N10       1.0  0.05731  0.35565  0.47637  1.0000
  N   N11       1.0  0.41405  0.26873  0.65155  1.0000
  N   N12       1.0  0.58596  0.73126  0.34845  1.0000
  N   N13       1.0  0.43995  0.36739  0.58709  1.0000
  N   N14       1.0  0.56005  0.63260  0.41291  1.0000
  N   N15       1.0  0.51904  0.34307  0.51602  1.0000
  N   N16       1.0  0.48096  0.65693  0.48397  1.0000
  N   N17       1.0  0.67377  0.24118  0.38561  1.0000
  N   N18       1.0  0.32623  0.75883  0.61439  1.0000
  N   N19       1.0  0.71734  0.06401  0.49298  1.0000
  N   N20       1.0  0.28265  0.93598  0.50701  1.0000
  N   N21       1.0  0.60092  0.36785  0.99734  1.0000
  N   N22       1.0  0.39908  0.63215  0.00266  1.0000
  N   N23       1.0  0.68456  0.43287  0.01988  1.0000
  N   N24       1.0  0.31544  0.56713  0.98012  1.0000
  N   N25       1.0  0.81519  0.38714  0.01101  1.0000
  N   N26       1.0  0.18481  0.61286  0.98899  1.0000
  N   N27       1.0  0.66761  0.09046  0.92144  1.0000
  N   N28       1.0  0.33240  0.90954  0.07856  1.0000
  N   N29       1.0  0.47997  0.22397  0.91176  1.0000
  N   N30       1.0  0.52004  0.77603  0.08824  1.0000
  Cl  Cl1       1.0  0.17865  0.30157  0.04128  1.0000
  Cl  Cl2       1.0  0.82135  0.69843  0.95872  1.0000
  Cl  Cl3       1.0  0.52705  0.50951  0.77136  1.0000
  Cl  Cl4       1.0  0.47295  0.49049  0.22864  1.0000
