data_image0
_chemical_formula_structural       K2H46C44O30
_chemical_formula_sum              "K2 H46 C44 O30"
_cell_length_a       7.04329
_cell_length_b       8.75699
_cell_length_c       19.1582
_cell_angle_alpha    103.223
_cell_angle_beta     90
_cell_angle_gamma    90

_space_group_name_H-M_alt    "P 1"
_space_group_IT_number       1

loop_
  _space_group_symop_operation_xyz
  'x, y, z'

loop_
  _atom_site_type_symbol
  _atom_site_label
  _atom_site_symmetry_multiplicity
  _atom_site_fract_x
  _atom_site_fract_y
  _atom_site_fract_z
  _atom_site_occupancy
  K   K1        1.0  0.89367  0.83942  0.72107  1.0000
  K   K2        1.0  0.39368  0.16058  0.27893  1.0000
  H   H1        1.0  0.71154  0.75250  0.86039  1.0000
  H   H2        1.0  0.21154  0.24750  0.13961  1.0000
  H   H3        1.0  0.69341  0.14999  0.67988  1.0000
  H   H4        1.0  0.19341  0.85001  0.32012  1.0000
  H   H5        1.0  0.77553  0.10055  0.91267  1.0000
  H   H6        1.0  0.27554  0.89945  0.08733  1.0000
  H   H7        1.0  0.76815  0.34406  0.11530  1.0000
  H   H8        1.0  0.26816  0.65593  0.88470  1.0000
  H   H9        1.0  0.78776  0.68556  0.26495  1.0000
  H   H10       1.0  0.28776  0.31444  0.73506  1.0000
  H   H11       1.0  0.86704  0.01196  0.12016  1.0000
  H   H12       1.0  0.36703  0.98804  0.87984  1.0000
  H   H13       1.0  0.90629  0.92949  0.02690  1.0000
  H   H14       1.0  0.40629  0.07051  0.97310  1.0000
  H   H15       1.0  0.67767  0.98701  0.05804  1.0000
  H   H16       1.0  0.17767  0.01299  0.94196  1.0000
  H   H17       1.0  0.65528  0.53258  0.68509  1.0000
  H   H18       1.0  0.15528  0.46742  0.31491  1.0000
  H   H19       1.0  0.99361  0.30428  0.65176  1.0000
  H   H20       1.0  0.49361  0.69572  0.34824  1.0000
  H   H21       1.0  0.11851  0.51516  0.71977  1.0000
  H   H22       1.0  0.61851  0.48484  0.28023  1.0000
  H   H23       1.0  0.84773  0.54042  0.56917  1.0000
  H   H24       1.0  0.34773  0.45958  0.43083  1.0000
  H   H25       1.0  0.14051  0.49985  0.53876  1.0000
  H   H26       1.0  0.64051  0.50015  0.46124  1.0000
  H   H27       1.0  0.82123  0.18339  0.52530  1.0000
  H   H28       1.0  0.32123  0.81661  0.47470  1.0000
  H   H29       1.0  0.68603  0.22928  0.42736  1.0000
  H   H30       1.0  0.18603  0.77072  0.57264  1.0000
  H   H31       1.0  0.49922  0.41980  0.57544  1.0000
  H   H32       1.0  0.99922  0.58020  0.42456  1.0000
  H   H33       1.0  0.32456  0.16861  0.57855  1.0000
  H   H34       1.0  0.82456  0.83139  0.42145  1.0000
  H   H35       1.0  0.37080  0.20238  0.49248  1.0000
  H   H36       1.0  0.87080  0.79762  0.50752  1.0000
  H   H37       1.0  0.55339  0.96981  0.55401  1.0000
  H   H38       1.0  0.05340  0.03019  0.44599  1.0000
  H   H39       1.0  0.18728  0.01843  0.65401  1.0000
  H   H40       1.0  0.68728  0.98157  0.34599  1.0000
  H   H41       1.0  0.08966  0.98491  0.57534  1.0000
  H   H42       1.0  0.58966  0.01509  0.42466  1.0000
  H   H43       1.0  0.57946  0.73009  0.55436  1.0000
  H   H44       1.0  0.07946  0.26991  0.44564  1.0000
  H   H45       1.0  0.48236  0.81201  0.62627  1.0000
  H   H46       1.0  0.98236  0.18799  0.37372  1.0000
  C   C1        1.0  0.73384  0.53511  0.82021  1.0000
  C   C2        1.0  0.23383  0.46490  0.17980  1.0000
  C   C3        1.0  0.73731  0.40153  0.76191  1.0000
  C   C4        1.0  0.23731  0.59847  0.23809  1.0000
  C   C5        1.0  0.74926  0.25247  0.77614  1.0000
  C   C6        1.0  0.24926  0.74753  0.22386  1.0000
  C   C7        1.0  0.76330  0.23213  0.84774  1.0000
  C   C8        1.0  0.26330  0.76787  0.15226  1.0000
  C   C9        1.0  0.76322  0.36530  0.90488  1.0000
  C   C10       1.0  0.26322  0.63470  0.09512  1.0000
  C   C11       1.0  0.76480  0.46284  0.10666  1.0000
  C   C12       1.0  0.26480  0.53716  0.89334  1.0000
  C   C13       1.0  0.76701  0.59224  0.16513  1.0000
  C   C14       1.0  0.26701  0.40776  0.83487  1.0000
  C   C15       1.0  0.76795  0.74835  0.15439  1.0000
  C   C16       1.0  0.26795  0.25165  0.84561  1.0000
  C   C17       1.0  0.75133  0.88204  0.21994  1.0000
  C   C18       1.0  0.25133  0.11796  0.78006  1.0000
  C   C19       1.0  0.77631  0.77284  0.08387  1.0000
  C   C20       1.0  0.27631  0.22715  0.91613  1.0000
  C   C21       1.0  0.80971  0.93423  0.07204  1.0000
  C   C22       1.0  0.30971  0.06578  0.92796  1.0000
  C   C23       1.0  0.76451  0.64041  0.02460  1.0000
  C   C24       1.0  0.26451  0.35959  0.97540  1.0000
  C   C25       1.0  0.74749  0.65681  0.95019  1.0000
  C   C26       1.0  0.24749  0.34319  0.04981  1.0000
  C   C27       1.0  0.74965  0.51793  0.89173  1.0000
  C   C28       1.0  0.24965  0.48207  0.10827  1.0000
  C   C29       1.0  0.76680  0.34463  0.97764  1.0000
  C   C30       1.0  0.26680  0.65536  0.02235  1.0000
  C   C31       1.0  0.76289  0.48609  0.03740  1.0000
  C   C32       1.0  0.26289  0.51391  0.96260  1.0000
  C   C33       1.0  0.72592  0.42029  0.68564  1.0000
  C   C34       1.0  0.22592  0.57971  0.31436  1.0000
  C   C35       1.0  0.92298  0.41557  0.64924  1.0000
  C   C36       1.0  0.42298  0.58443  0.35076  1.0000
  C   C37       1.0  0.90006  0.42174  0.57034  1.0000
  C   C38       1.0  0.40006  0.57826  0.42966  1.0000
  C   C39       1.0  0.75873  0.30099  0.53126  1.0000
  C   C40       1.0  0.25873  0.69901  0.46874  1.0000
  C   C41       1.0  0.57232  0.30679  0.57296  1.0000
  C   C42       1.0  0.07232  0.69321  0.42704  1.0000
  C   C43       1.0  0.43732  0.17415  0.53969  1.0000
  C   C44       1.0  0.93732  0.82585  0.46031  1.0000
  O   O1        1.0  0.71387  0.67825  0.80715  1.0000
  O   O2        1.0  0.21387  0.32176  0.19285  1.0000
  O   O3        1.0  0.74449  0.11967  0.72345  1.0000
  O   O4        1.0  0.24449  0.88033  0.27655  1.0000
  O   O5        1.0  0.77181  0.08573  0.85777  1.0000
  O   O6        1.0  0.27182  0.91427  0.14223  1.0000
  O   O7        1.0  0.77445  0.56697  0.23175  1.0000
  O   O8        1.0  0.27445  0.43303  0.76825  1.0000
  O   O9        1.0  0.70287  0.01686  0.21664  1.0000
  O   O10       1.0  0.20286  0.98314  0.78336  1.0000
  O   O11       1.0  0.78186  0.84452  0.28185  1.0000
  O   O12       1.0  0.28186  0.15548  0.71815  1.0000
  O   O13       1.0  0.72498  0.79025  0.93496  1.0000
  O   O14       1.0  0.22498  0.20975  0.06504  1.0000
  O   O15       1.0  0.77360  0.20898  0.98990  1.0000
  O   O16       1.0  0.27360  0.79102  0.01010  1.0000
  O   O17       1.0  0.61066  0.29383  0.64522  1.0000
  O   O18       1.0  0.11066  0.70617  0.35478  1.0000
  O   O19       1.0  0.03578  0.54608  0.68327  1.0000
  O   O20       1.0  0.53578  0.45392  0.31673  1.0000
  O   O21       1.0  0.07734  0.39477  0.53341  1.0000
  O   O22       1.0  0.57734  0.60523  0.46659  1.0000
  O   O23       1.0  0.72662  0.33025  0.46153  1.0000
  O   O24       1.0  0.22662  0.66975  0.53847  1.0000
  O   O25       1.0  0.52823  0.02571  0.51530  1.0000
  O   O26       1.0  0.02823  0.97429  0.48470  1.0000
  O   O27       1.0  0.11609  0.93852  0.61683  1.0000
  O   O28       1.0  0.61609  0.06148  0.38317  1.0000
  O   O29       1.0  0.59868  0.81426  0.59892  1.0000
  O   O30       1.0  0.09868  0.18574  0.40108  1.0000
