data_image0
_chemical_formula_structural       Cu4H24C28I4N8
_chemical_formula_sum              "Cu4 H24 C28 I4 N8"
_cell_length_a       4.22403
_cell_length_b       11.8822
_cell_length_c       15.7606
_cell_angle_alpha    89.9998
_cell_angle_beta     98.4194
_cell_angle_gamma    89.9994

_space_group_name_H-M_alt    "P 1"
_space_group_IT_number       1

loop_
  _space_group_symop_operation_xyz
  'x, y, z'

loop_
  _atom_site_type_symbol
  _atom_site_label
  _atom_site_symmetry_multiplicity
  _atom_site_fract_x
  _atom_site_fract_y
  _atom_site_fract_z
  _atom_site_occupancy
  Cu  Cu1       1.0  0.72142  0.45152  0.45780  1.0000
  Cu  Cu2       1.0  0.27854  0.95152  0.04220  1.0000
  Cu  Cu3       1.0  0.27858  0.54849  0.54221  1.0000
  Cu  Cu4       1.0  0.72147  0.04849  0.95780  1.0000
  H   H1        1.0  0.31770  0.27358  0.33199  1.0000
  H   H2        1.0  0.68227  0.77358  0.16801  1.0000
  H   H3        1.0  0.68229  0.72643  0.66802  1.0000
  H   H4        1.0  0.31772  0.22642  0.83198  1.0000
  H   H5        1.0  0.32139  0.26891  0.16932  1.0000
  H   H6        1.0  0.67860  0.76891  0.33067  1.0000
  H   H7        1.0  0.67861  0.73109  0.83069  1.0000
  H   H8        1.0  0.32139  0.23109  0.66932  1.0000
  H   H9        1.0  0.60441  0.40541  0.04791  1.0000
  H   H10       1.0  0.39559  0.90540  0.45209  1.0000
  H   H11       1.0  0.39559  0.59459  0.95210  1.0000
  H   H12       1.0  0.60441  0.09459  0.54790  1.0000
  H   H13       1.0  0.96660  0.57262  0.04771  1.0000
  H   H14       1.0  0.03340  0.07262  0.45229  1.0000
  H   H15       1.0  0.03340  0.42738  0.95229  1.0000
  H   H16       1.0  0.96661  0.92738  0.54770  1.0000
  H   H17       1.0  0.20386  0.66266  0.18213  1.0000
  H   H18       1.0  0.79614  0.16267  0.31788  1.0000
  H   H19       1.0  0.79614  0.33734  0.81787  1.0000
  H   H20       1.0  0.20386  0.83733  0.68212  1.0000
  H   H21       1.0  0.08135  0.59506  0.32452  1.0000
  H   H22       1.0  0.91864  0.09507  0.17549  1.0000
  H   H23       1.0  0.91865  0.40494  0.67549  1.0000
  H   H24       1.0  0.08136  0.90493  0.82451  1.0000
  C   C1        1.0  0.45300  0.33040  0.29700  1.0000
  C   C2        1.0  0.54698  0.83040  0.20299  1.0000
  C   C3        1.0  0.54700  0.66960  0.70300  1.0000
  C   C4        1.0  0.45302  0.16960  0.79700  1.0000
  C   C5        1.0  0.70468  0.44733  0.10726  1.0000
  C   C6        1.0  0.29532  0.94733  0.39274  1.0000
  C   C7        1.0  0.29532  0.55266  0.89275  1.0000
  C   C8        1.0  0.70469  0.05266  0.60725  1.0000
  C   C9        1.0  0.90672  0.53995  0.10795  1.0000
  C   C10       1.0  0.09328  0.03995  0.39205  1.0000
  C   C11       1.0  0.09328  0.46005  0.89206  1.0000
  C   C12       1.0  0.90673  0.96005  0.60794  1.0000
  C   C13       1.0  0.03977  0.59267  0.18513  1.0000
  C   C14       1.0  0.96022  0.09267  0.31488  1.0000
  C   C15       1.0  0.96023  0.40733  0.81488  1.0000
  C   C16       1.0  0.03978  0.90732  0.68512  1.0000
  C   C17       1.0  0.97194  0.55646  0.26452  1.0000
  C   C18       1.0  0.02804  0.05647  0.23549  1.0000
  C   C19       1.0  0.02805  0.44354  0.73549  1.0000
  C   C20       1.0  0.97196  0.94353  0.76451  1.0000
  C   C21       1.0  0.76196  0.46531  0.26479  1.0000
  C   C22       1.0  0.23802  0.96532  0.23521  1.0000
  C   C23       1.0  0.23804  0.53469  0.73522  1.0000
  C   C24       1.0  0.76198  0.03468  0.76478  1.0000
  C   C25       1.0  0.63502  0.41141  0.18686  1.0000
  C   C26       1.0  0.36498  0.91142  0.31313  1.0000
  C   C27       1.0  0.36499  0.58858  0.81314  1.0000
  C   C28       1.0  0.63502  0.08858  0.68686  1.0000
  I   I1        1.0  0.74760  0.66708  0.48220  1.0000
  I   I2        1.0  0.25243  0.16708  0.01780  1.0000
  I   I3        1.0  0.25240  0.33292  0.51780  1.0000
  I   I4        1.0  0.74758  0.83292  0.98220  1.0000
  N   N1        1.0  0.64271  0.41222  0.33235  1.0000
  N   N2        1.0  0.35726  0.91222  0.16765  1.0000
  N   N3        1.0  0.35729  0.58779  0.66765  1.0000
  N   N4        1.0  0.64274  0.08778  0.83235  1.0000
  N   N5        1.0  0.44256  0.32618  0.21041  1.0000
  N   N6        1.0  0.55743  0.82619  0.28958  1.0000
  N   N7        1.0  0.55744  0.67382  0.78960  1.0000
  N   N8        1.0  0.44257  0.17381  0.71041  1.0000
