data_image0
_chemical_formula_structural       Sn2H40C28N4O12
_chemical_formula_sum              "Sn2 H40 C28 N4 O12"
_cell_length_a       7.79592
_cell_length_b       7.82961
_cell_length_c       14.1802
_cell_angle_alpha    88.385
_cell_angle_beta     82.9735
_cell_angle_gamma    75.7768

_space_group_name_H-M_alt    "P 1"
_space_group_IT_number       1

loop_
  _space_group_symop_operation_xyz
  'x, y, z'

loop_
  _atom_site_type_symbol
  _atom_site_label
  _atom_site_symmetry_multiplicity
  _atom_site_fract_x
  _atom_site_fract_y
  _atom_site_fract_z
  _atom_site_occupancy
  Sn  Sn1       1.0  0.89774  0.43912  0.18348  1.0000
  Sn  Sn2       1.0  0.52085  0.03903  0.10981  1.0000
  H   H1        1.0  0.33029  0.99561  0.36870  1.0000
  H   H2        1.0  0.27809  0.86096  0.28523  1.0000
  H   H3        1.0  0.95821  0.92647  0.36769  1.0000
  H   H4        1.0  0.12084  0.80443  0.43633  1.0000
  H   H5        1.0  0.76709  0.13271  0.44527  1.0000
  H   H6        1.0  0.94935  0.23087  0.66307  1.0000
  H   H7        1.0  0.44335  0.58276  0.76376  1.0000
  H   H8        1.0  0.32011  0.52661  0.62035  1.0000
  H   H9        1.0  0.23356  0.35072  0.50875  1.0000
  H   H10       1.0  0.32270  0.35026  0.38583  1.0000
  H   H11       1.0  0.31296  0.53621  0.45870  1.0000
  H   H12       1.0  0.89123  0.32625  0.00383  1.0000
  H   H13       1.0  0.94805  0.14044  0.08031  1.0000
  H   H14       1.0  0.11258  0.25503  0.03606  1.0000
  H   H15       1.0  0.20216  0.54836  0.18818  1.0000
  H   H16       1.0  0.07572  0.56917  0.30354  1.0000
  H   H17       1.0  0.01208  0.73166  0.21469  1.0000
  H   H18       1.0  0.55649  0.40289  0.21426  1.0000
  H   H19       1.0  0.56567  0.61335  0.25608  1.0000
  H   H20       1.0  0.63904  0.42147  0.32528  1.0000
  H   H21       1.0  0.11946  0.65284  0.01963  1.0000
  H   H22       1.0  0.01780  0.56270  0.93535  1.0000
  H   H23       1.0  0.04681  0.94622  0.91956  1.0000
  H   H24       1.0  0.23310  0.77225  0.87810  1.0000
  H   H25       1.0  0.77439  0.93824  0.85802  1.0000
  H   H26       1.0  0.94148  0.70829  0.62729  1.0000
  H   H27       1.0  0.42906  0.88957  0.52304  1.0000
  H   H28       1.0  0.31029  0.05457  0.66972  1.0000
  H   H29       1.0  0.29933  0.27518  0.77447  1.0000
  H   H30       1.0  0.30465  0.23443  0.89904  1.0000
  H   H31       1.0  0.22670  0.09059  0.82796  1.0000
  H   H32       1.0  0.55317  0.25460  0.95912  1.0000
  H   H33       1.0  0.57931  0.36329  0.06254  1.0000
  H   H34       1.0  0.36142  0.35889  0.03929  1.0000
  H   H35       1.0  0.35431  0.76959  0.12594  1.0000
  H   H36       1.0  0.44696  0.78784  0.00584  1.0000
  H   H37       1.0  0.24130  0.93856  0.05165  1.0000
  H   H38       1.0  0.60689  0.11000  0.28085  1.0000
  H   H39       1.0  0.80569  0.00496  0.20789  1.0000
  H   H40       1.0  0.66385  0.87562  0.26551  1.0000
  C   C1        1.0  0.15723  0.13398  0.27076  1.0000
  C   C2        1.0  0.21986  0.97476  0.33263  1.0000
  C   C3        1.0  0.07234  0.93413  0.40420  1.0000
  C   C4        1.0  0.01679  0.06469  0.48603  1.0000
  C   C5        1.0  0.74475  0.26211  0.57062  1.0000
  C   C6        1.0  0.81271  0.29356  0.65289  1.0000
  C   C7        1.0  0.70215  0.40829  0.72161  1.0000
  C   C8        1.0  0.52628  0.49230  0.71027  1.0000
  C   C9        1.0  0.45745  0.46050  0.62840  1.0000
  C   C10       1.0  0.56467  0.34665  0.55861  1.0000
  C   C11       1.0  0.33241  0.39246  0.45745  1.0000
  C   C12       1.0  0.97104  0.27013  0.06071  1.0000
  C   C13       1.0  0.06881  0.59163  0.22731  1.0000
  C   C14       1.0  0.63164  0.47280  0.25300  1.0000
  C   C15       1.0  0.84354  0.76521  0.02274  1.0000
  C   C16       1.0  0.02341  0.68758  0.96711  1.0000
  C   C17       1.0  0.08733  0.81056  0.89204  1.0000
  C   C18       1.0  0.01833  0.80107  0.79719  1.0000
  C   C19       1.0  0.73900  0.87925  0.72136  1.0000
  C   C20       1.0  0.80428  0.78425  0.63758  1.0000
  C   C21       1.0  0.69200  0.78925  0.56738  1.0000
  C   C22       1.0  0.51525  0.88640  0.57800  1.0000
  C   C23       1.0  0.44856  0.98013  0.66162  1.0000
  C   C24       1.0  0.55772  0.97813  0.73321  1.0000
  C   C25       1.0  0.32141  0.17305  0.82929  1.0000
  C   C26       1.0  0.50071  0.28347  0.03368  1.0000
  C   C27       1.0  0.37177  0.86218  0.06828  1.0000
  C   C28       1.0  0.66715  0.00163  0.23083  1.0000
  N   N1        1.0  0.83938  0.14806  0.49804  1.0000
  N   N2        1.0  0.77440  0.44219  0.80678  1.0000
  N   N3        1.0  0.84112  0.88184  0.79545  1.0000
  N   N4        1.0  0.76252  0.68894  0.48113  1.0000
  O   O1        1.0  0.99223  0.21448  0.28435  1.0000
  O   O2        1.0  0.26686  0.18317  0.20859  1.0000
  O   O3        1.0  0.12485  0.08852  0.53841  1.0000
  O   O4        1.0  0.67806  0.54968  0.86629  1.0000
  O   O5        1.0  0.93081  0.36231  0.81715  1.0000
  O   O6        1.0  0.51074  0.30703  0.47652  1.0000
  O   O7        1.0  0.76220  0.92381  0.00324  1.0000
  O   O8        1.0  0.77869  0.67767  0.08788  1.0000
  O   O9        1.0  0.11671  0.72322  0.72832  1.0000
  O   O10       1.0  0.66553  0.70344  0.41597  1.0000
  O   O11       1.0  0.91708  0.59251  0.47486  1.0000
  O   O12       1.0  0.50230  0.06763  0.81622  1.0000
