data_image0
_chemical_formula_structural       CuH10C12N12
_chemical_formula_sum              "Cu1 H10 C12 N12"
_cell_length_a       6.26203
_cell_length_b       7.38422
_cell_length_c       9.13526
_cell_angle_alpha    103.632
_cell_angle_beta     99.1659
_cell_angle_gamma    107.778

_space_group_name_H-M_alt    "P 1"
_space_group_IT_number       1

loop_
  _space_group_symop_operation_xyz
  'x, y, z'

loop_
  _atom_site_type_symbol
  _atom_site_label
  _atom_site_symmetry_multiplicity
  _atom_site_fract_x
  _atom_site_fract_y
  _atom_site_fract_z
  _atom_site_occupancy
  Cu  Cu1       1.0  0.00001  1.00000  1.00000  1.0000
  H   H1        1.0  0.49361  0.08362  0.15166  1.0000
  H   H2        1.0  0.50641  0.91643  0.84835  1.0000
  H   H3        1.0  0.92268  0.12086  0.31944  1.0000
  H   H4        1.0  0.07732  0.87914  0.68056  1.0000
  H   H5        1.0  0.16618  0.25166  0.59068  1.0000
  H   H6        1.0  0.83380  0.74833  0.40933  1.0000
  H   H7        1.0  0.79140  0.32229  0.67281  1.0000
  H   H8        1.0  0.20860  0.67771  0.32720  1.0000
  H   H9        1.0  0.55546  0.31304  0.75391  1.0000
  H   H10       1.0  0.44453  0.68696  0.24610  1.0000
  C   C1        1.0  0.42380  0.12423  0.25136  1.0000
  C   C2        1.0  0.57621  0.87579  0.74863  1.0000
  C   C3        1.0  0.10630  0.14173  0.34376  1.0000
  C   C4        1.0  0.89370  0.85827  0.65623  1.0000
  C   C5        1.0  0.47915  0.23985  0.51608  1.0000
  C   C6        1.0  0.52085  0.76016  0.48392  1.0000
  C   C7        1.0  0.24084  0.21340  0.49351  1.0000
  C   C8        1.0  0.75915  0.78660  0.50649  1.0000
  C   C9        1.0  0.14288  0.63613  0.89923  1.0000
  C   C10       1.0  0.85711  0.36385  0.10076  1.0000
  C   C11       1.0  0.25213  0.35942  0.88576  1.0000
  C   C12       1.0  0.74788  0.64056  0.11425  1.0000
  N   N1        1.0  0.19632  0.09498  0.22041  1.0000
  N   N2        1.0  0.80368  0.90503  0.77958  1.0000
  N   N3        1.0  0.56843  0.19564  0.39166  1.0000
  N   N4        1.0  0.43159  0.80438  0.60834  1.0000
  N   N5        1.0  0.62261  0.30990  0.65901  1.0000
  N   N6        1.0  0.37739  0.69011  0.34100  1.0000
  N   N7        1.0  0.13416  0.79663  0.94143  1.0000
  N   N8        1.0  0.86579  0.20335  0.05856  1.0000
  N   N9        1.0  0.13275  0.45781  0.83492  1.0000
  N   N10       1.0  0.86723  0.54216  0.16505  1.0000
  N   N11       1.0  0.34588  0.25010  0.91371  1.0000
  N   N12       1.0  0.65412  0.74988  0.08633  1.0000
