data_image0
_chemical_formula_structural       Cd4H40C48N16O28
_chemical_formula_sum              "Cd4 H40 C48 N16 O28"
_cell_length_a       6.97682
_cell_length_b       9.55963
_cell_length_c       20.8273
_cell_angle_alpha    90
_cell_angle_beta     93.2828
_cell_angle_gamma    90

_space_group_name_H-M_alt    "P 1"
_space_group_IT_number       1

loop_
  _space_group_symop_operation_xyz
  'x, y, z'

loop_
  _atom_site_type_symbol
  _atom_site_label
  _atom_site_symmetry_multiplicity
  _atom_site_fract_x
  _atom_site_fract_y
  _atom_site_fract_z
  _atom_site_occupancy
  Cd  Cd1       1.0  0.70033  0.41460  0.28364  1.0000
  Cd  Cd2       1.0  0.29967  0.91460  0.21636  1.0000
  Cd  Cd3       1.0  0.29967  0.58540  0.71636  1.0000
  Cd  Cd4       1.0  0.70033  0.08540  0.78364  1.0000
  H   H1        1.0  0.76356  0.75891  0.28462  1.0000
  H   H2        1.0  0.23643  0.25892  0.21538  1.0000
  H   H3        1.0  0.23644  0.24109  0.71538  1.0000
  H   H4        1.0  0.76356  0.74108  0.78462  1.0000
  H   H5        1.0  0.85922  0.94727  0.36284  1.0000
  H   H6        1.0  0.14078  0.44727  0.13715  1.0000
  H   H7        1.0  0.14078  0.05273  0.63715  1.0000
  H   H8        1.0  0.85922  0.55272  0.86285  1.0000
  H   H9        1.0  0.88483  0.88887  0.48106  1.0000
  H   H10       1.0  0.11516  0.38886  0.01894  1.0000
  H   H11       1.0  0.11517  0.11114  0.51894  1.0000
  H   H12       1.0  0.88483  0.61113  0.98106  1.0000
  H   H13       1.0  0.85465  0.71271  0.56741  1.0000
  H   H14       1.0  0.14535  0.21271  0.93259  1.0000
  H   H15       1.0  0.14535  0.28729  0.43259  1.0000
  H   H16       1.0  0.85465  0.78729  0.06741  1.0000
  H   H17       1.0  0.78347  0.46987  0.60000  1.0000
  H   H18       1.0  0.21653  0.96986  0.90000  1.0000
  H   H19       1.0  0.21653  0.53014  0.40000  1.0000
  H   H20       1.0  0.78347  0.03013  0.09999  1.0000
  H   H21       1.0  0.69151  0.22562  0.57037  1.0000
  H   H22       1.0  0.30849  0.72562  0.92963  1.0000
  H   H23       1.0  0.30848  0.77438  0.42963  1.0000
  H   H24       1.0  0.69152  0.27438  0.07037  1.0000
  H   H25       1.0  0.61554  0.05030  0.48344  1.0000
  H   H26       1.0  0.38447  0.55029  0.01656  1.0000
  H   H27       1.0  0.38446  0.94970  0.51656  1.0000
  H   H28       1.0  0.61554  0.44970  0.98344  1.0000
  H   H29       1.0  0.59321  0.12926  0.36872  1.0000
  H   H30       1.0  0.40679  0.62926  0.13128  1.0000
  H   H31       1.0  0.40680  0.87074  0.63128  1.0000
  H   H32       1.0  0.59320  0.37074  0.86872  1.0000
  H   H33       1.0  0.12526  0.39314  0.30321  1.0000
  H   H34       1.0  0.87474  0.89314  0.19679  1.0000
  H   H35       1.0  0.87474  0.60686  0.69679  1.0000
  H   H36       1.0  0.12526  0.10685  0.80321  1.0000
  H   H37       1.0  0.04423  0.23864  0.30867  1.0000
  H   H38       1.0  0.95578  0.73864  0.19133  1.0000
  H   H39       1.0  0.95578  0.76136  0.69133  1.0000
  H   H40       1.0  0.04422  0.26136  0.80867  1.0000
  C   C1        1.0  0.77435  0.73735  0.33592  1.0000
  C   C2        1.0  0.22564  0.23735  0.16408  1.0000
  C   C3        1.0  0.22564  0.26265  0.66408  1.0000
  C   C4        1.0  0.77435  0.76265  0.83592  1.0000
  C   C5        1.0  0.82728  0.84301  0.38026  1.0000
  C   C6        1.0  0.17271  0.34302  0.11974  1.0000
  C   C7        1.0  0.17271  0.15699  0.61973  1.0000
  C   C8        1.0  0.82729  0.65699  0.88026  1.0000
  C   C9        1.0  0.84117  0.81082  0.44494  1.0000
  C   C10       1.0  0.15883  0.31082  0.05506  1.0000
  C   C11       1.0  0.15883  0.18919  0.55506  1.0000
  C   C12       1.0  0.84117  0.68918  0.94494  1.0000
  C   C13       1.0  0.79840  0.67385  0.46524  1.0000
  C   C14       1.0  0.20160  0.17385  0.03476  1.0000
  C   C15       1.0  0.20160  0.32615  0.53476  1.0000
  C   C16       1.0  0.79840  0.82615  0.96524  1.0000
  C   C17       1.0  0.81077  0.63431  0.53155  1.0000
  C   C18       1.0  0.18924  0.13430  0.96845  1.0000
  C   C19       1.0  0.18923  0.36569  0.46845  1.0000
  C   C20       1.0  0.81076  0.86569  0.03155  1.0000
  C   C21       1.0  0.77083  0.50074  0.54954  1.0000
  C   C22       1.0  0.22917  0.00074  0.95046  1.0000
  C   C23       1.0  0.22916  0.49926  0.45045  1.0000
  C   C24       1.0  0.77083  0.99925  0.04954  1.0000
  C   C25       1.0  0.71746  0.39659  0.50265  1.0000
  C   C26       1.0  0.28254  0.89659  0.99735  1.0000
  C   C27       1.0  0.28254  0.60341  0.49735  1.0000
  C   C28       1.0  0.71747  0.10341  0.00265  1.0000
  C   C29       1.0  0.68256  0.25640  0.51981  1.0000
  C   C30       1.0  0.31744  0.75640  0.98020  1.0000
  C   C31       1.0  0.31743  0.74360  0.48019  1.0000
  C   C32       1.0  0.68257  0.24359  0.01981  1.0000
  C   C33       1.0  0.63939  0.15955  0.47198  1.0000
  C   C34       1.0  0.36061  0.65956  0.02802  1.0000
  C   C35       1.0  0.36061  0.84045  0.52802  1.0000
  C   C36       1.0  0.63939  0.34045  0.97198  1.0000
  C   C37       1.0  0.62772  0.20320  0.40752  1.0000
  C   C38       1.0  0.37228  0.70320  0.09249  1.0000
  C   C39       1.0  0.37228  0.79680  0.59248  1.0000
  C   C40       1.0  0.62772  0.29679  0.90752  1.0000
  C   C41       1.0  0.70457  0.43154  0.43610  1.0000
  C   C42       1.0  0.29543  0.93154  0.06390  1.0000
  C   C43       1.0  0.29543  0.56846  0.56390  1.0000
  C   C44       1.0  0.70458  0.06846  0.93610  1.0000
  C   C45       1.0  0.74570  0.57343  0.41703  1.0000
  C   C46       1.0  0.25430  0.07343  0.08297  1.0000
  C   C47       1.0  0.25430  0.42657  0.58297  1.0000
  C   C48       1.0  0.74571  0.92657  0.91703  1.0000
  N   N1        1.0  0.73658  0.60694  0.35355  1.0000
  N   N2        1.0  0.26342  0.10694  0.14645  1.0000
  N   N3        1.0  0.26342  0.39306  0.64644  1.0000
  N   N4        1.0  0.73658  0.89306  0.85356  1.0000
  N   N5        1.0  0.65882  0.33485  0.39012  1.0000
  N   N6        1.0  0.34117  0.83486  0.10988  1.0000
  N   N7        1.0  0.34117  0.66515  0.60988  1.0000
  N   N8        1.0  0.65883  0.16515  0.89012  1.0000
  N   N9        1.0  0.30966  0.60675  0.27485  1.0000
  N   N10       1.0  0.69034  0.10675  0.22515  1.0000
  N   N11       1.0  0.69034  0.39325  0.72515  1.0000
  N   N12       1.0  0.30966  0.89325  0.77485  1.0000
  N   N13       1.0  0.76629  0.51568  0.15513  1.0000
  N   N14       1.0  0.23371  0.01567  0.34487  1.0000
  N   N15       1.0  0.23371  0.48433  0.84487  1.0000
  N   N16       1.0  0.76630  0.98433  0.65513  1.0000
  O   O1        1.0  0.34784  0.47593  0.28318  1.0000
  O   O2        1.0  0.65216  0.97593  0.21682  1.0000
  O   O3        1.0  0.65216  0.52406  0.71683  1.0000
  O   O4        1.0  0.34784  0.02406  0.78317  1.0000
  O   O5        1.0  0.16922  0.65983  0.29991  1.0000
  O   O6        1.0  0.83078  0.15983  0.20009  1.0000
  O   O7        1.0  0.83078  0.34017  0.70009  1.0000
  O   O8        1.0  0.16922  0.84017  0.79991  1.0000
  O   O9        1.0  0.41932  0.67856  0.24057  1.0000
  O   O10       1.0  0.58068  0.17856  0.25943  1.0000
  O   O11       1.0  0.58068  0.32144  0.75943  1.0000
  O   O12       1.0  0.41932  0.82144  0.74057  1.0000
  O   O13       1.0  0.63398  0.43037  0.16902  1.0000
  O   O14       1.0  0.36602  0.93037  0.33098  1.0000
  O   O15       1.0  0.36602  0.56963  0.83098  1.0000
  O   O16       1.0  0.63398  0.06963  0.66902  1.0000
  O   O17       1.0  0.87425  0.56468  0.20231  1.0000
  O   O18       1.0  0.12576  0.06468  0.29769  1.0000
  O   O19       1.0  0.12575  0.43533  0.79769  1.0000
  O   O20       1.0  0.87425  0.93532  0.70231  1.0000
  O   O21       1.0  0.79111  0.54978  0.09859  1.0000
  O   O22       1.0  0.20889  0.04978  0.40141  1.0000
  O   O23       1.0  0.20889  0.45022  0.90141  1.0000
  O   O24       1.0  0.79111  0.95023  0.59859  1.0000
  O   O25       1.0  0.01203  0.33852  0.31490  1.0000
  O   O26       1.0  0.98797  0.83852  0.18510  1.0000
  O   O27       1.0  0.98797  0.66148  0.68509  1.0000
  O   O28       1.0  0.01203  0.16148  0.81490  1.0000
