data_image0
_chemical_formula_structural       Sn4H40C40O16
_chemical_formula_sum              "Sn4 H40 C40 O16"
_cell_length_a       7.44618
_cell_length_b       9.81046
_cell_length_c       14.3851
_cell_angle_alpha    90.0015
_cell_angle_beta     89.9996
_cell_angle_gamma    92.8283

_space_group_name_H-M_alt    "P 1"
_space_group_IT_number       1

loop_
  _space_group_symop_operation_xyz
  'x, y, z'

loop_
  _atom_site_type_symbol
  _atom_site_label
  _atom_site_symmetry_multiplicity
  _atom_site_fract_x
  _atom_site_fract_y
  _atom_site_fract_z
  _atom_site_occupancy
  Sn  Sn1       1.0  0.40673  0.84123  0.60010  1.0000
  Sn  Sn2       1.0  0.09325  0.15878  0.10011  1.0000
  Sn  Sn3       1.0  0.59327  0.15880  0.39989  1.0000
  Sn  Sn4       1.0  0.90675  0.84122  0.89990  1.0000
  H   H1        1.0  0.74270  0.83333  0.53365  1.0000
  H   H2        1.0  0.75732  0.16666  0.03364  1.0000
  H   H3        1.0  0.25732  0.16666  0.46635  1.0000
  H   H4        1.0  0.24271  0.83335  0.96634  1.0000
  H   H5        1.0  0.64088  0.66346  0.54116  1.0000
  H   H6        1.0  0.85911  0.33653  0.04115  1.0000
  H   H7        1.0  0.35907  0.33655  0.45885  1.0000
  H   H8        1.0  0.14094  0.66347  0.95884  1.0000
  H   H9        1.0  0.72380  0.74944  0.64493  1.0000
  H   H10       1.0  0.77618  0.25056  0.14493  1.0000
  H   H11       1.0  0.27618  0.25056  0.35507  1.0000
  H   H12       1.0  0.22382  0.74944  0.85506  1.0000
  H   H13       1.0  0.15970  0.00848  0.53748  1.0000
  H   H14       1.0  0.34030  0.99152  0.03748  1.0000
  H   H15       1.0  0.84029  0.99154  0.46253  1.0000
  H   H16       1.0  0.65972  0.00849  0.96252  1.0000
  H   H17       1.0  0.06226  0.89332  0.62316  1.0000
  H   H18       1.0  0.43774  0.10668  0.12317  1.0000
  H   H19       1.0  0.93775  0.10669  0.37684  1.0000
  H   H20       1.0  0.56227  0.89331  0.87684  1.0000
  H   H21       1.0  0.09834  0.83532  0.50585  1.0000
  H   H22       1.0  0.40166  0.16467  0.00585  1.0000
  H   H23       1.0  0.90168  0.16469  0.49415  1.0000
  H   H24       1.0  0.59834  0.83534  0.99416  1.0000
  H   H25       1.0  0.26685  0.52922  0.83477  1.0000
  H   H26       1.0  0.23312  0.47079  0.33481  1.0000
  H   H27       1.0  0.73313  0.47079  0.16521  1.0000
  H   H28       1.0  0.76687  0.52920  0.66519  1.0000
  H   H29       1.0  0.15720  0.31502  0.91097  1.0000
  H   H30       1.0  0.34279  0.68498  0.41099  1.0000
  H   H31       1.0  0.84280  0.68499  0.08902  1.0000
  H   H32       1.0  0.65721  0.31499  0.58902  1.0000
  H   H33       1.0  0.00752  0.14508  0.64445  1.0000
  H   H34       1.0  0.49246  0.85490  0.14446  1.0000
  H   H35       1.0  0.99248  0.85492  0.35554  1.0000
  H   H36       1.0  0.50755  0.14509  0.85555  1.0000
  H   H37       1.0  0.11489  0.36486  0.56786  1.0000
  H   H38       1.0  0.38506  0.63511  0.06788  1.0000
  H   H39       1.0  0.88507  0.63514  0.43213  1.0000
  H   H40       1.0  0.61494  0.36489  0.93213  1.0000
  C   C1        1.0  0.66218  0.76181  0.57645  1.0000
  C   C2        1.0  0.83781  0.23819  0.07644  1.0000
  C   C3        1.0  0.33781  0.23820  0.42356  1.0000
  C   C4        1.0  0.16221  0.76181  0.92355  1.0000
  C   C5        1.0  0.14835  0.90290  0.56152  1.0000
  C   C6        1.0  0.35165  0.09709  0.06152  1.0000
  C   C7        1.0  0.85165  0.09711  0.43849  1.0000
  C   C8        1.0  0.64837  0.90291  0.93849  1.0000
  C   C9        1.0  0.26596  0.58793  0.65080  1.0000
  C   C10       1.0  0.23403  0.41204  0.15083  1.0000
  C   C11       1.0  0.73404  0.41206  0.34918  1.0000
  C   C12       1.0  0.76596  0.58795  0.84918  1.0000
  C   C13       1.0  0.19854  0.45919  0.69670  1.0000
  C   C14       1.0  0.30143  0.54079  0.19672  1.0000
  C   C15       1.0  0.80144  0.54081  0.30329  1.0000
  C   C16       1.0  0.69857  0.45920  0.80329  1.0000
  C   C17       1.0  0.20866  0.44552  0.79341  1.0000
  C   C18       1.0  0.29132  0.55448  0.29343  1.0000
  C   C19       1.0  0.79133  0.55449  0.20658  1.0000
  C   C20       1.0  0.70867  0.44552  0.70657  1.0000
  C   C21       1.0  0.14793  0.32483  0.83586  1.0000
  C   C22       1.0  0.35206  0.67518  0.33588  1.0000
  C   C23       1.0  0.85206  0.67518  0.16413  1.0000
  C   C24       1.0  0.64794  0.32482  0.66413  1.0000
  C   C25       1.0  0.07791  0.21566  0.78192  1.0000
  C   C26       1.0  0.42208  0.78434  0.28193  1.0000
  C   C27       1.0  0.92209  0.78434  0.21808  1.0000
  C   C28       1.0  0.57792  0.21565  0.71808  1.0000
  C   C29       1.0  0.02100  0.08598  0.82851  1.0000
  C   C30       1.0  0.47900  0.91402  0.32853  1.0000
  C   C31       1.0  0.97900  0.91402  0.17149  1.0000
  C   C32       1.0  0.52099  0.08597  0.67149  1.0000
  C   C33       1.0  0.06561  0.22983  0.68511  1.0000
  C   C34       1.0  0.43437  0.77016  0.18512  1.0000
  C   C35       1.0  0.93438  0.77017  0.31489  1.0000
  C   C36       1.0  0.56563  0.22984  0.81489  1.0000
  C   C37       1.0  0.12527  0.35112  0.64273  1.0000
  C   C38       1.0  0.37470  0.64886  0.14275  1.0000
  C   C39       1.0  0.87471  0.64888  0.35726  1.0000
  C   C40       1.0  0.62530  0.35114  0.85725  1.0000
  O   O1        1.0  0.27131  0.59842  0.56341  1.0000
  O   O2        1.0  0.22870  0.40155  0.06344  1.0000
  O   O3        1.0  0.72871  0.40156  0.43657  1.0000
  O   O4        1.0  0.77130  0.59844  0.93657  1.0000
  O   O5        1.0  0.32033  0.68916  0.70436  1.0000
  O   O6        1.0  0.17965  0.31082  0.20439  1.0000
  O   O7        1.0  0.67967  0.31084  0.29562  1.0000
  O   O8        1.0  0.82034  0.68918  0.79562  1.0000
  O   O9        1.0  0.95796  0.98257  0.78058  1.0000
  O   O10       1.0  0.54204  0.01742  0.28059  1.0000
  O   O11       1.0  0.04203  0.01742  0.21943  1.0000
  O   O12       1.0  0.45797  0.98258  0.71943  1.0000
  O   O13       1.0  0.03419  0.07402  0.91646  1.0000
  O   O14       1.0  0.46581  0.92598  0.41647  1.0000
  O   O15       1.0  0.96582  0.92599  0.08354  1.0000
  O   O16       1.0  0.53418  0.07401  0.58354  1.0000
