data_image0
_chemical_formula_structural       Cd6H44C60O32
_chemical_formula_sum              "Cd6 H44 C60 O32"
_cell_length_a       6.67493
_cell_length_b       15.2648
_cell_length_c       19.4782
_cell_angle_alpha    113.008
_cell_angle_beta     90
_cell_angle_gamma    102.629

_space_group_name_H-M_alt    "P 1"
_space_group_IT_number       1

loop_
  _space_group_symop_operation_xyz
  'x, y, z'

loop_
  _atom_site_type_symbol
  _atom_site_label
  _atom_site_symmetry_multiplicity
  _atom_site_fract_x
  _atom_site_fract_y
  _atom_site_fract_z
  _atom_site_occupancy
  Cd  Cd1       1.0  0.53728  0.00004  0.75000  1.0000
  Cd  Cd2       1.0  0.46272  0.99996  0.25000  1.0000
  Cd  Cd3       1.0  0.94372  0.80018  0.64712  1.0000
  Cd  Cd4       1.0  0.14307  0.19972  0.85275  1.0000
  Cd  Cd5       1.0  0.05628  0.19982  0.35288  1.0000
  Cd  Cd6       1.0  0.85693  0.80028  0.14725  1.0000
  H   H1        1.0  0.69746  0.53501  0.41041  1.0000
  H   H2        1.0  0.16269  0.46483  0.08937  1.0000
  H   H3        1.0  0.30254  0.46499  0.58959  1.0000
  H   H4        1.0  0.83731  0.53517  0.91063  1.0000
  H   H5        1.0  0.79449  0.44885  0.59005  1.0000
  H   H6        1.0  0.34615  0.55121  0.90986  1.0000
  H   H7        1.0  0.20551  0.55115  0.40996  1.0000
  H   H8        1.0  0.65385  0.44879  0.09014  1.0000
  H   H9        1.0  0.13708  0.97763  0.63147  1.0000
  H   H10       1.0  0.15991  0.02246  0.86852  1.0000
  H   H11       1.0  0.86292  0.02237  0.36853  1.0000
  H   H12       1.0  0.84009  0.97754  0.13148  1.0000
  H   H13       1.0  0.89607  0.97757  0.63003  1.0000
  H   H14       1.0  0.91883  0.02229  0.86989  1.0000
  H   H15       1.0  0.10393  0.02243  0.36997  1.0000
  H   H16       1.0  0.08117  0.97770  0.13011  1.0000
  H   H17       1.0  0.57124  0.35885  0.32325  1.0000
  H   H18       1.0  0.21289  0.64097  0.17663  1.0000
  H   H19       1.0  0.42876  0.64115  0.67675  1.0000
  H   H20       1.0  0.78711  0.35903  0.82337  1.0000
  H   H21       1.0  0.99288  0.73428  0.75203  1.0000
  H   H22       1.0  0.25853  0.26579  0.74801  1.0000
  H   H23       1.0  0.00712  0.26572  0.24796  1.0000
  H   H24       1.0  0.74147  0.73421  0.25199  1.0000
  H   H25       1.0  0.11389  0.84607  0.79707  1.0000
  H   H26       1.0  0.26754  0.15397  0.70289  1.0000
  H   H27       1.0  0.88611  0.15393  0.20293  1.0000
  H   H28       1.0  0.73246  0.84603  0.29711  1.0000
  H   H29       1.0  0.96929  0.29997  0.56449  1.0000
  H   H30       1.0  0.67055  0.70017  0.93568  1.0000
  H   H31       1.0  0.03071  0.70003  0.43551  1.0000
  H   H32       1.0  0.32945  0.29983  0.06432  1.0000
  H   H33       1.0  0.91466  0.18530  0.63003  1.0000
  H   H34       1.0  0.73080  0.81481  0.87010  1.0000
  H   H35       1.0  0.08534  0.81470  0.36997  1.0000
  H   H36       1.0  0.26920  0.18519  0.12990  1.0000
  H   H37       1.0  0.27759  0.07941  0.53888  1.0000
  H   H38       1.0  0.19923  0.92051  0.96101  1.0000
  H   H39       1.0  0.72241  0.92059  0.46112  1.0000
  H   H40       1.0  0.80076  0.07949  0.03899  1.0000
  H   H41       1.0  0.33270  0.19228  0.47408  1.0000
  H   H42       1.0  0.14135  0.80775  0.02589  1.0000
  H   H43       1.0  0.66730  0.80772  0.52592  1.0000
  H   H44       1.0  0.85865  0.19225  0.97411  1.0000
  C   C1        1.0  0.55624  0.20082  0.35325  1.0000
  C   C2        1.0  0.35589  0.79907  0.14676  1.0000
  C   C3        1.0  0.44376  0.79918  0.64675  1.0000
  C   C4        1.0  0.64411  0.20093  0.85325  1.0000
  C   C5        1.0  0.61652  0.30504  0.40788  1.0000
  C   C6        1.0  0.31212  0.69488  0.09208  1.0000
  C   C7        1.0  0.38348  0.69496  0.59212  1.0000
  C   C8        1.0  0.68788  0.30513  0.90792  1.0000
  C   C9        1.0  0.69323  0.47684  0.42986  1.0000
  C   C10       1.0  0.21678  0.52305  0.06998  1.0000
  C   C11       1.0  0.30677  0.52316  0.57014  1.0000
  C   C12       1.0  0.78322  0.47695  0.93002  1.0000
  C   C13       1.0  0.75739  0.50171  0.50489  1.0000
  C   C14       1.0  0.25597  0.49824  0.99494  1.0000
  C   C15       1.0  0.24261  0.49829  0.49511  1.0000
  C   C16       1.0  0.74403  0.50176  0.00506  1.0000
  C   C17       1.0  0.74859  0.42788  0.53102  1.0000
  C   C18       1.0  0.32125  0.57213  0.96888  1.0000
  C   C19       1.0  0.25141  0.57212  0.46898  1.0000
  C   C20       1.0  0.67875  0.42788  0.03112  1.0000
  C   C21       1.0  0.67779  0.32897  0.48360  1.0000
  C   C22       1.0  0.34962  0.67103  0.01638  1.0000
  C   C23       1.0  0.32221  0.67103  0.51640  1.0000
  C   C24       1.0  0.65038  0.32898  0.98362  1.0000
  C   C25       1.0  0.82885  0.60655  0.55830  1.0000
  C   C26       1.0  0.22236  0.39343  0.94147  1.0000
  C   C27       1.0  0.17114  0.39345  0.44170  1.0000
  C   C28       1.0  0.77764  0.60657  0.05853  1.0000
  C   C29       1.0  0.62226  0.37888  0.38170  1.0000
  C   C30       1.0  0.24390  0.62099  0.11819  1.0000
  C   C31       1.0  0.37774  0.62112  0.61830  1.0000
  C   C32       1.0  0.75610  0.37901  0.88181  1.0000
  C   C33       1.0  0.65456  0.25422  0.51562  1.0000
  C   C34       1.0  0.40140  0.74585  0.98444  1.0000
  C   C35       1.0  0.34544  0.74578  0.48438  1.0000
  C   C36       1.0  0.59860  0.25415  0.01556  1.0000
  C   C37       1.0  0.81844  0.25150  0.55947  1.0000
  C   C38       1.0  0.56818  0.74865  0.94066  1.0000
  C   C39       1.0  0.18157  0.74850  0.44053  1.0000
  C   C40       1.0  0.43182  0.25135  0.05934  1.0000
  C   C41       1.0  0.78906  0.18679  0.59492  1.0000
  C   C42       1.0  0.60357  0.81333  0.90518  1.0000
  C   C43       1.0  0.21095  0.81321  0.40508  1.0000
  C   C44       1.0  0.39643  0.18667  0.09482  1.0000
  C   C45       1.0  0.59294  0.12601  0.58883  1.0000
  C   C46       1.0  0.46803  0.87400  0.91117  1.0000
  C   C47       1.0  0.40706  0.87399  0.41117  1.0000
  C   C48       1.0  0.53197  0.12600  0.08883  1.0000
  C   C49       1.0  0.42964  0.12706  0.54401  1.0000
  C   C50       1.0  0.30367  0.87293  0.95596  1.0000
  C   C51       1.0  0.57036  0.87294  0.45599  1.0000
  C   C52       1.0  0.69633  0.12707  0.04404  1.0000
  C   C53       1.0  0.46147  0.18951  0.50683  1.0000
  C   C54       1.0  0.27299  0.81053  0.99318  1.0000
  C   C55       1.0  0.53854  0.81049  0.49317  1.0000
  C   C56       1.0  0.72701  0.18947  0.00682  1.0000
  C   C57       1.0  0.55518  0.06895  0.63595  1.0000
  C   C58       1.0  0.48691  0.93100  0.86402  1.0000
  C   C59       1.0  0.44482  0.93105  0.36406  1.0000
  C   C60       1.0  0.51309  0.06900  0.13598  1.0000
  O   O1        1.0  0.69261  0.15011  0.33762  1.0000
  O   O2        1.0  0.54288  0.84986  0.16244  1.0000
  O   O3        1.0  0.30738  0.84989  0.66238  1.0000
  O   O4        1.0  0.45712  0.15014  0.83756  1.0000
  O   O5        1.0  0.37431  0.16222  0.32046  1.0000
  O   O6        1.0  0.21243  0.83759  0.17955  1.0000
  O   O7        1.0  0.62569  0.83778  0.67954  1.0000
  O   O8        1.0  0.78757  0.16241  0.82045  1.0000
  O   O9        1.0  0.37951  0.05976  0.66345  1.0000
  O   O10       1.0  0.32023  0.94012  0.83660  1.0000
  O   O11       1.0  0.62049  0.94024  0.33655  1.0000
  O   O12       1.0  0.67977  0.05988  0.16340  1.0000
  O   O13       1.0  0.69680  0.03543  0.65353  1.0000
  O   O14       1.0  0.66186  0.96465  0.84637  1.0000
  O   O15       1.0  0.30320  0.96457  0.34647  1.0000
  O   O16       1.0  0.33814  0.03535  0.15363  1.0000
  O   O17       1.0  0.88027  0.62712  0.62676  1.0000
  O   O18       1.0  0.25325  0.37291  0.87304  1.0000
  O   O19       1.0  0.11973  0.37288  0.37324  1.0000
  O   O20       1.0  0.74676  0.62709  0.12696  1.0000
  O   O21       1.0  0.83425  0.67316  0.53298  1.0000
  O   O22       1.0  0.16087  0.32680  0.96675  1.0000
  O   O23       1.0  0.16575  0.32684  0.46702  1.0000
  O   O24       1.0  0.83912  0.67320  0.03325  1.0000
  O   O25       1.0  0.99572  0.93536  0.61973  1.0000
  O   O26       1.0  0.06059  0.06461  0.88023  1.0000
  O   O27       1.0  0.00428  0.06464  0.38027  1.0000
  O   O28       1.0  0.93941  0.93539  0.11977  1.0000
  O   O29       1.0  0.98108  0.80182  0.76781  1.0000
  O   O30       1.0  0.17904  0.19825  0.73214  1.0000
  O   O31       1.0  0.01892  0.19818  0.23219  1.0000
  O   O32       1.0  0.82096  0.80175  0.26786  1.0000
