data_image0
_chemical_formula_structural       Cd4H32C48N8O16
_chemical_formula_sum              "Cd4 H32 C48 N8 O16"
_cell_length_a       7.82173
_cell_length_b       12.3198
_cell_length_c       12.7701
_cell_angle_alpha    104.838
_cell_angle_beta     90
_cell_angle_gamma    90

_space_group_name_H-M_alt    "P 1"
_space_group_IT_number       1

loop_
  _space_group_symop_operation_xyz
  'x, y, z'

loop_
  _atom_site_type_symbol
  _atom_site_label
  _atom_site_symmetry_multiplicity
  _atom_site_fract_x
  _atom_site_fract_y
  _atom_site_fract_z
  _atom_site_occupancy
  Cd  Cd1       1.0  0.87739  0.16012  0.38507  1.0000
  Cd  Cd2       1.0  0.37739  0.33988  0.11493  1.0000
  Cd  Cd3       1.0  0.12260  0.83988  0.61493  1.0000
  Cd  Cd4       1.0  0.62261  0.66012  0.88507  1.0000
  H   H1        1.0  0.47884  0.12060  0.37964  1.0000
  H   H2        1.0  0.97885  0.37940  0.12036  1.0000
  H   H3        1.0  0.52115  0.87941  0.62036  1.0000
  H   H4        1.0  0.02116  0.62059  0.87964  1.0000
  H   H5        1.0  0.27876  0.16060  0.70109  1.0000
  H   H6        1.0  0.77876  0.33940  0.79891  1.0000
  H   H7        1.0  0.72123  0.83940  0.29891  1.0000
  H   H8        1.0  0.22124  0.66060  0.20109  1.0000
  H   H9        1.0  0.58130  0.17397  0.76973  1.0000
  H   H10       1.0  0.08131  0.32603  0.73027  1.0000
  H   H11       1.0  0.41869  0.82602  0.23027  1.0000
  H   H12       1.0  0.91870  0.67397  0.26973  1.0000
  H   H13       1.0  0.82100  0.15802  0.63370  1.0000
  H   H14       1.0  0.32100  0.34198  0.86630  1.0000
  H   H15       1.0  0.17900  0.84198  0.36630  1.0000
  H   H16       1.0  0.67901  0.65802  0.13370  1.0000
  H   H17       1.0  0.65408  0.86885  0.08880  1.0000
  H   H18       1.0  0.15409  0.63116  0.41121  1.0000
  H   H19       1.0  0.34591  0.13116  0.91120  1.0000
  H   H20       1.0  0.84591  0.36884  0.58880  1.0000
  H   H21       1.0  0.86181  0.15087  0.99188  1.0000
  H   H22       1.0  0.36181  0.34913  0.50812  1.0000
  H   H23       1.0  0.13819  0.84913  0.00812  1.0000
  H   H24       1.0  0.63819  0.65087  0.49188  1.0000
  H   H25       1.0  0.81308  0.04207  0.79598  1.0000
  H   H26       1.0  0.31307  0.45793  0.70402  1.0000
  H   H27       1.0  0.18693  0.95793  0.20402  1.0000
  H   H28       1.0  0.68693  0.54207  0.29598  1.0000
  H   H29       1.0  0.69798  0.84777  0.76029  1.0000
  H   H30       1.0  0.19798  0.65222  0.73971  1.0000
  H   H31       1.0  0.30203  0.15222  0.23971  1.0000
  H   H32       1.0  0.80202  0.34777  0.26029  1.0000
  C   C1        1.0  0.49688  0.13208  0.46635  1.0000
  C   C2        1.0  0.99688  0.36791  0.03365  1.0000
  C   C3        1.0  0.50311  0.86792  0.53365  1.0000
  C   C4        1.0  0.00312  0.63208  0.96635  1.0000
  C   C5        1.0  0.35643  0.14120  0.53557  1.0000
  C   C6        1.0  0.85643  0.35880  0.96443  1.0000
  C   C7        1.0  0.64356  0.85881  0.46443  1.0000
  C   C8        1.0  0.14357  0.64119  0.03557  1.0000
  C   C9        1.0  0.38661  0.15569  0.64627  1.0000
  C   C10       1.0  0.88661  0.34431  0.85373  1.0000
  C   C11       1.0  0.61338  0.84432  0.35373  1.0000
  C   C12       1.0  0.11339  0.65568  0.14627  1.0000
  C   C13       1.0  0.55418  0.16101  0.68371  1.0000
  C   C14       1.0  0.05418  0.33899  0.81629  1.0000
  C   C15       1.0  0.44582  0.83899  0.31629  1.0000
  C   C16       1.0  0.94582  0.66101  0.18371  1.0000
  C   C17       1.0  0.68704  0.15322  0.60956  1.0000
  C   C18       1.0  0.18704  0.34678  0.89044  1.0000
  C   C19       1.0  0.31295  0.84678  0.39044  1.0000
  C   C20       1.0  0.81296  0.65322  0.10956  1.0000
  C   C21       1.0  0.17839  0.14365  0.49312  1.0000
  C   C22       1.0  0.67839  0.35635  0.00688  1.0000
  C   C23       1.0  0.82161  0.85635  0.50688  1.0000
  C   C24       1.0  0.32162  0.64365  0.99312  1.0000
  C   C25       1.0  0.69123  0.90995  0.02620  1.0000
  C   C26       1.0  0.19123  0.59006  0.47380  1.0000
  C   C27       1.0  0.30876  0.09005  0.97380  1.0000
  C   C28       1.0  0.80877  0.40995  0.52620  1.0000
  C   C29       1.0  0.76044  0.01787  0.05412  1.0000
  C   C30       1.0  0.26044  0.48213  0.44588  1.0000
  C   C31       1.0  0.23956  0.98213  0.94588  1.0000
  C   C32       1.0  0.73957  0.51787  0.55412  1.0000
  C   C33       1.0  0.80464  0.06752  0.97079  1.0000
  C   C34       1.0  0.30464  0.43248  0.52921  1.0000
  C   C35       1.0  0.19536  0.93248  0.02921  1.0000
  C   C36       1.0  0.69537  0.56752  0.47079  1.0000
  C   C37       1.0  0.77843  0.00819  0.86383  1.0000
  C   C38       1.0  0.27842  0.49181  0.63617  1.0000
  C   C39       1.0  0.22158  0.99180  0.13617  1.0000
  C   C40       1.0  0.72158  0.50819  0.36383  1.0000
  C   C41       1.0  0.71314  0.89956  0.84268  1.0000
  C   C42       1.0  0.21313  0.60044  0.65732  1.0000
  C   C43       1.0  0.28687  0.10044  0.15731  1.0000
  C   C44       1.0  0.78687  0.39956  0.34269  1.0000
  C   C45       1.0  0.79753  0.07577  0.16998  1.0000
  C   C46       1.0  0.29753  0.42423  0.33002  1.0000
  C   C47       1.0  0.20246  0.92423  0.83001  1.0000
  C   C48       1.0  0.70247  0.57578  0.66999  1.0000
  N   N1        1.0  0.65877  0.13933  0.50280  1.0000
  N   N2        1.0  0.15878  0.36067  0.99720  1.0000
  N   N3        1.0  0.34122  0.86067  0.49720  1.0000
  N   N4        1.0  0.84123  0.63933  0.00279  1.0000
  N   N5        1.0  0.67029  0.85144  0.92258  1.0000
  N   N6        1.0  0.17029  0.64856  0.57742  1.0000
  N   N7        1.0  0.32971  0.14857  0.07742  1.0000
  N   N8        1.0  0.82971  0.35143  0.42258  1.0000
  O   O1        1.0  0.06328  0.19239  0.55799  1.0000
  O   O2        1.0  0.56328  0.30761  0.94201  1.0000
  O   O3        1.0  0.93671  0.80761  0.44201  1.0000
  O   O4        1.0  0.43672  0.69239  0.05799  1.0000
  O   O5        1.0  0.15252  0.09985  0.39185  1.0000
  O   O6        1.0  0.65252  0.40015  0.10815  1.0000
  O   O7        1.0  0.84748  0.90015  0.60815  1.0000
  O   O8        1.0  0.34748  0.59986  0.89185  1.0000
  O   O9        1.0  0.87768  0.16830  0.19092  1.0000
  O   O10       1.0  0.37767  0.33170  0.30908  1.0000
  O   O11       1.0  0.12232  0.83170  0.80908  1.0000
  O   O12       1.0  0.62232  0.66830  0.69092  1.0000
  O   O13       1.0  0.75098  0.02705  0.24291  1.0000
  O   O14       1.0  0.25099  0.47295  0.25709  1.0000
  O   O15       1.0  0.24900  0.97295  0.75709  1.0000
  O   O16       1.0  0.74902  0.52705  0.74291  1.0000
