data_image0
_chemical_formula_structural       Mn2H44C32S4N4O16
_chemical_formula_sum              "Mn2 H44 C32 S4 N4 O16"
_cell_length_a       9.63014
_cell_length_b       9.73896
_cell_length_c       10.3423
_cell_angle_alpha    89.3691
_cell_angle_beta     78.8395
_cell_angle_gamma    87.5968

_space_group_name_H-M_alt    "P 1"
_space_group_IT_number       1

loop_
  _space_group_symop_operation_xyz
  'x, y, z'

loop_
  _atom_site_type_symbol
  _atom_site_label
  _atom_site_symmetry_multiplicity
  _atom_site_fract_x
  _atom_site_fract_y
  _atom_site_fract_z
  _atom_site_occupancy
  Mn  Mn1       1.0  0.49647  0.00356  0.75039  1.0000
  Mn  Mn2       1.0  0.50348  0.99645  0.24965  1.0000
  H   H1        1.0  0.15171  0.86598  0.81699  1.0000
  H   H2        1.0  0.84811  0.13340  0.18218  1.0000
  H   H3        1.0  0.08602  0.03617  0.20802  1.0000
  H   H4        1.0  0.91387  0.96343  0.79103  1.0000
  H   H5        1.0  0.83633  0.86826  0.39514  1.0000
  H   H6        1.0  0.16378  0.13199  0.60579  1.0000
  H   H7        1.0  0.92690  0.23706  0.58143  1.0000
  H   H8        1.0  0.07314  0.76315  0.41957  1.0000
  H   H9        1.0  0.51425  0.37655  0.67609  1.0000
  H   H10       1.0  0.48563  0.62308  0.32369  1.0000
  H   H11       1.0  0.55328  0.36419  0.83476  1.0000
  H   H12       1.0  0.44700  0.63559  0.16487  1.0000
  H   H13       1.0  0.43690  0.61390  0.73649  1.0000
  H   H14       1.0  0.56323  0.38588  0.26338  1.0000
  H   H15       1.0  0.42157  0.57495  0.90582  1.0000
  H   H16       1.0  0.57873  0.42478  0.09402  1.0000
  H   H17       1.0  0.17976  0.57492  0.91251  1.0000
  H   H18       1.0  0.82057  0.42487  0.08764  1.0000
  H   H19       1.0  0.20059  0.55781  0.73879  1.0000
  H   H20       1.0  0.79939  0.44213  0.26136  1.0000
  H   H21       1.0  0.03021  0.33486  0.78625  1.0000
  H   H22       1.0  0.96989  0.66474  0.21378  1.0000
  H   H23       1.0  0.02202  0.35137  0.95821  1.0000
  H   H24       1.0  0.97813  0.64810  0.04185  1.0000
  H   H25       1.0  0.10342  0.20040  0.87447  1.0000
  H   H26       1.0  0.89696  0.79929  0.12540  1.0000
  H   H27       1.0  0.62732  0.67418  0.90265  1.0000
  H   H28       1.0  0.37249  0.32590  0.09742  1.0000
  H   H29       1.0  0.75095  0.80384  0.88154  1.0000
  H   H30       1.0  0.24880  0.19629  0.11853  1.0000
  H   H31       1.0  0.83575  0.52200  0.89656  1.0000
  H   H32       1.0  0.16422  0.47818  0.10348  1.0000
  H   H33       1.0  0.94716  0.64434  0.80434  1.0000
  H   H34       1.0  0.05267  0.35595  0.19574  1.0000
  H   H35       1.0  0.93353  0.50421  0.62216  1.0000
  H   H36       1.0  0.06646  0.49604  0.37788  1.0000
  H   H37       1.0  0.77384  0.43006  0.70416  1.0000
  H   H38       1.0  0.22618  0.57006  0.29582  1.0000
  H   H39       1.0  0.81981  0.61534  0.41932  1.0000
  H   H40       1.0  0.17979  0.38510  0.58063  1.0000
  H   H41       1.0  0.64591  0.69109  0.47438  1.0000
  H   H42       1.0  0.35384  0.30946  0.52592  1.0000
  H   H43       1.0  0.67846  0.50760  0.48478  1.0000
  H   H44       1.0  0.32106  0.49291  0.51518  1.0000
  C   C1        1.0  0.13147  0.94618  0.01392  1.0000
  C   C2        1.0  0.86841  0.05347  0.98518  1.0000
  C   C3        1.0  0.08434  0.92362  0.89664  1.0000
  C   C4        1.0  0.91555  0.07595  0.10246  1.0000
  C   C5        1.0  0.04802  0.02175  0.11676  1.0000
  C   C6        1.0  0.95185  0.97788  0.88231  1.0000
  C   C7        1.0  0.86906  0.05735  0.48728  1.0000
  C   C8        1.0  0.13118  0.94303  0.51331  1.0000
  C   C9        1.0  0.90875  0.92420  0.44172  1.0000
  C   C10       1.0  0.09143  0.07613  0.55903  1.0000
  C   C11       1.0  0.95988  0.13359  0.54593  1.0000
  C   C12       1.0  0.04028  0.86671  0.45488  1.0000
  C   C13       1.0  0.34770  0.29781  0.81767  1.0000
  C   C14       1.0  0.65238  0.70200  0.18245  1.0000
  C   C15       1.0  0.46862  0.39315  0.78107  1.0000
  C   C16       1.0  0.53149  0.60661  0.21875  1.0000
  C   C17       1.0  0.40064  0.53732  0.81226  1.0000
  C   C18       1.0  0.59951  0.46245  0.18760  1.0000
  C   C19       1.0  0.24040  0.52019  0.82594  1.0000
  C   C20       1.0  0.75971  0.47965  0.17410  1.0000
  C   C21       1.0  0.08765  0.31169  0.86655  1.0000
  C   C22       1.0  0.91252  0.68799  0.13344  1.0000
  C   C23       1.0  0.69122  0.73257  0.70338  1.0000
  C   C24       1.0  0.30859  0.26752  0.29666  1.0000
  C   C25       1.0  0.72476  0.70840  0.83864  1.0000
  C   C26       1.0  0.27504  0.29170  0.16143  1.0000
  C   C27       1.0  0.84403  0.59680  0.81613  1.0000
  C   C28       1.0  0.15586  0.40336  0.18389  1.0000
  C   C29       1.0  0.83013  0.52663  0.68680  1.0000
  C   C30       1.0  0.16982  0.47351  0.31318  1.0000
  C   C31       1.0  0.72125  0.60928  0.49313  1.0000
  C   C32       1.0  0.27844  0.39110  0.50692  1.0000
  S   S1        1.0  0.29572  0.86810  0.03636  1.0000
  S   S2        1.0  0.70415  0.13164  0.96306  1.0000
  S   S3        1.0  0.70238  0.13346  0.46724  1.0000
  S   S4        1.0  0.29793  0.86706  0.53328  1.0000
  N   N1        1.0  0.74884  0.62797  0.62401  1.0000
  N   N2        1.0  0.25106  0.37216  0.37601  1.0000
  N   N3        1.0  0.22436  0.37220  0.84157  1.0000
  N   N4        1.0  0.77573  0.62764  0.15843  1.0000
  O   O1        1.0  0.38920  0.86399  0.90516  1.0000
  O   O2        1.0  0.61086  0.13589  0.09438  1.0000
  O   O3        1.0  0.26253  0.73056  0.08847  1.0000
  O   O4        1.0  0.73724  0.26914  0.91080  1.0000
  O   O5        1.0  0.34557  0.95871  0.12971  1.0000
  O   O6        1.0  0.65416  0.04086  0.86998  1.0000
  O   O7        1.0  0.61074  0.13853  0.59961  1.0000
  O   O8        1.0  0.38939  0.86124  0.40082  1.0000
  O   O9        1.0  0.65281  0.03955  0.37679  1.0000
  O   O10       1.0  0.34768  0.96160  0.62303  1.0000
  O   O11       1.0  0.73244  0.27086  0.41420  1.0000
  O   O12       1.0  0.26789  0.72998  0.58717  1.0000
  O   O13       1.0  0.61859  0.82929  0.66592  1.0000
  O   O14       1.0  0.38120  0.17067  0.33404  1.0000
  O   O15       1.0  0.35457  0.16899  0.82474  1.0000
  O   O16       1.0  0.64541  0.83087  0.17571  1.0000
