data_image0
_chemical_formula_structural       CuH22C12S2N6O6
_chemical_formula_sum              "Cu1 H22 C12 S2 N6 O6"
_cell_length_a       6.58
_cell_length_b       6.77405
_cell_length_c       12.2578
_cell_angle_alpha    105.759
_cell_angle_beta     92.8256
_cell_angle_gamma    112.321

_space_group_name_H-M_alt    "P 1"
_space_group_IT_number       1

loop_
  _space_group_symop_operation_xyz
  'x, y, z'

loop_
  _atom_site_type_symbol
  _atom_site_label
  _atom_site_symmetry_multiplicity
  _atom_site_fract_x
  _atom_site_fract_y
  _atom_site_fract_z
  _atom_site_occupancy
  Cu  Cu1       1.0  0.00001  0.50001  0.50000  1.0000
  H   H1        1.0  0.87434  0.57180  0.03154  1.0000
  H   H2        1.0  0.12565  0.42819  0.96846  1.0000
  H   H3        1.0  0.94804  0.33146  0.14134  1.0000
  H   H4        1.0  0.05195  0.66853  0.85866  1.0000
  H   H5        1.0  0.62334  0.05853  0.19578  1.0000
  H   H6        1.0  0.37664  0.94146  0.80422  1.0000
  H   H7        1.0  0.20678  0.83839  0.14875  1.0000
  H   H8        1.0  0.79322  0.16160  0.85125  1.0000
  H   H9        1.0  0.03306  0.94911  0.09140  1.0000
  H   H10       1.0  0.96693  0.05089  0.90860  1.0000
  H   H11       1.0  0.23197  0.85811  0.44168  1.0000
  H   H12       1.0  0.76804  0.14190  0.55832  1.0000
  H   H13       1.0  0.38774  0.83203  0.54287  1.0000
  H   H14       1.0  0.61226  0.16798  0.45713  1.0000
  H   H15       1.0  0.19089  0.92217  0.57665  1.0000
  H   H16       1.0  0.80912  0.07784  0.42336  1.0000
  H   H17       1.0  0.28921  0.34130  0.52228  1.0000
  H   H18       1.0  0.71079  0.65870  0.47772  1.0000
  H   H19       1.0  0.17205  0.34456  0.63873  1.0000
  H   H20       1.0  0.82797  0.65545  0.36127  1.0000
  H   H21       1.0  0.37008  0.57866  0.62913  1.0000
  H   H22       1.0  0.62994  0.42135  0.37087  1.0000
  C   C1        1.0  0.52292  0.42958  0.03173  1.0000
  C   C2        1.0  0.47707  0.57042  0.96827  1.0000
  C   C3        1.0  0.74106  0.45097  0.05848  1.0000
  C   C4        1.0  0.25894  0.54903  0.94152  1.0000
  C   C5        1.0  0.78011  0.31819  0.11841  1.0000
  C   C6        1.0  0.21988  0.68180  0.88159  1.0000
  C   C7        1.0  0.59960  0.16706  0.14974  1.0000
  C   C8        1.0  0.40040  0.83294  0.85026  1.0000
  C   C9        1.0  0.38591  0.15441  0.11908  1.0000
  C   C10       1.0  0.61408  0.84559  0.88092  1.0000
  C   C11       1.0  0.18661  0.99226  0.14962  1.0000
  C   C12       1.0  0.81339  0.00773  0.85038  1.0000
  S   S1        1.0  0.14036  0.10193  0.29326  1.0000
  S   S2        1.0  0.85965  0.89806  0.70674  1.0000
  N   N1        1.0  0.34754  0.28273  0.06137  1.0000
  N   N2        1.0  0.65245  0.71726  0.93862  1.0000
  N   N3        1.0  0.22936  0.81083  0.51449  1.0000
  N   N4        1.0  0.77065  0.18918  0.48551  1.0000
  N   N5        1.0  0.23357  0.43560  0.58401  1.0000
  N   N6        1.0  0.76645  0.56441  0.41599  1.0000
  O   O1        1.0  0.12527  0.31617  0.30368  1.0000
  O   O2        1.0  0.87472  0.68382  0.69632  1.0000
  O   O3        1.0  0.33632  0.13098  0.37204  1.0000
  O   O4        1.0  0.66370  0.86902  0.62795  1.0000
  O   O5        1.0  0.93328  0.92599  0.30537  1.0000
  O   O6        1.0  0.06673  0.07400  0.69464  1.0000
