data_image0
_chemical_formula_structural       Cu2H28C30S2N6O4
_chemical_formula_sum              "Cu2 H28 C30 S2 N6 O4"
_cell_length_a       5.64482
_cell_length_b       5.67242
_cell_length_c       23.5092
_cell_angle_alpha    90.0002
_cell_angle_beta     89.9997
_cell_angle_gamma    99.6115

_space_group_name_H-M_alt    "P 1"
_space_group_IT_number       1

loop_
  _space_group_symop_operation_xyz
  'x, y, z'

loop_
  _atom_site_type_symbol
  _atom_site_label
  _atom_site_symmetry_multiplicity
  _atom_site_fract_x
  _atom_site_fract_y
  _atom_site_fract_z
  _atom_site_occupancy
  Cu  Cu1       1.0  0.39652  0.62718  0.75000  1.0000
  Cu  Cu2       1.0  0.60346  0.37281  0.25000  1.0000
  H   H1        1.0  0.45419  0.25148  0.84070  1.0000
  H   H2        1.0  0.54581  0.74851  0.34070  1.0000
  H   H3        1.0  0.54581  0.74851  0.15930  1.0000
  H   H4        1.0  0.45420  0.25149  0.65930  1.0000
  H   H5        1.0  0.76884  0.20936  0.91414  1.0000
  H   H6        1.0  0.23116  0.79063  0.41414  1.0000
  H   H7        1.0  0.23115  0.79064  0.08586  1.0000
  H   H8        1.0  0.76885  0.20937  0.58586  1.0000
  H   H9        1.0  0.47876  0.70777  0.98336  1.0000
  H   H10       1.0  0.52124  0.29224  0.48336  1.0000
  H   H11       1.0  0.52124  0.29225  0.01664  1.0000
  H   H12       1.0  0.47877  0.70777  0.51665  1.0000
  H   H13       1.0  0.26092  0.89969  0.96854  1.0000
  H   H14       1.0  0.73907  0.10031  0.46854  1.0000
  H   H15       1.0  0.73908  0.10032  0.03146  1.0000
  H   H16       1.0  0.26093  0.89969  0.53147  1.0000
  H   H17       1.0  0.44114  0.81633  0.91318  1.0000
  H   H18       1.0  0.55884  0.18367  0.41319  1.0000
  H   H19       1.0  0.55885  0.18368  0.08681  1.0000
  H   H20       1.0  0.44115  0.81633  0.58682  1.0000
  H   H21       1.0  0.09856  0.93329  0.87453  1.0000
  H   H22       1.0  0.90144  0.06669  0.37453  1.0000
  H   H23       1.0  0.90143  0.06670  0.12547  1.0000
  H   H24       1.0  0.09857  0.93330  0.62548  1.0000
  H   H25       1.0  0.77573  0.94646  0.80409  1.0000
  H   H26       1.0  0.22428  0.05354  0.30409  1.0000
  H   H27       1.0  0.22428  0.05353  0.19591  1.0000
  H   H28       1.0  0.77571  0.94647  0.69591  1.0000
  C   C1        1.0  0.60091  0.39742  0.84983  1.0000
  C   C2        1.0  0.39909  0.60258  0.34983  1.0000
  C   C3        1.0  0.39909  0.60258  0.15017  1.0000
  C   C4        1.0  0.60091  0.39743  0.65017  1.0000
  C   C5        1.0  0.77508  0.37443  0.89012  1.0000
  C   C6        1.0  0.22493  0.62553  0.39012  1.0000
  C   C7        1.0  0.22492  0.62554  0.10988  1.0000
  C   C8        1.0  0.77507  0.37446  0.60988  1.0000
  C   C9        1.0  0.96314  0.56547  0.89955  1.0000
  C   C10       1.0  0.03687  0.43451  0.39955  1.0000
  C   C11       1.0  0.03686  0.43452  0.10045  1.0000
  C   C12       1.0  0.96314  0.56548  0.60045  1.0000
  C   C13       1.0  0.16135  0.53642  0.93988  1.0000
  C   C14       1.0  0.83865  0.46357  0.43988  1.0000
  C   C15       1.0  0.83865  0.46359  0.06012  1.0000
  C   C16       1.0  0.16136  0.53643  0.56012  1.0000
  C   C17       1.0  0.34699  0.75221  0.95270  1.0000
  C   C18       1.0  0.65301  0.24779  0.45270  1.0000
  C   C19       1.0  0.65301  0.24780  0.04730  1.0000
  C   C20       1.0  0.34700  0.75222  0.54730  1.0000
  C   C21       1.0  0.96100  0.77630  0.86872  1.0000
  C   C22       1.0  0.03901  0.22368  0.36872  1.0000
  C   C23       1.0  0.03900  0.22369  0.13128  1.0000
  C   C24       1.0  0.96100  0.77631  0.63128  1.0000
  C   C25       1.0  0.78035  0.78506  0.82907  1.0000
  C   C26       1.0  0.21965  0.21492  0.32907  1.0000
  C   C27       1.0  0.21964  0.21492  0.17094  1.0000
  C   C28       1.0  0.78036  0.78507  0.67094  1.0000
  C   C29       1.0  0.20517  0.10595  0.75000  1.0000
  C   C30       1.0  0.79485  0.89403  0.25000  1.0000
  S   S1        1.0  0.06300  0.33396  0.75000  1.0000
  S   S2        1.0  0.93699  0.66604  0.25000  1.0000
  N   N1        1.0  0.60375  0.59825  0.81869  1.0000
  N   N2        1.0  0.39625  0.40173  0.31869  1.0000
  N   N3        1.0  0.39625  0.40173  0.18131  1.0000
  N   N4        1.0  0.60374  0.59826  0.68131  1.0000
  N   N5        1.0  0.30346  0.93697  0.75000  1.0000
  N   N6        1.0  0.69653  0.06305  0.25000  1.0000
  O   O1        1.0  0.17019  0.33782  0.96067  1.0000
  O   O2        1.0  0.82980  0.66217  0.46067  1.0000
  O   O3        1.0  0.82981  0.66219  0.03933  1.0000
  O   O4        1.0  0.17019  0.33784  0.53933  1.0000
