data_image0
_chemical_formula_structural       Ag8H32C48N16
_chemical_formula_sum              "Ag8 H32 C48 N16"
_cell_length_a       9.07045
_cell_length_b       8.84124
_cell_length_c       16.0063
_cell_angle_alpha    90
_cell_angle_beta     90
_cell_angle_gamma    111.267

_space_group_name_H-M_alt    "P 1"
_space_group_IT_number       1

loop_
  _space_group_symop_operation_xyz
  'x, y, z'

loop_
  _atom_site_type_symbol
  _atom_site_label
  _atom_site_symmetry_multiplicity
  _atom_site_fract_x
  _atom_site_fract_y
  _atom_site_fract_z
  _atom_site_occupancy
  Ag  Ag1       1.0  0.44487  0.22305  0.14104  1.0000
  Ag  Ag2       1.0  0.55512  0.27695  0.64104  1.0000
  Ag  Ag3       1.0  0.55512  0.77694  0.85896  1.0000
  Ag  Ag4       1.0  0.44487  0.72305  0.35896  1.0000
  Ag  Ag5       1.0  0.75486  0.03301  0.39107  1.0000
  Ag  Ag6       1.0  0.24515  0.46699  0.89107  1.0000
  Ag  Ag7       1.0  0.24515  0.96699  0.60893  1.0000
  Ag  Ag8       1.0  0.75485  0.53301  0.10893  1.0000
  H   H1        1.0  0.32912  0.76139  0.19219  1.0000
  H   H2        1.0  0.67088  0.73861  0.69219  1.0000
  H   H3        1.0  0.67088  0.23860  0.80781  1.0000
  H   H4        1.0  0.32912  0.26139  0.30781  1.0000
  H   H5        1.0  0.06539  0.93188  0.38744  1.0000
  H   H6        1.0  0.93461  0.56812  0.88744  1.0000
  H   H7        1.0  0.93461  0.06812  0.61256  1.0000
  H   H8        1.0  0.06539  0.43188  0.11256  1.0000
  H   H9        1.0  0.06252  0.91393  0.00736  1.0000
  H   H10       1.0  0.93748  0.58607  0.50736  1.0000
  H   H11       1.0  0.93748  0.08607  0.99264  1.0000
  H   H12       1.0  0.06252  0.41393  0.49264  1.0000
  H   H13       1.0  0.23422  0.87191  0.28278  1.0000
  H   H14       1.0  0.76578  0.62809  0.78278  1.0000
  H   H15       1.0  0.76578  0.12809  0.71722  1.0000
  H   H16       1.0  0.23423  0.37192  0.21722  1.0000
  H   H17       1.0  0.89906  0.89479  0.09441  1.0000
  H   H18       1.0  0.10094  0.60521  0.59441  1.0000
  H   H19       1.0  0.10094  0.10521  0.90559  1.0000
  H   H20       1.0  0.89906  0.39479  0.40559  1.0000
  H   H21       1.0  0.48100  0.70650  0.07572  1.0000
  H   H22       1.0  0.51901  0.79350  0.57572  1.0000
  H   H23       1.0  0.51901  0.29350  0.92427  1.0000
  H   H24       1.0  0.48099  0.20650  0.42428  1.0000
  H   H25       1.0  0.23011  0.85704  0.89925  1.0000
  H   H26       1.0  0.76989  0.64296  0.39924  1.0000
  H   H27       1.0  0.76989  0.14296  0.10076  1.0000
  H   H28       1.0  0.23011  0.35704  0.60076  1.0000
  H   H29       1.0  0.74799  0.96156  0.20759  1.0000
  H   H30       1.0  0.25201  0.53844  0.70759  1.0000
  H   H31       1.0  0.25201  0.03844  0.79241  1.0000
  H   H32       1.0  0.74799  0.46155  0.29241  1.0000
  C   C1        1.0  0.31455  0.30566  0.06047  1.0000
  C   C2        1.0  0.68545  0.19433  0.56047  1.0000
  C   C3        1.0  0.68546  0.69435  0.93953  1.0000
  C   C4        1.0  0.31455  0.80567  0.43953  1.0000
  C   C5        1.0  0.30172  0.78568  0.12841  1.0000
  C   C6        1.0  0.69828  0.71432  0.62841  1.0000
  C   C7        1.0  0.69828  0.21431  0.87159  1.0000
  C   C8        1.0  0.30172  0.28568  0.37159  1.0000
  C   C9        1.0  0.18036  0.84424  0.11085  1.0000
  C   C10       1.0  0.81964  0.65575  0.61085  1.0000
  C   C11       1.0  0.81964  0.15575  0.88915  1.0000
  C   C12       1.0  0.18036  0.34425  0.38915  1.0000
  C   C13       1.0  0.53307  0.12852  0.23737  1.0000
  C   C14       1.0  0.46694  0.37148  0.73737  1.0000
  C   C15       1.0  0.46692  0.87147  0.76263  1.0000
  C   C16       1.0  0.53307  0.62852  0.26263  1.0000
  C   C17       1.0  0.03291  0.92473  0.32157  1.0000
  C   C18       1.0  0.96709  0.57526  0.82157  1.0000
  C   C19       1.0  0.96709  0.07527  0.67843  1.0000
  C   C20       1.0  0.03291  0.42473  0.17843  1.0000
  C   C21       1.0  0.15440  0.86924  0.02630  1.0000
  C   C22       1.0  0.84560  0.63076  0.52630  1.0000
  C   C23       1.0  0.84560  0.13076  0.97370  1.0000
  C   C24       1.0  0.15440  0.36924  0.47370  1.0000
  C   C25       1.0  0.08424  0.87968  0.17721  1.0000
  C   C26       1.0  0.91576  0.62032  0.67721  1.0000
  C   C27       1.0  0.91576  0.12032  0.82279  1.0000
  C   C28       1.0  0.08424  0.37968  0.32279  1.0000
  C   C29       1.0  0.12723  0.88949  0.26192  1.0000
  C   C30       1.0  0.87277  0.61051  0.76192  1.0000
  C   C31       1.0  0.87277  0.11051  0.73808  1.0000
  C   C32       1.0  0.12723  0.38949  0.23808  1.0000
  C   C33       1.0  0.94419  0.90567  0.15796  1.0000
  C   C34       1.0  0.05581  0.59433  0.65796  1.0000
  C   C35       1.0  0.05581  0.09433  0.84204  1.0000
  C   C36       1.0  0.94419  0.40567  0.34204  1.0000
  C   C37       1.0  0.38855  0.75523  0.06306  1.0000
  C   C38       1.0  0.61145  0.74477  0.56306  1.0000
  C   C39       1.0  0.61145  0.24477  0.93694  1.0000
  C   C40       1.0  0.38855  0.25523  0.43694  1.0000
  C   C41       1.0  0.24785  0.83743  0.96522  1.0000
  C   C42       1.0  0.75215  0.66257  0.46522  1.0000
  C   C43       1.0  0.75215  0.16257  0.03478  1.0000
  C   C44       1.0  0.24785  0.33743  0.53478  1.0000
  C   C45       1.0  0.85744  0.94186  0.22102  1.0000
  C   C46       1.0  0.14256  0.55813  0.72102  1.0000
  C   C47       1.0  0.14256  0.05813  0.77898  1.0000
  C   C48       1.0  0.85744  0.44186  0.27898  1.0000
  N   N1        1.0  0.36316  0.78063  0.98244  1.0000
  N   N2        1.0  0.63684  0.71937  0.48244  1.0000
  N   N3        1.0  0.63684  0.21937  0.01756  1.0000
  N   N4        1.0  0.36316  0.28062  0.51756  1.0000
  N   N5        1.0  0.58695  0.07501  0.29142  1.0000
  N   N6        1.0  0.41305  0.42499  0.79142  1.0000
  N   N7        1.0  0.41305  0.92499  0.70858  1.0000
  N   N8        1.0  0.58695  0.57501  0.20858  1.0000
  N   N9        1.0  0.90010  0.95230  0.30200  1.0000
  N   N10       1.0  0.09990  0.54770  0.80200  1.0000
  N   N11       1.0  0.09990  0.04771  0.69800  1.0000
  N   N12       1.0  0.90010  0.45230  0.19800  1.0000
  N   N13       1.0  0.25966  0.35837  0.00657  1.0000
  N   N14       1.0  0.74034  0.14163  0.50657  1.0000
  N   N15       1.0  0.74034  0.64163  0.99343  1.0000
  N   N16       1.0  0.25965  0.85837  0.49342  1.0000
