data_image0
_chemical_formula_structural       Gd2H50C58N2O12
_chemical_formula_sum              "Gd2 H50 C58 N2 O12"
_cell_length_a       8.06312
_cell_length_b       12.8167
_cell_length_c       12.957
_cell_angle_alpha    94.3646
_cell_angle_beta     92.6346
_cell_angle_gamma    100.916

_space_group_name_H-M_alt    "P 1"
_space_group_IT_number       1

loop_
  _space_group_symop_operation_xyz
  'x, y, z'

loop_
  _atom_site_type_symbol
  _atom_site_label
  _atom_site_symmetry_multiplicity
  _atom_site_fract_x
  _atom_site_fract_y
  _atom_site_fract_z
  _atom_site_occupancy
  Gd  Gd1       1.0  0.23135  0.98000  0.45620  1.0000
  Gd  Gd2       1.0  0.76865  0.02000  0.54380  1.0000
  H   H1        1.0  0.07388  0.38194  0.60959  1.0000
  H   H2        1.0  0.92612  0.61806  0.39041  1.0000
  H   H3        1.0  0.21842  0.21870  0.33706  1.0000
  H   H4        1.0  0.78158  0.78130  0.66294  1.0000
  H   H5        1.0  0.38171  0.39139  0.28631  1.0000
  H   H6        1.0  0.61829  0.60862  0.71369  1.0000
  H   H7        1.0  0.39631  0.55758  0.40037  1.0000
  H   H8        1.0  0.60369  0.44242  0.59963  1.0000
  H   H9        1.0  0.20633  0.23744  0.72229  1.0000
  H   H10       1.0  0.79367  0.76255  0.27772  1.0000
  H   H11       1.0  0.74686  0.27443  0.71837  1.0000
  H   H12       1.0  0.25314  0.72557  0.28163  1.0000
  H   H13       1.0  0.78058  0.43841  0.84178  1.0000
  H   H14       1.0  0.21941  0.56159  0.15822  1.0000
  H   H15       1.0  0.52674  0.50123  0.90434  1.0000
  H   H16       1.0  0.47326  0.49877  0.09566  1.0000
  H   H17       1.0  0.12804  0.78542  0.71266  1.0000
  H   H18       1.0  0.87195  0.21458  0.28734  1.0000
  H   H19       1.0  0.29710  0.68368  0.00242  1.0000
  H   H20       1.0  0.70290  0.31632  0.99758  1.0000
  H   H21       1.0  0.59444  0.74865  0.96340  1.0000
  H   H22       1.0  0.40555  0.25135  0.03660  1.0000
  H   H23       1.0  0.65918  0.83461  0.79875  1.0000
  H   H24       1.0  0.34081  0.16538  0.20125  1.0000
  H   H25       1.0  0.89078  0.01678  0.29947  1.0000
  H   H26       1.0  0.10923  0.98322  0.70053  1.0000
  H   H27       1.0  0.80108  0.03839  0.12050  1.0000
  H   H28       1.0  0.19892  0.96161  0.87950  1.0000
  H   H29       1.0  0.25566  0.93343  0.02483  1.0000
  H   H30       1.0  0.74434  0.06657  0.97517  1.0000
  H   H31       1.0  0.32484  0.91588  0.20932  1.0000
  H   H32       1.0  0.67516  0.08413  0.79068  1.0000
  H   H33       1.0  0.31825  0.65201  0.55120  1.0000
  H   H34       1.0  0.68175  0.34799  0.44880  1.0000
  H   H35       1.0  0.30351  0.57582  0.66033  1.0000
  H   H36       1.0  0.69649  0.42419  0.33967  1.0000
  H   H37       1.0  0.11722  0.59765  0.59482  1.0000
  H   H38       1.0  0.88278  0.40235  0.40518  1.0000
  H   H39       1.0  0.07696  0.35717  0.82502  1.0000
  H   H40       1.0  0.92304  0.64283  0.17498  1.0000
  H   H41       1.0  0.18917  0.49135  0.82973  1.0000
  H   H42       1.0  0.81084  0.50865  0.17027  1.0000
  H   H43       1.0  0.19337  0.41932  0.94061  1.0000
  H   H44       1.0  0.80663  0.58067  0.05939  1.0000
  H   H45       1.0  0.92095  0.69767  0.82023  1.0000
  H   H46       1.0  0.07905  0.30233  0.17977  1.0000
  H   H47       1.0  0.97701  0.73690  0.95414  1.0000
  H   H48       1.0  0.02298  0.26311  0.04586  1.0000
  H   H49       1.0  0.98824  0.60691  0.90239  1.0000
  H   H50       1.0  0.01176  0.39309  0.09761  1.0000
  C   C1        1.0  0.03537  0.19085  0.50725  1.0000
  C   C2        1.0  0.96463  0.80916  0.49275  1.0000
  C   C3        1.0  0.13751  0.29094  0.47649  1.0000
  C   C4        1.0  0.86249  0.70906  0.52351  1.0000
  C   C5        1.0  0.14460  0.38542  0.53979  1.0000
  C   C6        1.0  0.85539  0.61458  0.46021  1.0000
  C   C7        1.0  0.22274  0.29284  0.38465  1.0000
  C   C8        1.0  0.77726  0.70717  0.61535  1.0000
  C   C9        1.0  0.31447  0.38909  0.35747  1.0000
  C   C10       1.0  0.68552  0.61091  0.64253  1.0000
  C   C11       1.0  0.32261  0.48277  0.42180  1.0000
  C   C12       1.0  0.67739  0.51723  0.57820  1.0000
  C   C13       1.0  0.23756  0.48234  0.51387  1.0000
  C   C14       1.0  0.76244  0.51766  0.48613  1.0000
  C   C15       1.0  0.45234  0.14980  0.63900  1.0000
  C   C16       1.0  0.54768  0.85020  0.36100  1.0000
  C   C17       1.0  0.47432  0.24596  0.71526  1.0000
  C   C18       1.0  0.52568  0.75404  0.28474  1.0000
  C   C19       1.0  0.33135  0.28172  0.75068  1.0000
  C   C20       1.0  0.66865  0.71827  0.24932  1.0000
  C   C21       1.0  0.34770  0.37316  0.81936  1.0000
  C   C22       1.0  0.65229  0.62684  0.18064  1.0000
  C   C23       1.0  0.63700  0.30179  0.74873  1.0000
  C   C24       1.0  0.36300  0.69821  0.25128  1.0000
  C   C25       1.0  0.65443  0.39333  0.81701  1.0000
  C   C26       1.0  0.34557  0.60667  0.18299  1.0000
  C   C27       1.0  0.51154  0.42875  0.85190  1.0000
  C   C28       1.0  0.48846  0.57125  0.14810  1.0000
  C   C29       1.0  0.43462  0.86918  0.64845  1.0000
  C   C30       1.0  0.56538  0.13082  0.35154  1.0000
  C   C31       1.0  0.39715  0.81529  0.74624  1.0000
  C   C32       1.0  0.60285  0.18470  0.25376  1.0000
  C   C33       1.0  0.22900  0.77723  0.76864  1.0000
  C   C34       1.0  0.77100  0.22277  0.23136  1.0000
  C   C35       1.0  0.19015  0.72965  0.86041  1.0000
  C   C36       1.0  0.80985  0.27035  0.13959  1.0000
  C   C37       1.0  0.32421  0.72012  0.93008  1.0000
  C   C38       1.0  0.67579  0.27988  0.06992  1.0000
  C   C39       1.0  0.49220  0.75692  0.90824  1.0000
  C   C40       1.0  0.50779  0.24308  0.09176  1.0000
  C   C41       1.0  0.52903  0.80460  0.81652  1.0000
  C   C42       1.0  0.47096  0.19540  0.18348  1.0000
  C   C43       1.0  0.96854  0.99861  0.23655  1.0000
  C   C44       1.0  0.03146  0.00139  0.76345  1.0000
  C   C45       1.0  0.91891  0.01082  0.13472  1.0000
  C   C46       1.0  0.08110  0.98918  0.86528  1.0000
  C   C47       1.0  0.02213  0.99093  0.05418  1.0000
  C   C48       1.0  0.97788  0.00907  0.94582  1.0000
  C   C49       1.0  0.16954  0.95347  0.08213  1.0000
  C   C50       1.0  0.83046  0.04653  0.91787  1.0000
  C   C51       1.0  0.20964  0.94295  0.18581  1.0000
  C   C52       1.0  0.79036  0.05705  0.81419  1.0000
  C   C53       1.0  0.24492  0.58238  0.58343  1.0000
  C   C54       1.0  0.75508  0.41763  0.41657  1.0000
  C   C55       1.0  0.19340  0.41203  0.85549  1.0000
  C   C56       1.0  0.80660  0.58797  0.14451  1.0000
  C   C57       1.0  0.00936  0.69099  0.88514  1.0000
  C   C58       1.0  0.99064  0.30901  0.11486  1.0000
  N   N1        1.0  0.11346  0.96702  0.26308  1.0000
  N   N2        1.0  0.88655  0.03298  0.73693  1.0000
  O   O1        1.0  0.03750  0.10003  0.45550  1.0000
  O   O2        1.0  0.96251  0.89997  0.54450  1.0000
  O   O3        1.0  0.94001  0.19424  0.58205  1.0000
  O   O4        1.0  0.06000  0.80576  0.41795  1.0000
  O   O5        1.0  0.58301  0.11158  0.61893  1.0000
  O   O6        1.0  0.41700  0.88842  0.38108  1.0000
  O   O7        1.0  0.30512  0.11145  0.59820  1.0000
  O   O8        1.0  0.69488  0.88854  0.40180  1.0000
  O   O9        1.0  0.31015  0.88887  0.59492  1.0000
  O   O10       1.0  0.68983  0.11113  0.40508  1.0000
  O   O11       1.0  0.58855  0.89290  0.62621  1.0000
  O   O12       1.0  0.41144  0.10710  0.37379  1.0000
