data_image0
_chemical_formula_structural       Co2H36C46N8O12
_chemical_formula_sum              "Co2 H36 C46 N8 O12"
_cell_length_a       8.07308
_cell_length_b       9.992
_cell_length_c       12.8808
_cell_angle_alpha    96.6769
_cell_angle_beta     100.054
_cell_angle_gamma    92.0267

_space_group_name_H-M_alt    "P 1"
_space_group_IT_number       1

loop_
  _space_group_symop_operation_xyz
  'x, y, z'

loop_
  _atom_site_type_symbol
  _atom_site_label
  _atom_site_symmetry_multiplicity
  _atom_site_fract_x
  _atom_site_fract_y
  _atom_site_fract_z
  _atom_site_occupancy
  Co  Co1       1.0  0.01023  0.19099  0.09775  1.0000
  Co  Co2       1.0  0.98974  0.80903  0.90225  1.0000
  H   H1        1.0  0.99917  0.69349  0.63397  1.0000
  H   H2        1.0  0.00086  0.30655  0.36606  1.0000
  H   H3        1.0  0.79772  0.40748  0.95951  1.0000
  H   H4        1.0  0.20225  0.59250  0.04045  1.0000
  H   H5        1.0  0.65742  0.00601  0.99210  1.0000
  H   H6        1.0  0.34259  0.99399  0.00788  1.0000
  H   H7        1.0  0.41709  0.09862  0.83899  1.0000
  H   H8        1.0  0.58289  0.90135  0.16100  1.0000
  H   H9        1.0  0.56904  0.46429  0.82181  1.0000
  H   H10       1.0  0.43090  0.53570  0.17818  1.0000
  H   H11       1.0  0.37552  0.36743  0.79710  1.0000
  H   H12       1.0  0.62443  0.63252  0.20288  1.0000
  H   H13       1.0  0.38728  0.44986  0.61009  1.0000
  H   H14       1.0  0.61272  0.55013  0.38989  1.0000
  H   H15       1.0  0.42440  0.35899  0.43013  1.0000
  H   H16       1.0  0.57562  0.64102  0.56986  1.0000
  H   H17       1.0  0.73962  0.05866  0.56069  1.0000
  H   H18       1.0  0.26040  0.94135  0.43930  1.0000
  H   H19       1.0  0.70637  0.15171  0.74150  1.0000
  H   H20       1.0  0.29363  0.84830  0.25849  1.0000
  H   H21       1.0  0.73691  0.16465  0.36214  1.0000
  H   H22       1.0  0.26309  0.83536  0.63784  1.0000
  H   H23       1.0  0.59998  0.02672  0.37231  1.0000
  H   H24       1.0  0.40002  0.97329  0.62768  1.0000
  H   H25       1.0  0.25167  0.10514  0.31713  1.0000
  H   H26       1.0  0.74832  0.89494  0.68291  1.0000
  H   H27       1.0  0.36837  0.30095  0.06411  1.0000
  H   H28       1.0  0.63159  0.69895  0.93584  1.0000
  H   H29       1.0  0.66773  0.27125  0.20473  1.0000
  H   H30       1.0  0.33225  0.72866  0.79521  1.0000
  H   H31       1.0  0.96944  0.52929  0.39630  1.0000
  H   H32       1.0  0.03065  0.47074  0.60375  1.0000
  H   H33       1.0  0.91334  0.94512  0.34757  1.0000
  H   H34       1.0  0.08667  0.05490  0.65244  1.0000
  H   H35       1.0  0.94610  0.64645  0.08319  1.0000
  H   H36       1.0  0.05391  0.35354  0.91683  1.0000
  C   C1        1.0  0.72746  0.31101  0.95097  1.0000
  C   C2        1.0  0.27252  0.68897  0.04900  1.0000
  C   C3        1.0  0.64956  0.10417  0.96450  1.0000
  C   C4        1.0  0.35045  0.89581  0.03549  1.0000
  C   C5        1.0  0.53009  0.14810  0.88819  1.0000
  C   C6        1.0  0.46989  0.85188  0.11179  1.0000
  C   C7        1.0  0.51156  0.36131  0.79838  1.0000
  C   C8        1.0  0.48840  0.63866  0.20160  1.0000
  C   C9        1.0  0.54244  0.30651  0.68900  1.0000
  C   C10       1.0  0.45755  0.69348  0.31098  1.0000
  C   C11       1.0  0.46621  0.36452  0.60004  1.0000
  C   C12       1.0  0.53380  0.63548  0.39995  1.0000
  C   C13       1.0  0.48708  0.31283  0.49800  1.0000
  C   C14       1.0  0.51292  0.68718  0.50199  1.0000
  C   C15       1.0  0.58368  0.20104  0.48297  1.0000
  C   C16       1.0  0.41633  0.79897  0.51702  1.0000
  C   C17       1.0  0.66255  0.14486  0.57187  1.0000
  C   C18       1.0  0.33747  0.85515  0.42811  1.0000
  C   C19       1.0  0.64322  0.19755  0.67372  1.0000
  C   C20       1.0  0.35678  0.80244  0.32626  1.0000
  C   C21       1.0  0.60982  0.13727  0.37517  1.0000
  C   C22       1.0  0.39018  0.86274  0.62482  1.0000
  C   C23       1.0  0.32227  0.15246  0.26548  1.0000
  C   C24       1.0  0.67770  0.84757  0.73454  1.0000
  C   C25       1.0  0.38888  0.25750  0.13825  1.0000
  C   C26       1.0  0.61108  0.74245  0.86172  1.0000
  C   C27       1.0  0.53697  0.24357  0.20615  1.0000
  C   C28       1.0  0.46300  0.75637  0.79382  1.0000
  C   C29       1.0  0.96096  0.57237  0.23499  1.0000
  C   C30       1.0  0.03905  0.42763  0.76505  1.0000
  C   C31       1.0  0.95604  0.60614  0.34272  1.0000
  C   C32       1.0  0.04402  0.39389  0.65732  1.0000
  C   C33       1.0  0.93603  0.73972  0.38284  1.0000
  C   C34       1.0  0.06404  0.26030  0.61719  1.0000
  C   C35       1.0  0.92154  0.84045  0.31519  1.0000
  C   C36       1.0  0.07850  0.15957  0.68484  1.0000
  C   C37       1.0  0.92653  0.80716  0.20700  1.0000
  C   C38       1.0  0.07351  0.19285  0.79302  1.0000
  C   C39       1.0  0.94428  0.67287  0.16731  1.0000
  C   C40       1.0  0.05576  0.32713  0.83272  1.0000
  C   C41       1.0  0.98522  0.43121  0.19070  1.0000
  C   C42       1.0  0.01474  0.56880  0.80933  1.0000
  C   C43       1.0  0.93643  0.77512  0.49878  1.0000
  C   C44       1.0  0.06362  0.22491  0.50125  1.0000
  C   C45       1.0  0.92244  0.91291  0.13285  1.0000
  C   C46       1.0  0.07759  0.08710  0.86716  1.0000
  N   N1        1.0  0.77196  0.20642  0.00334  1.0000
  N   N2        1.0  0.22804  0.79357  0.99663  1.0000
  N   N3        1.0  0.58100  0.27989  0.88058  1.0000
  N   N4        1.0  0.41898  0.72009  0.11940  1.0000
  N   N5        1.0  0.49267  0.17661  0.28612  1.0000
  N   N6        1.0  0.50730  0.82338  0.71387  1.0000
  N   N7        1.0  0.25646  0.20047  0.17614  1.0000
  N   N8        1.0  0.74350  0.79954  0.82387  1.0000
  O   O1        1.0  0.03322  0.41076  0.10144  1.0000
  O   O2        1.0  0.96660  0.58922  0.89853  1.0000
  O   O3        1.0  0.95383  0.33089  0.23969  1.0000
  O   O4        1.0  0.04620  0.66912  0.76036  1.0000
  O   O5        1.0  0.99343  0.67553  0.55447  1.0000
  O   O6        1.0  0.00662  0.32452  0.44557  1.0000
  O   O7        1.0  0.89244  0.88301  0.53834  1.0000
  O   O8        1.0  0.10761  0.11703  0.46169  1.0000
  O   O9        1.0  0.93610  0.03655  0.17295  1.0000
  O   O10       1.0  0.06389  0.96346  0.82706  1.0000
  O   O11       1.0  0.90377  0.87328  0.03371  1.0000
  O   O12       1.0  0.09629  0.12671  0.96630  1.0000
