data_image0
_chemical_formula_structural       Cu2H8C6Br2N6
_chemical_formula_sum              "Cu2 H8 C6 Br2 N6"
_cell_length_a       6.219
_cell_length_b       6.42057
_cell_length_c       7.55813
_cell_angle_alpha    83.786
_cell_angle_beta     74.2003
_cell_angle_gamma    85.4766

_space_group_name_H-M_alt    "P 1"
_space_group_IT_number       1

loop_
  _space_group_symop_operation_xyz
  'x, y, z'

loop_
  _atom_site_type_symbol
  _atom_site_label
  _atom_site_symmetry_multiplicity
  _atom_site_fract_x
  _atom_site_fract_y
  _atom_site_fract_z
  _atom_site_occupancy
  Cu  Cu1       1.0  0.53028  0.27146  0.96703  1.0000
  Cu  Cu2       1.0  0.46973  0.72856  0.03296  1.0000
  H   H1        1.0  0.24281  0.35701  0.64987  1.0000
  H   H2        1.0  0.75717  0.64299  0.35014  1.0000
  H   H3        1.0  0.05958  0.73268  0.82676  1.0000
  H   H4        1.0  0.94041  0.26733  0.17325  1.0000
  H   H5        1.0  0.93890  0.23388  0.53098  1.0000
  H   H6        1.0  0.06110  0.76613  0.46902  1.0000
  H   H7        1.0  0.78867  0.01872  0.66330  1.0000
  H   H8        1.0  0.21133  0.98128  0.33670  1.0000
  C   C1        1.0  0.23282  0.20212  0.72378  1.0000
  C   C2        1.0  0.76720  0.79786  0.27620  1.0000
  C   C3        1.0  0.14259  0.87877  0.81237  1.0000
  C   C4        1.0  0.85743  0.12122  0.18763  1.0000
  C   C5        1.0  0.95398  0.06780  0.58027  1.0000
  C   C6        1.0  0.04601  0.93220  0.41972  1.0000
  Br  Br1       1.0  0.27712  0.44580  0.24703  1.0000
  Br  Br2       1.0  0.72288  0.55421  0.75297  1.0000
  N   N1        1.0  0.34248  0.12941  0.84694  1.0000
  N   N2        1.0  0.65752  0.87058  0.15306  1.0000
  N   N3        1.0  0.28610  0.92198  0.90238  1.0000
  N   N4        1.0  0.71389  0.07802  0.09762  1.0000
  N   N5        1.0  0.10503  0.05020  0.69927  1.0000
  N   N6        1.0  0.89496  0.94979  0.30075  1.0000
