data_image0
_chemical_formula_structural       Cu2H8C6N6Cl2
_chemical_formula_sum              "Cu2 H8 C6 N6 Cl2"
_cell_length_a       6.47832
_cell_length_b       6.50561
_cell_length_c       6.88821
_cell_angle_alpha    81.8093
_cell_angle_beta     67.9445
_cell_angle_gamma    86.9118

_space_group_name_H-M_alt    "P 1"
_space_group_IT_number       1

loop_
  _space_group_symop_operation_xyz
  'x, y, z'

loop_
  _atom_site_type_symbol
  _atom_site_label
  _atom_site_symmetry_multiplicity
  _atom_site_fract_x
  _atom_site_fract_y
  _atom_site_fract_z
  _atom_site_occupancy
  Cu  Cu1       1.0  0.51197  0.27226  0.96972  1.0000
  Cu  Cu2       1.0  0.48801  0.72775  0.03031  1.0000
  H   H1        1.0  0.23841  0.35807  0.63468  1.0000
  H   H2        1.0  0.76160  0.64192  0.36530  1.0000
  H   H3        1.0  0.11024  0.71565  0.82315  1.0000
  H   H4        1.0  0.88977  0.28437  0.17684  1.0000
  H   H5        1.0  0.92773  0.21972  0.56142  1.0000
  H   H6        1.0  0.07225  0.78027  0.43859  1.0000
  H   H7        1.0  0.80498  0.98136  0.71556  1.0000
  H   H8        1.0  0.19502  0.01864  0.28445  1.0000
  C   C1        1.0  0.24852  0.19977  0.70521  1.0000
  C   C2        1.0  0.75149  0.80025  0.29478  1.0000
  C   C3        1.0  0.18485  0.86756  0.79870  1.0000
  C   C4        1.0  0.81515  0.13242  0.20129  1.0000
  C   C5        1.0  0.95875  0.05436  0.59871  1.0000
  C   C6        1.0  0.04123  0.94565  0.40129  1.0000
  N   N1        1.0  0.37530  0.12946  0.81309  1.0000
  N   N2        1.0  0.62470  0.87055  0.18690  1.0000
  N   N3        1.0  0.33626  0.91628  0.87043  1.0000
  N   N4        1.0  0.66374  0.08372  0.12955  1.0000
  N   N5        1.0  0.12584  0.04092  0.69463  1.0000
  N   N6        1.0  0.87418  0.95907  0.30537  1.0000
  Cl  Cl1       1.0  0.22441  0.46160  0.21027  1.0000
  Cl  Cl2       1.0  0.77558  0.53841  0.78974  1.0000
