data_image0
_chemical_formula_structural       Zn4H32C32S8N32
_chemical_formula_sum              "Zn4 H32 C32 S8 N32"
_cell_length_a       8.82276
_cell_length_b       8.80333
_cell_length_c       19.4855
_cell_angle_alpha    92.715
_cell_angle_beta     102.475
_cell_angle_gamma    114.925

_space_group_name_H-M_alt    "P 1"
_space_group_IT_number       1

loop_
  _space_group_symop_operation_xyz
  'x, y, z'

loop_
  _atom_site_type_symbol
  _atom_site_label
  _atom_site_symmetry_multiplicity
  _atom_site_fract_x
  _atom_site_fract_y
  _atom_site_fract_z
  _atom_site_occupancy
  Zn  Zn1       1.0  0.65746  0.16273  0.62328  1.0000
  Zn  Zn2       1.0  0.03987  0.03483  0.87668  1.0000
  Zn  Zn3       1.0  0.34254  0.83727  0.37672  1.0000
  Zn  Zn4       1.0  0.96013  0.96517  0.12332  1.0000
  H   H1        1.0  0.75576  0.87598  0.69497  1.0000
  H   H2        1.0  0.68113  0.06063  0.80482  1.0000
  H   H3        1.0  0.24424  0.12402  0.30503  1.0000
  H   H4        1.0  0.31887  0.93937  0.19518  1.0000
  H   H5        1.0  0.91162  0.82399  0.50810  1.0000
  H   H6        1.0  0.81567  0.40331  0.99212  1.0000
  H   H7        1.0  0.08838  0.17601  0.49190  1.0000
  H   H8        1.0  0.18433  0.59669  0.00788  1.0000
  H   H9        1.0  0.75913  0.55243  0.62001  1.0000
  H   H10       1.0  0.43274  0.13873  0.88000  1.0000
  H   H11       1.0  0.24086  0.44757  0.37999  1.0000
  H   H12       1.0  0.56726  0.86127  0.12000  1.0000
  H   H13       1.0  0.91295  0.69570  0.69630  1.0000
  H   H14       1.0  0.49922  0.21602  0.80371  1.0000
  H   H15       1.0  0.08705  0.30430  0.30370  1.0000
  H   H16       1.0  0.50078  0.78398  0.19629  1.0000
  H   H17       1.0  0.02302  0.52696  0.63125  1.0000
  H   H18       1.0  0.39633  0.39203  0.86871  1.0000
  H   H19       1.0  0.97698  0.47304  0.36875  1.0000
  H   H20       1.0  0.60367  0.60797  0.13129  1.0000
  H   H21       1.0  0.99311  0.62263  0.55506  1.0000
  H   H22       1.0  0.56834  0.43880  0.94490  1.0000
  H   H23       1.0  0.00689  0.37737  0.44494  1.0000
  H   H24       1.0  0.43166  0.56121  0.05510  1.0000
  H   H25       1.0  0.24215  0.90979  0.54901  1.0000
  H   H26       1.0  0.86125  0.69372  0.95081  1.0000
  H   H27       1.0  0.75785  0.09020  0.45099  1.0000
  H   H28       1.0  0.13876  0.30628  0.04919  1.0000
  H   H29       1.0  0.26255  0.74199  0.75034  1.0000
  H   H30       1.0  0.49113  0.51198  0.74956  1.0000
  H   H31       1.0  0.73745  0.25802  0.24966  1.0000
  H   H32       1.0  0.50887  0.48802  0.25044  1.0000
  C   C1        1.0  0.78527  0.89782  0.64382  1.0000
  C   C2        1.0  0.75403  0.14139  0.85609  1.0000
  C   C3        1.0  0.21473  0.10218  0.35618  1.0000
  C   C4        1.0  0.24597  0.85862  0.14390  1.0000
  C   C5        1.0  0.86613  0.87007  0.54810  1.0000
  C   C6        1.0  0.82172  0.31780  0.95206  1.0000
  C   C7        1.0  0.13387  0.12993  0.45190  1.0000
  C   C8        1.0  0.17828  0.68220  0.04794  1.0000
  C   C9        1.0  0.88052  0.66943  0.63801  1.0000
  C   C10       1.0  0.53149  0.24216  0.86200  1.0000
  C   C11       1.0  0.11948  0.33056  0.36199  1.0000
  C   C12       1.0  0.46851  0.75784  0.13800  1.0000
  C   C13       1.0  0.02076  0.64251  0.61331  1.0000
  C   C14       1.0  0.52962  0.40773  0.88666  1.0000
  C   C15       1.0  0.97925  0.35749  0.38669  1.0000
  C   C16       1.0  0.47038  0.59227  0.11334  1.0000
  C   C17       1.0  0.28752  0.89748  0.60435  1.0000
  C   C18       1.0  0.79345  0.68362  0.89549  1.0000
  C   C19       1.0  0.71248  0.10252  0.39565  1.0000
  C   C20       1.0  0.20655  0.31638  0.10451  1.0000
  C   C21       1.0  0.30124  0.81472  0.70816  1.0000
  C   C22       1.0  0.60624  0.59306  0.79174  1.0000
  C   C23       1.0  0.69876  0.18528  0.29184  1.0000
  C   C24       1.0  0.39376  0.40694  0.20826  1.0000
  C   C25       1.0  0.62206  0.34606  0.49335  1.0000
  C   C26       1.0  0.35305  0.12892  0.00666  1.0000
  C   C27       1.0  0.37794  0.65394  0.50665  1.0000
  C   C28       1.0  0.64694  0.87107  0.99334  1.0000
  C   C29       1.0  0.91868  0.41520  0.75791  1.0000
  C   C30       1.0  0.15716  0.16094  0.74220  1.0000
  C   C31       1.0  0.08132  0.58480  0.24209  1.0000
  C   C32       1.0  0.84284  0.83906  0.25780  1.0000
  S   S1        1.0  0.62942  0.46037  0.43107  1.0000
  S   S2        1.0  0.52953  0.19838  0.06902  1.0000
  S   S3        1.0  0.37058  0.53963  0.56893  1.0000
  S   S4        1.0  0.47047  0.80162  0.93098  1.0000
  S   S5        1.0  0.07305  0.54264  0.82383  1.0000
  S   S6        1.0  0.21844  0.24880  0.67624  1.0000
  S   S7        1.0  0.92695  0.45736  0.17617  1.0000
  S   S8        1.0  0.78156  0.75120  0.32376  1.0000
  N   N1        1.0  0.76432  0.00754  0.60343  1.0000
  N   N2        1.0  0.90412  0.16116  0.89654  1.0000
  N   N3        1.0  0.23568  0.99246  0.39657  1.0000
  N   N4        1.0  0.09589  0.83884  0.10346  1.0000
  N   N5        1.0  0.81603  0.99142  0.54285  1.0000
  N   N6        1.0  0.94840  0.27335  0.95727  1.0000
  N   N7        1.0  0.18397  0.00858  0.45715  1.0000
  N   N8        1.0  0.05160  0.72665  0.04273  1.0000
  N   N9        1.0  0.85093  0.80959  0.61100  1.0000
  N   N10       1.0  0.69849  0.23963  0.88904  1.0000
  N   N11       1.0  0.14907  0.19041  0.38900  1.0000
  N   N12       1.0  0.30151  0.76037  0.11096  1.0000
  N   N13       1.0  0.19416  0.78229  0.64121  1.0000
  N   N14       1.0  0.64115  0.55322  0.85871  1.0000
  N   N15       1.0  0.80584  0.21772  0.35879  1.0000
  N   N16       1.0  0.35885  0.44677  0.14129  1.0000
  N   N17       1.0  0.44254  0.99468  0.64683  1.0000
  N   N18       1.0  0.84802  0.79600  0.85299  1.0000
  N   N19       1.0  0.55746  0.00532  0.35317  1.0000
  N   N20       1.0  0.15198  0.20400  0.14701  1.0000
  N   N21       1.0  0.45248  0.94307  0.71280  1.0000
  N   N22       1.0  0.73008  0.73969  0.78706  1.0000
  N   N23       1.0  0.54752  0.05693  0.28720  1.0000
  N   N24       1.0  0.26992  0.26031  0.21294  1.0000
  N   N25       1.0  0.61894  0.26203  0.53952  1.0000
  N   N26       1.0  0.22292  0.07978  0.96046  1.0000
  N   N27       1.0  0.38106  0.73797  0.46048  1.0000
  N   N28       1.0  0.77708  0.92021  0.03954  1.0000
  N   N29       1.0  0.80298  0.32227  0.70923  1.0000
  N   N30       1.0  0.11303  0.09415  0.79085  1.0000
  N   N31       1.0  0.19703  0.67773  0.29077  1.0000
  N   N32       1.0  0.88697  0.90585  0.20915  1.0000
