data_image0
_chemical_formula_structural       Cu4H16C16N16
_chemical_formula_sum              "Cu4 H16 C16 N16"
_cell_length_a       5.93007
_cell_length_b       7.75307
_cell_length_c       12.8183
_cell_angle_alpha    90.0004
_cell_angle_beta     89.9994
_cell_angle_gamma    104.24

_space_group_name_H-M_alt    "P 1"
_space_group_IT_number       1

loop_
  _space_group_symop_operation_xyz
  'x, y, z'

loop_
  _atom_site_type_symbol
  _atom_site_label
  _atom_site_symmetry_multiplicity
  _atom_site_fract_x
  _atom_site_fract_y
  _atom_site_fract_z
  _atom_site_occupancy
  Cu  Cu1       1.0  0.96543  0.50065  0.34708  1.0000
  Cu  Cu2       1.0  0.53458  0.99934  0.84708  1.0000
  Cu  Cu3       1.0  0.03458  0.49934  0.65292  1.0000
  Cu  Cu4       1.0  0.46542  0.00066  0.15292  1.0000
  H   H1        1.0  0.56059  0.71265  0.35964  1.0000
  H   H2        1.0  0.93942  0.78735  0.85964  1.0000
  H   H3        1.0  0.43943  0.28735  0.64037  1.0000
  H   H4        1.0  0.06056  0.21265  0.14036  1.0000
  H   H5        1.0  0.70920  0.78628  0.68058  1.0000
  H   H6        1.0  0.79080  0.71373  0.18058  1.0000
  H   H7        1.0  0.29080  0.21373  0.31943  1.0000
  H   H8        1.0  0.20919  0.28626  0.81943  1.0000
  H   H9        1.0  0.40808  0.93351  0.60963  1.0000
  H   H10       1.0  0.09192  0.56649  0.10963  1.0000
  H   H11       1.0  0.59194  0.06650  0.39037  1.0000
  H   H12       1.0  0.90806  0.43350  0.89037  1.0000
  H   H13       1.0  0.27523  0.85004  0.48847  1.0000
  H   H14       1.0  0.22476  0.64996  0.98846  1.0000
  H   H15       1.0  0.72479  0.14997  0.51153  1.0000
  H   H16       1.0  0.77521  0.35003  0.01153  1.0000
  C   C1        1.0  0.63880  0.70293  0.43526  1.0000
  C   C2        1.0  0.86122  0.79706  0.93525  1.0000
  C   C3        1.0  0.36122  0.29708  0.56473  1.0000
  C   C4        1.0  0.13876  0.20293  0.06474  1.0000
  C   C5        1.0  0.71481  0.74037  0.60089  1.0000
  C   C6        1.0  0.78519  0.75963  0.10090  1.0000
  C   C7        1.0  0.28519  0.25963  0.39910  1.0000
  C   C8        1.0  0.21481  0.24037  0.89910  1.0000
  C   C9        1.0  0.44062  0.91245  0.52694  1.0000
  C   C10       1.0  0.05938  0.58755  0.02694  1.0000
  C   C11       1.0  0.55940  0.08756  0.47306  1.0000
  C   C12       1.0  0.94060  0.41243  0.97306  1.0000
  C   C13       1.0  0.78349  0.33856  0.25483  1.0000
  C   C14       1.0  0.71651  0.16142  0.75484  1.0000
  C   C15       1.0  0.21653  0.66145  0.74518  1.0000
  C   C16       1.0  0.28349  0.83856  0.24517  1.0000
  N   N1        1.0  0.78573  0.60582  0.45953  1.0000
  N   N2        1.0  0.71427  0.89419  0.95953  1.0000
  N   N3        1.0  0.21429  0.39418  0.54046  1.0000
  N   N4        1.0  0.28571  0.10582  0.04046  1.0000
  N   N5        1.0  0.83334  0.62884  0.56520  1.0000
  N   N6        1.0  0.66665  0.87117  0.06520  1.0000
  N   N7        1.0  0.16665  0.37116  0.43480  1.0000
  N   N8        1.0  0.33335  0.12884  0.93480  1.0000
  N   N9        1.0  0.59057  0.78952  0.52179  1.0000
  N   N10       1.0  0.90944  0.71048  0.02179  1.0000
  N   N11       1.0  0.40944  0.21048  0.47821  1.0000
  N   N12       1.0  0.09055  0.28951  0.97821  1.0000
  N   N13       1.0  0.67272  0.22122  0.20348  1.0000
  N   N14       1.0  0.82728  0.27879  0.70348  1.0000
  N   N15       1.0  0.32726  0.77878  0.79651  1.0000
  N   N16       1.0  0.17273  0.72120  0.29652  1.0000
