data_image0
_chemical_formula_structural       Fe4H30C24O14
_chemical_formula_sum              "Fe4 H30 C24 O14"
_cell_length_a       5.02201
_cell_length_b       12.0901
_cell_length_c       12.4258
_cell_angle_alpha    118.766
_cell_angle_beta     93.9706
_cell_angle_gamma    90.9629

_space_group_name_H-M_alt    "P 1"
_space_group_IT_number       1

loop_
  _space_group_symop_operation_xyz
  'x, y, z'

loop_
  _atom_site_type_symbol
  _atom_site_label
  _atom_site_symmetry_multiplicity
  _atom_site_fract_x
  _atom_site_fract_y
  _atom_site_fract_z
  _atom_site_occupancy
  Fe  Fe1       1.0  0.45734  0.00148  0.38121  1.0000
  Fe  Fe2       1.0  0.55439  0.00752  0.62741  1.0000
  Fe  Fe3       1.0  0.96422  0.85750  0.39188  1.0000
  Fe  Fe4       1.0  0.03391  0.13443  0.60575  1.0000
  H   H1        1.0  0.23285  0.02988  0.15017  1.0000
  H   H2        1.0  0.76713  0.96946  0.84932  1.0000
  H   H3        1.0  0.66642  0.08141  0.08139  1.0000
  H   H4        1.0  0.33242  0.91782  0.91901  1.0000
  H   H5        1.0  0.90478  0.19589  0.19121  1.0000
  H   H6        1.0  0.09426  0.80335  0.80896  1.0000
  H   H7        1.0  0.10355  0.80502  0.01235  1.0000
  H   H8        1.0  0.89528  0.19435  0.98790  1.0000
  H   H9        1.0  0.78688  0.84317  0.97118  1.0000
  H   H10       1.0  0.21187  0.15625  0.02910  1.0000
  H   H11       1.0  0.70925  0.58497  0.16571  1.0000
  H   H12       1.0  0.29201  0.41351  0.83316  1.0000
  H   H13       1.0  0.32148  0.44447  0.15219  1.0000
  H   H14       1.0  0.67971  0.55427  0.84698  1.0000
  H   H15       1.0  0.13387  0.48640  0.05370  1.0000
  H   H16       1.0  0.86732  0.51239  0.94555  1.0000
  H   H17       1.0  0.34770  0.65285  0.00042  1.0000
  H   H18       1.0  0.65324  0.34584  0.99872  1.0000
  H   H19       1.0  0.67205  0.71951  0.06891  1.0000
  H   H20       1.0  0.32868  0.27924  0.93036  1.0000
  H   H21       1.0  0.12301  0.42227  0.46070  1.0000
  H   H22       1.0  0.87346  0.58084  0.54141  1.0000
  H   H23       1.0  0.69295  0.34432  0.39818  1.0000
  H   H24       1.0  0.30345  0.65814  0.60403  1.0000
  H   H25       1.0  0.41929  0.31480  0.28983  1.0000
  H   H26       1.0  0.57787  0.68760  0.71220  1.0000
  H   H27       1.0  0.29358  0.49793  0.67664  1.0000
  H   H28       1.0  0.70463  0.50420  0.32555  1.0000
  H   H29       1.0  0.62074  0.45584  0.63210  1.0000
  H   H30       1.0  0.37682  0.54625  0.36906  1.0000
  C   C1        1.0  0.90275  0.97710  0.21622  1.0000
  C   C2        1.0  0.10138  0.02092  0.78418  1.0000
  C   C3        1.0  0.01905  0.00257  0.12056  1.0000
  C   C4        1.0  0.98069  0.99675  0.87949  1.0000
  C   C5        1.0  0.88245  0.10618  0.10392  1.0000
  C   C6        1.0  0.11647  0.89298  0.89629  1.0000
  C   C7        1.0  0.99902  0.87674  0.99813  1.0000
  C   C8        1.0  0.99984  0.12261  0.00207  1.0000
  C   C9        1.0  0.39411  0.70690  0.23685  1.0000
  C   C10       1.0  0.60692  0.29158  0.76241  1.0000
  C   C11       1.0  0.50784  0.59537  0.13144  1.0000
  C   C12       1.0  0.49333  0.40317  0.86757  1.0000
  C   C13       1.0  0.33825  0.47189  0.08030  1.0000
  C   C14       1.0  0.66289  0.52676  0.91880  1.0000
  C   C15       1.0  0.54434  0.63216  0.02990  1.0000
  C   C16       1.0  0.45658  0.36649  0.96924  1.0000
  C   C17       1.0  0.26701  0.26635  0.47680  1.0000
  C   C18       1.0  0.72930  0.73610  0.52477  1.0000
  C   C19       1.0  0.31902  0.39184  0.47901  1.0000
  C   C20       1.0  0.67712  0.61096  0.52305  1.0000
  C   C21       1.0  0.50561  0.38297  0.38323  1.0000
  C   C22       1.0  0.49103  0.61957  0.61884  1.0000
  C   C23       1.0  0.43428  0.49050  0.60975  1.0000
  C   C24       1.0  0.56284  0.51189  0.39215  1.0000
  O   O1        1.0  0.65570  0.98805  0.22978  1.0000
  O   O2        1.0  0.34828  0.01187  0.77287  1.0000
  O   O3        1.0  0.06309  0.93794  0.27455  1.0000
  O   O4        1.0  0.94296  0.05708  0.72175  1.0000
  O   O5        1.0  0.14918  0.70467  0.25432  1.0000
  O   O6        1.0  0.85141  0.29191  0.74481  1.0000
  O   O7        1.0  0.55571  0.80446  0.30101  1.0000
  O   O8        1.0  0.44332  0.19402  0.69778  1.0000
  O   O9        1.0  0.08465  0.25932  0.53961  1.0000
  O   O10       1.0  0.91815  0.74201  0.46369  1.0000
  O   O11       1.0  0.41614  0.17764  0.41365  1.0000
  O   O12       1.0  0.57848  0.82507  0.58348  1.0000
  O   O13       1.0  0.75557  0.01527  0.48656  1.0000
  O   O14       1.0  0.24887  0.98717  0.49897  1.0000
