data_image0
_chemical_formula_structural       Sb4H64C32S8Br12N16
_chemical_formula_sum              "Sb4 H64 C32 S8 Br12 N16"
_cell_length_a       8.70309
_cell_length_b       9.57248
_cell_length_c       20.7721
_cell_angle_alpha    90
_cell_angle_beta     90
_cell_angle_gamma    107.817

_space_group_name_H-M_alt    "P 1"
_space_group_IT_number       1

loop_
  _space_group_symop_operation_xyz
  'x, y, z'

loop_
  _atom_site_type_symbol
  _atom_site_label
  _atom_site_symmetry_multiplicity
  _atom_site_fract_x
  _atom_site_fract_y
  _atom_site_fract_z
  _atom_site_occupancy
  Sb  Sb1       1.0  0.18158  0.94967  0.16816  1.0000
  Sb  Sb2       1.0  0.31843  0.05035  0.66816  1.0000
  Sb  Sb3       1.0  0.81843  0.05034  0.83184  1.0000
  Sb  Sb4       1.0  0.68157  0.94966  0.33184  1.0000
  H   H1        1.0  0.92203  0.62801  0.47267  1.0000
  H   H2        1.0  0.57796  0.37198  0.97267  1.0000
  H   H3        1.0  0.07794  0.37198  0.52733  1.0000
  H   H4        1.0  0.42205  0.62802  0.02733  1.0000
  H   H5        1.0  0.13202  0.66683  0.45833  1.0000
  H   H6        1.0  0.36797  0.33316  0.95832  1.0000
  H   H7        1.0  0.86796  0.33316  0.54168  1.0000
  H   H8        1.0  0.63203  0.66684  0.04168  1.0000
  H   H9        1.0  0.00220  0.40969  0.42620  1.0000
  H   H10       1.0  0.49780  0.59030  0.92620  1.0000
  H   H11       1.0  0.99779  0.59030  0.57380  1.0000
  H   H12       1.0  0.50221  0.40970  0.07380  1.0000
  H   H13       1.0  0.85141  0.45688  0.38231  1.0000
  H   H14       1.0  0.64859  0.54310  0.88231  1.0000
  H   H15       1.0  0.14859  0.54311  0.61768  1.0000
  H   H16       1.0  0.35142  0.45690  0.11769  1.0000
  H   H17       1.0  0.21207  0.54566  0.34793  1.0000
  H   H18       1.0  0.28794  0.45433  0.84793  1.0000
  H   H19       1.0  0.78794  0.45433  0.65207  1.0000
  H   H20       1.0  0.71206  0.54567  0.15207  1.0000
  H   H21       1.0  0.04787  0.42481  0.30454  1.0000
  H   H22       1.0  0.45214  0.57518  0.80454  1.0000
  H   H23       1.0  0.95214  0.57518  0.69546  1.0000
  H   H24       1.0  0.54786  0.42483  0.19546  1.0000
  H   H25       1.0  0.84184  0.34344  0.15115  1.0000
  H   H26       1.0  0.65816  0.65656  0.65115  1.0000
  H   H27       1.0  0.15816  0.65656  0.84885  1.0000
  H   H28       1.0  0.34183  0.34344  0.34885  1.0000
  H   H29       1.0  0.64457  0.25358  0.12060  1.0000
  H   H30       1.0  0.85543  0.74642  0.62060  1.0000
  H   H31       1.0  0.35542  0.74642  0.87940  1.0000
  H   H32       1.0  0.14457  0.25357  0.37940  1.0000
  H   H33       1.0  0.74757  0.25084  0.01123  1.0000
  H   H34       1.0  0.75244  0.74916  0.51123  1.0000
  H   H35       1.0  0.25244  0.74917  0.98877  1.0000
  H   H36       1.0  0.24755  0.25083  0.48877  1.0000
  H   H37       1.0  0.83402  0.43312  0.04115  1.0000
  H   H38       1.0  0.66599  0.56687  0.54115  1.0000
  H   H39       1.0  0.16599  0.56688  0.95885  1.0000
  H   H40       1.0  0.33400  0.43312  0.45885  1.0000
  H   H41       1.0  0.03061  0.32277  0.98387  1.0000
  H   H42       1.0  0.46939  0.67722  0.48387  1.0000
  H   H43       1.0  0.96939  0.67722  0.01613  1.0000
  H   H44       1.0  0.53060  0.32278  0.51613  1.0000
  H   H45       1.0  0.08956  0.38779  0.06405  1.0000
  H   H46       1.0  0.41044  0.61220  0.56405  1.0000
  H   H47       1.0  0.91044  0.61220  0.93595  1.0000
  H   H48       1.0  0.58955  0.38780  0.43595  1.0000
  H   H49       1.0  0.97997  0.84576  0.41190  1.0000
  H   H50       1.0  0.52002  0.15422  0.91190  1.0000
  H   H51       1.0  0.02003  0.15422  0.58810  1.0000
  H   H52       1.0  0.47998  0.84578  0.08810  1.0000
  H   H53       1.0  0.06757  0.64460  0.25100  1.0000
  H   H54       1.0  0.43243  0.35539  0.75100  1.0000
  H   H55       1.0  0.93244  0.35539  0.74899  1.0000
  H   H56       1.0  0.56757  0.64462  0.24900  1.0000
  H   H57       1.0  0.71827  0.05368  0.15846  1.0000
  H   H58       1.0  0.78173  0.94632  0.65846  1.0000
  H   H59       1.0  0.28172  0.94632  0.84154  1.0000
  H   H60       1.0  0.21828  0.05368  0.34154  1.0000
  H   H61       1.0  0.08626  0.11868  0.03237  1.0000
  H   H62       1.0  0.41374  0.88130  0.53236  1.0000
  H   H63       1.0  0.91374  0.88131  0.96764  1.0000
  H   H64       1.0  0.58626  0.11870  0.46764  1.0000
  C   C1        1.0  0.02533  0.75587  0.32872  1.0000
  C   C2        1.0  0.47467  0.24412  0.82872  1.0000
  C   C3        1.0  0.97469  0.24411  0.67127  1.0000
  C   C4        1.0  0.52533  0.75588  0.17128  1.0000
  C   C5        1.0  0.01273  0.63779  0.43484  1.0000
  C   C6        1.0  0.48727  0.36220  0.93484  1.0000
  C   C7        1.0  0.98726  0.36219  0.56516  1.0000
  C   C8        1.0  0.51274  0.63781  0.06516  1.0000
  C   C9        1.0  0.97895  0.49593  0.39662  1.0000
  C   C10       1.0  0.52104  0.50406  0.89662  1.0000
  C   C11       1.0  0.02104  0.50406  0.60338  1.0000
  C   C12       1.0  0.47896  0.49594  0.10338  1.0000
  C   C13       1.0  0.08287  0.52140  0.33616  1.0000
  C   C14       1.0  0.41713  0.47859  0.83616  1.0000
  C   C15       1.0  0.91713  0.47860  0.66384  1.0000
  C   C16       1.0  0.58287  0.52141  0.16384  1.0000
  C   C17       1.0  0.90205  0.07558  0.09539  1.0000
  C   C18       1.0  0.59795  0.92442  0.59539  1.0000
  C   C19       1.0  0.09795  0.92442  0.90461  1.0000
  C   C20       1.0  0.40205  0.07558  0.40461  1.0000
  C   C21       1.0  0.77334  0.26618  0.11449  1.0000
  C   C22       1.0  0.72666  0.73382  0.61449  1.0000
  C   C23       1.0  0.22666  0.73383  0.88551  1.0000
  C   C24       1.0  0.27334  0.26617  0.38551  1.0000
  C   C25       1.0  0.83093  0.31846  0.04694  1.0000
  C   C26       1.0  0.66907  0.68154  0.54693  1.0000
  C   C27       1.0  0.16907  0.68154  0.95307  1.0000
  C   C28       1.0  0.33092  0.31846  0.45307  1.0000
  C   C29       1.0  0.99913  0.30608  0.03513  1.0000
  C   C30       1.0  0.50086  0.69391  0.53513  1.0000
  C   C31       1.0  0.00086  0.69391  0.96487  1.0000
  C   C32       1.0  0.49913  0.30609  0.46487  1.0000
  S   S1        1.0  0.00756  0.90413  0.28476  1.0000
  S   S2        1.0  0.49243  0.09585  0.78475  1.0000
  S   S3        1.0  0.99244  0.09586  0.71524  1.0000
  S   S4        1.0  0.50757  0.90415  0.21524  1.0000
  S   S5        1.0  0.90976  0.89834  0.11043  1.0000
  S   S6        1.0  0.59024  0.10166  0.61043  1.0000
  S   S7        1.0  0.09023  0.10167  0.88957  1.0000
  S   S8        1.0  0.40977  0.89834  0.38957  1.0000
  Br  Br1       1.0  0.18585  0.22338  0.20480  1.0000
  Br  Br2       1.0  0.31413  0.77663  0.70479  1.0000
  Br  Br3       1.0  0.81414  0.77663  0.79521  1.0000
  Br  Br4       1.0  0.68585  0.22338  0.29520  1.0000
  Br  Br5       1.0  0.08634  0.63974  0.14105  1.0000
  Br  Br6       1.0  0.41367  0.36029  0.64106  1.0000
  Br  Br7       1.0  0.91368  0.36029  0.85894  1.0000
  Br  Br8       1.0  0.58633  0.63973  0.35894  1.0000
  Br  Br9       1.0  0.35068  0.04677  0.05417  1.0000
  Br  Br10      1.0  0.14934  0.95330  0.55416  1.0000
  Br  Br11      1.0  0.64934  0.95330  0.94584  1.0000
  Br  Br12      1.0  0.85066  0.04670  0.44584  1.0000
  N   N1        1.0  0.00689  0.75786  0.39257  1.0000
  N   N2        1.0  0.49310  0.24213  0.89258  1.0000
  N   N3        1.0  0.99310  0.24214  0.60743  1.0000
  N   N4        1.0  0.50690  0.75787  0.10742  1.0000
  N   N5        1.0  0.05942  0.64457  0.30042  1.0000
  N   N6        1.0  0.44058  0.35542  0.80042  1.0000
  N   N7        1.0  0.94058  0.35543  0.69959  1.0000
  N   N8        1.0  0.55942  0.64458  0.19958  1.0000
  N   N9        1.0  0.79330  0.12240  0.12571  1.0000
  N   N10       1.0  0.70669  0.87760  0.62571  1.0000
  N   N11       1.0  0.20669  0.87760  0.87429  1.0000
  N   N12       1.0  0.29332  0.12240  0.37429  1.0000
  N   N13       1.0  0.00095  0.15883  0.05209  1.0000
  N   N14       1.0  0.49905  0.84116  0.55209  1.0000
  N   N15       1.0  0.99904  0.84117  0.94792  1.0000
  N   N16       1.0  0.50096  0.15884  0.44792  1.0000
