data_image0
_chemical_formula_structural       Sb4H40C24S16Br12N8
_chemical_formula_sum              "Sb4 H40 C24 S16 Br12 N8"
_cell_length_a       8.5211
_cell_length_b       12.295
_cell_length_c       14.8824
_cell_angle_alpha    90
_cell_angle_beta     90
_cell_angle_gamma    100.363

_space_group_name_H-M_alt    "P 1"
_space_group_IT_number       1

loop_
  _space_group_symop_operation_xyz
  'x, y, z'

loop_
  _atom_site_type_symbol
  _atom_site_label
  _atom_site_symmetry_multiplicity
  _atom_site_fract_x
  _atom_site_fract_y
  _atom_site_fract_z
  _atom_site_occupancy
  Sb  Sb1       1.0  0.25030  0.21293  0.76394  1.0000
  Sb  Sb2       1.0  0.74970  0.28706  0.26394  1.0000
  Sb  Sb3       1.0  0.74968  0.78708  0.23606  1.0000
  Sb  Sb4       1.0  0.25031  0.71293  0.73607  1.0000
  H   H1        1.0  0.69591  0.99707  0.82302  1.0000
  H   H2        1.0  0.30410  0.50295  0.32302  1.0000
  H   H3        1.0  0.30412  0.00294  0.17697  1.0000
  H   H4        1.0  0.69591  0.49706  0.67697  1.0000
  H   H5        1.0  0.73269  0.88018  0.88645  1.0000
  H   H6        1.0  0.26729  0.61983  0.38645  1.0000
  H   H7        1.0  0.26732  0.11982  0.11355  1.0000
  H   H8        1.0  0.73270  0.38018  0.61354  1.0000
  H   H9        1.0  0.59638  0.04609  0.96375  1.0000
  H   H10       1.0  0.40364  0.45391  0.46374  1.0000
  H   H11       1.0  0.40364  0.95390  0.03625  1.0000
  H   H12       1.0  0.59638  0.54610  0.53625  1.0000
  H   H13       1.0  0.72569  0.97502  0.02753  1.0000
  H   H14       1.0  0.27432  0.52498  0.52752  1.0000
  H   H15       1.0  0.27433  0.02498  0.97247  1.0000
  H   H16       1.0  0.72569  0.47503  0.47247  1.0000
  H   H17       1.0  0.84014  0.88313  0.54556  1.0000
  H   H18       1.0  0.15984  0.61687  0.04555  1.0000
  H   H19       1.0  0.15984  0.11686  0.45446  1.0000
  H   H20       1.0  0.84015  0.38313  0.95445  1.0000
  H   H21       1.0  0.79778  0.88326  0.66338  1.0000
  H   H22       1.0  0.20221  0.61673  0.16337  1.0000
  H   H23       1.0  0.20219  0.11673  0.33664  1.0000
  H   H24       1.0  0.79779  0.38327  0.83662  1.0000
  H   H25       1.0  0.68089  0.02058  0.51228  1.0000
  H   H26       1.0  0.31909  0.47940  0.01228  1.0000
  H   H27       1.0  0.31910  0.97941  0.48772  1.0000
  H   H28       1.0  0.68090  0.52059  0.98773  1.0000
  H   H29       1.0  0.56899  0.95268  0.60491  1.0000
  H   H30       1.0  0.43099  0.54731  0.10490  1.0000
  H   H31       1.0  0.43099  0.04731  0.39510  1.0000
  H   H32       1.0  0.56901  0.45268  0.89510  1.0000
  H   H33       1.0  0.80836  0.19117  0.01669  1.0000
  H   H34       1.0  0.19166  0.30884  0.51668  1.0000
  H   H35       1.0  0.19165  0.80884  0.98332  1.0000
  H   H36       1.0  0.80836  0.69117  0.48331  1.0000
  H   H37       1.0  0.64149  0.14828  0.65092  1.0000
  H   H38       1.0  0.35849  0.35172  0.15092  1.0000
  H   H39       1.0  0.35850  0.85173  0.34907  1.0000
  H   H40       1.0  0.64149  0.64827  0.84908  1.0000
  C   C1        1.0  0.96840  0.13546  0.93083  1.0000
  C   C2        1.0  0.03161  0.36454  0.43084  1.0000
  C   C3        1.0  0.03161  0.86455  0.06916  1.0000
  C   C4        1.0  0.96840  0.63546  0.56916  1.0000
  C   C5        1.0  0.75746  0.97046  0.88164  1.0000
  C   C6        1.0  0.24255  0.52955  0.38163  1.0000
  C   C7        1.0  0.24256  0.02955  0.11836  1.0000
  C   C8        1.0  0.75746  0.47046  0.61835  1.0000
  C   C9        1.0  0.71661  0.02652  0.96781  1.0000
  C   C10       1.0  0.28340  0.47349  0.46781  1.0000
  C   C11       1.0  0.28341  0.97349  0.03219  1.0000
  C   C12       1.0  0.71661  0.52652  0.53218  1.0000
  C   C13       1.0  0.87993  0.13630  0.65301  1.0000
  C   C14       1.0  0.12005  0.36370  0.15301  1.0000
  C   C15       1.0  0.12005  0.86370  0.34700  1.0000
  C   C16       1.0  0.87993  0.63631  0.84699  1.0000
  C   C17       1.0  0.81865  0.93445  0.60267  1.0000
  C   C18       1.0  0.18133  0.56554  0.10266  1.0000
  C   C19       1.0  0.18132  0.06554  0.39735  1.0000
  C   C20       1.0  0.81867  0.43446  0.89735  1.0000
  C   C21       1.0  0.68546  0.99918  0.58410  1.0000
  C   C22       1.0  0.31453  0.50081  0.08410  1.0000
  C   C23       1.0  0.31453  0.00081  0.41590  1.0000
  C   C24       1.0  0.68547  0.49919  0.91590  1.0000
  S   S1        1.0  0.97208  0.01710  0.86732  1.0000
  S   S2        1.0  0.02792  0.48291  0.36732  1.0000
  S   S3        1.0  0.02794  0.98292  0.13268  1.0000
  S   S4        1.0  0.97208  0.51710  0.63268  1.0000
  S   S5        1.0  0.12518  0.24105  0.93592  1.0000
  S   S6        1.0  0.87483  0.25896  0.43594  1.0000
  S   S7        1.0  0.87483  0.75896  0.06407  1.0000
  S   S8        1.0  0.12520  0.74105  0.56407  1.0000
  S   S9        1.0  0.99550  0.04061  0.61927  1.0000
  S   S10       1.0  0.00449  0.45938  0.11927  1.0000
  S   S11       1.0  0.00449  0.95938  0.38074  1.0000
  S   S12       1.0  0.99550  0.54062  0.88073  1.0000
  S   S13       1.0  0.95917  0.25964  0.69835  1.0000
  S   S14       1.0  0.04082  0.24036  0.19835  1.0000
  S   S15       1.0  0.04082  0.74036  0.30164  1.0000
  S   S16       1.0  0.95917  0.75963  0.80165  1.0000
  Br  Br1       1.0  0.32130  0.42653  0.76698  1.0000
  Br  Br2       1.0  0.67868  0.07345  0.26695  1.0000
  Br  Br3       1.0  0.67870  0.57347  0.23303  1.0000
  Br  Br4       1.0  0.32131  0.92653  0.73302  1.0000
  Br  Br5       1.0  0.53541  0.20099  0.83612  1.0000
  Br  Br6       1.0  0.46457  0.29900  0.33613  1.0000
  Br  Br7       1.0  0.46456  0.79900  0.16388  1.0000
  Br  Br8       1.0  0.53543  0.70095  0.66389  1.0000
  Br  Br9       1.0  0.39008  0.21907  0.59416  1.0000
  Br  Br10      1.0  0.60993  0.28091  0.09417  1.0000
  Br  Br11      1.0  0.60989  0.78089  0.40584  1.0000
  Br  Br12      1.0  0.39012  0.71912  0.90584  1.0000
  N   N1        1.0  0.83146  0.12987  0.97452  1.0000
  N   N2        1.0  0.16856  0.37014  0.47453  1.0000
  N   N3        1.0  0.16856  0.87015  0.02547  1.0000
  N   N4        1.0  0.83146  0.62986  0.52547  1.0000
  N   N5        1.0  0.72550  0.10045  0.63732  1.0000
  N   N6        1.0  0.27448  0.39955  0.13732  1.0000
  N   N7        1.0  0.27449  0.89956  0.36268  1.0000
  N   N8        1.0  0.72550  0.60045  0.86268  1.0000
