data_image0
_chemical_formula_structural       Cd2P8H32C20N4O28
_chemical_formula_sum              "Cd2 P8 H32 C20 N4 O28"
_cell_length_a       8.52229
_cell_length_b       9.34107
_cell_length_c       11.8011
_cell_angle_alpha    96.6402
_cell_angle_beta     90.0001
_cell_angle_gamma    90.0001

_space_group_name_H-M_alt    "P 1"
_space_group_IT_number       1

loop_
  _space_group_symop_operation_xyz
  'x, y, z'

loop_
  _atom_site_type_symbol
  _atom_site_label
  _atom_site_symmetry_multiplicity
  _atom_site_fract_x
  _atom_site_fract_y
  _atom_site_fract_z
  _atom_site_occupancy
  Cd  Cd1       1.0  0.00000  1.00000  1.00000  1.0000
  Cd  Cd2       1.0  0.50000  0.50000  0.50000  1.0000
  P   P1        1.0  0.08986  0.75651  0.19163  1.0000
  P   P2        1.0  0.58986  0.74349  0.30837  1.0000
  P   P3        1.0  0.91014  0.24349  0.80837  1.0000
  P   P4        1.0  0.41014  0.25651  0.69163  1.0000
  P   P5        1.0  0.48559  0.27768  0.22126  1.0000
  P   P6        1.0  0.98559  0.22232  0.27874  1.0000
  P   P7        1.0  0.51441  0.72232  0.77874  1.0000
  P   P8        1.0  0.01440  0.77768  0.72126  1.0000
  H   H1        1.0  0.27162  0.41795  0.87165  1.0000
  H   H2        1.0  0.77162  0.08205  0.62835  1.0000
  H   H3        1.0  0.72838  0.58205  0.12835  1.0000
  H   H4        1.0  0.22838  0.91795  0.37165  1.0000
  H   H5        1.0  0.12545  0.62381  0.95228  1.0000
  H   H6        1.0  0.62545  0.87619  0.54772  1.0000
  H   H7        1.0  0.87455  0.37619  0.04772  1.0000
  H   H8        1.0  0.37455  0.12381  0.45228  1.0000
  H   H9        1.0  0.28299  0.53659  0.28611  1.0000
  H   H10       1.0  0.78299  0.96341  0.21389  1.0000
  H   H11       1.0  0.71701  0.46341  0.71389  1.0000
  H   H12       1.0  0.21701  0.03659  0.78611  1.0000
  H   H13       1.0  0.41721  0.27320  0.97452  1.0000
  H   H14       1.0  0.91721  0.22680  0.52548  1.0000
  H   H15       1.0  0.58279  0.72680  0.02548  1.0000
  H   H16       1.0  0.08279  0.77320  0.47452  1.0000
  H   H17       1.0  0.88729  0.67382  0.28320  1.0000
  H   H18       1.0  0.38729  0.82617  0.21680  1.0000
  H   H19       1.0  0.11271  0.32618  0.71680  1.0000
  H   H20       1.0  0.61271  0.17382  0.78320  1.0000
  H   H21       1.0  0.28141  0.16039  0.26091  1.0000
  H   H22       1.0  0.78141  0.33961  0.23909  1.0000
  H   H23       1.0  0.71859  0.83961  0.73909  1.0000
  H   H24       1.0  0.21859  0.66039  0.76091  1.0000
  H   H25       1.0  0.31894  0.90164  0.94723  1.0000
  H   H26       1.0  0.81894  0.59836  0.55277  1.0000
  H   H27       1.0  0.68106  0.09836  0.05277  1.0000
  H   H28       1.0  0.18107  0.40164  0.44723  1.0000
  H   H29       1.0  0.32464  0.00415  0.06772  1.0000
  H   H30       1.0  0.82464  0.49585  0.43228  1.0000
  H   H31       1.0  0.67536  0.99585  0.93229  1.0000
  H   H32       1.0  0.17536  0.50415  0.56772  1.0000
  C   C1        1.0  0.18998  0.56157  0.00942  1.0000
  C   C2        1.0  0.68998  0.93843  0.49058  1.0000
  C   C3        1.0  0.81002  0.43843  0.99058  1.0000
  C   C4        1.0  0.31002  0.06157  0.50942  1.0000
  C   C5        1.0  0.19189  0.59659  0.12704  1.0000
  C   C6        1.0  0.69189  0.90341  0.37296  1.0000
  C   C7        1.0  0.80811  0.40341  0.87297  1.0000
  C   C8        1.0  0.30811  0.09659  0.62703  1.0000
  C   C9        1.0  0.27968  0.51036  0.19368  1.0000
  C   C10       1.0  0.77969  0.98964  0.30632  1.0000
  C   C11       1.0  0.72031  0.48964  0.80632  1.0000
  C   C12       1.0  0.22031  0.01036  0.69368  1.0000
  C   C13       1.0  0.36537  0.39309  0.14175  1.0000
  C   C14       1.0  0.86537  0.10691  0.35825  1.0000
  C   C15       1.0  0.63463  0.60691  0.85824  1.0000
  C   C16       1.0  0.13463  0.89309  0.64176  1.0000
  C   C17       1.0  0.35715  0.36281  0.02357  1.0000
  C   C18       1.0  0.85715  0.13719  0.47643  1.0000
  C   C19       1.0  0.64285  0.63720  0.97642  1.0000
  C   C20       1.0  0.14285  0.86280  0.52358  1.0000
  N   N1        1.0  0.27148  0.44639  0.96185  1.0000
  N   N2        1.0  0.77148  0.05361  0.53815  1.0000
  N   N3        1.0  0.72851  0.55361  0.03814  1.0000
  N   N4        1.0  0.22851  0.94639  0.46185  1.0000
  O   O1        1.0  0.97846  0.80464  0.10437  1.0000
  O   O2        1.0  0.47846  0.69536  0.39563  1.0000
  O   O3        1.0  0.02154  0.19536  0.89563  1.0000
  O   O4        1.0  0.52154  0.30464  0.60437  1.0000
  O   O5        1.0  0.21761  0.86218  0.23911  1.0000
  O   O6        1.0  0.71760  0.63782  0.26089  1.0000
  O   O7        1.0  0.78239  0.13782  0.76089  1.0000
  O   O8        1.0  0.28239  0.36218  0.73911  1.0000
  O   O9        1.0  0.00224  0.70603  0.29832  1.0000
  O   O10       1.0  0.50224  0.79397  0.20168  1.0000
  O   O11       1.0  0.99775  0.29397  0.70168  1.0000
  O   O12       1.0  0.49775  0.20603  0.79832  1.0000
  O   O13       1.0  0.50526  0.34436  0.34213  1.0000
  O   O14       1.0  0.00526  0.15564  0.15787  1.0000
  O   O15       1.0  0.49474  0.65564  0.65787  1.0000
  O   O16       1.0  0.99474  0.84437  0.84213  1.0000
  O   O17       1.0  0.63465  0.24318  0.15337  1.0000
  O   O18       1.0  0.13465  0.25682  0.34663  1.0000
  O   O19       1.0  0.36535  0.75682  0.84664  1.0000
  O   O20       1.0  0.86535  0.74318  0.65337  1.0000
  O   O21       1.0  0.38090  0.13397  0.21742  1.0000
  O   O22       1.0  0.88090  0.36603  0.28258  1.0000
  O   O23       1.0  0.61910  0.86603  0.78258  1.0000
  O   O24       1.0  0.11910  0.63397  0.71742  1.0000
  O   O25       1.0  0.27630  0.99021  0.99194  1.0000
  O   O26       1.0  0.77631  0.50979  0.50806  1.0000
  O   O27       1.0  0.72370  0.00980  0.00807  1.0000
  O   O28       1.0  0.22370  0.49021  0.49194  1.0000
