data_image0
_chemical_formula_structural       CuH24C24S2N6O8
_chemical_formula_sum              "Cu1 H24 C24 S2 N6 O8"
_cell_length_a       5.63067
_cell_length_b       7.12249
_cell_length_c       15.5201
_cell_angle_alpha    102.64
_cell_angle_beta     98.9451
_cell_angle_gamma    92.7371

_space_group_name_H-M_alt    "P 1"
_space_group_IT_number       1

loop_
  _space_group_symop_operation_xyz
  'x, y, z'

loop_
  _atom_site_type_symbol
  _atom_site_label
  _atom_site_symmetry_multiplicity
  _atom_site_fract_x
  _atom_site_fract_y
  _atom_site_fract_z
  _atom_site_occupancy
  Cu  Cu1       1.0  0.50000  0.50000  0.00000  1.0000
  H   H1        1.0  0.01638  0.29272  0.69162  1.0000
  H   H2        1.0  0.98362  0.70727  0.30838  1.0000
  H   H3        1.0  0.29890  0.62024  0.77722  1.0000
  H   H4        1.0  0.70110  0.37977  0.22277  1.0000
  H   H5        1.0  0.58457  0.76773  0.92013  1.0000
  H   H6        1.0  0.41543  0.23226  0.07986  1.0000
  H   H7        1.0  0.30385  0.46246  0.61752  1.0000
  H   H8        1.0  0.69614  0.53754  0.38248  1.0000
  H   H9        1.0  0.83401  0.65947  0.94966  1.0000
  H   H10       1.0  0.16599  0.34053  0.05034  1.0000
  H   H11       1.0  0.23334  0.76407  0.95941  1.0000
  H   H12       1.0  0.76666  0.23594  0.04059  1.0000
  H   H13       1.0  0.19802  0.75793  0.05640  1.0000
  H   H14       1.0  0.80198  0.24207  0.94360  1.0000
  H   H15       1.0  0.00790  0.44029  0.85116  1.0000
  H   H16       1.0  0.99209  0.55970  0.14884  1.0000
  H   H17       1.0  0.50094  0.03621  0.41604  1.0000
  H   H18       1.0  0.49906  0.96380  0.58396  1.0000
  H   H19       1.0  0.21615  0.17702  0.28071  1.0000
  H   H20       1.0  0.78385  0.82297  0.71929  1.0000
  H   H21       1.0  0.50067  0.90200  0.25287  1.0000
  H   H22       1.0  0.49934  0.09800  0.74713  1.0000
  H   H23       1.0  0.21912  0.30338  0.44491  1.0000
  H   H24       1.0  0.78088  0.69662  0.55509  1.0000
  C   C1        1.0  0.65576  0.54524  0.82410  1.0000
  C   C2        1.0  0.34423  0.45475  0.17590  1.0000
  C   C3        1.0  0.66524  0.37619  0.64432  1.0000
  C   C4        1.0  0.33476  0.62381  0.35567  1.0000
  C   C5        1.0  0.45559  0.54893  0.75832  1.0000
  C   C6        1.0  0.54440  0.45107  0.24168  1.0000
  C   C7        1.0  0.86148  0.36636  0.71093  1.0000
  C   C8        1.0  0.13853  0.63364  0.28907  1.0000
  C   C9        1.0  0.85570  0.44898  0.79993  1.0000
  C   C10       1.0  0.14427  0.55102  0.20006  1.0000
  C   C11       1.0  0.45943  0.46305  0.66917  1.0000
  C   C12       1.0  0.54057  0.53695  0.33083  1.0000
  C   C13       1.0  0.85529  0.18527  0.43863  1.0000
  C   C14       1.0  0.14473  0.81473  0.56137  1.0000
  C   C15       1.0  0.65414  0.06838  0.38527  1.0000
  C   C16       1.0  0.34585  0.93161  0.61473  1.0000
  C   C17       1.0  0.85600  0.03711  0.25776  1.0000
  C   C18       1.0  0.14400  0.96287  0.74224  1.0000
  C   C19       1.0  0.06089  0.21948  0.40169  1.0000
  C   C20       1.0  0.93911  0.78051  0.59831  1.0000
  C   C21       1.0  0.05981  0.14816  0.31060  1.0000
  C   C22       1.0  0.94021  0.85182  0.68940  1.0000
  C   C23       1.0  0.65450  0.99373  0.29492  1.0000
  C   C24       1.0  0.34552  0.00627  0.70507  1.0000
  S   S1        1.0  0.84516  0.95270  0.14076  1.0000
  S   S2        1.0  0.15485  0.04730  0.85924  1.0000
  N   N1        1.0  0.65955  0.63755  0.91540  1.0000
  N   N2        1.0  0.34045  0.36245  0.08460  1.0000
  N   N3        1.0  0.65903  0.29893  0.55249  1.0000
  N   N4        1.0  0.34097  0.70106  0.44751  1.0000
  N   N5        1.0  0.86476  0.27231  0.52998  1.0000
  N   N6        1.0  0.13525  0.72769  0.47002  1.0000
  O   O1        1.0  0.21321  0.66994  0.99827  1.0000
  O   O2        1.0  0.78679  0.33007  0.00173  1.0000
  O   O3        1.0  0.71882  0.75884  0.11626  1.0000
  O   O4        1.0  0.28117  0.24116  0.88373  1.0000
  O   O5        1.0  0.09604  0.95850  0.12487  1.0000
  O   O6        1.0  0.90397  0.04151  0.87513  1.0000
  O   O7        1.0  0.70334  0.09029  0.09926  1.0000
  O   O8        1.0  0.29666  0.90972  0.90075  1.0000
