data_image0
_chemical_formula_structural       MnH24C24S2N6O8
_chemical_formula_sum              "Mn1 H24 C24 S2 N6 O8"
_cell_length_a       5.72822
_cell_length_b       7.05477
_cell_length_c       15.4952
_cell_angle_alpha    100.61
_cell_angle_beta     99.144
_cell_angle_gamma    94.2252

_space_group_name_H-M_alt    "P 1"
_space_group_IT_number       1

loop_
  _space_group_symop_operation_xyz
  'x, y, z'

loop_
  _atom_site_type_symbol
  _atom_site_label
  _atom_site_symmetry_multiplicity
  _atom_site_fract_x
  _atom_site_fract_y
  _atom_site_fract_z
  _atom_site_occupancy
  Mn  Mn1       1.0  0.00001  0.00000  0.00000  1.0000
  H   H1        1.0  0.41954  0.37659  0.71970  1.0000
  H   H2        1.0  0.58047  0.62339  0.28029  1.0000
  H   H3        1.0  0.57727  0.12195  0.59260  1.0000
  H   H4        1.0  0.42273  0.87806  0.40740  1.0000
  H   H5        1.0  0.40080  0.24082  0.06003  1.0000
  H   H6        1.0  0.59919  0.75917  0.93997  1.0000
  H   H7        1.0  0.73152  0.13961  0.75442  1.0000
  H   H8        1.0  0.26848  0.86041  0.24558  1.0000
  H   H9        1.0  0.17849  0.36707  0.08849  1.0000
  H   H10       1.0  0.82151  0.63293  0.91151  1.0000
  H   H11       1.0  0.26650  0.34711  0.55680  1.0000
  H   H12       1.0  0.73350  0.65287  0.44320  1.0000
  H   H13       1.0  0.78205  0.32630  0.04007  1.0000
  H   H14       1.0  0.21794  0.67371  0.95993  1.0000
  H   H15       1.0  0.62693  0.21827  0.94958  1.0000
  H   H16       1.0  0.37307  0.78174  0.05042  1.0000
  H   H17       1.0  0.04275  0.36118  0.23350  1.0000
  H   H18       1.0  0.95724  0.63882  0.76650  1.0000
  H   H19       1.0  0.20071  0.35652  0.39225  1.0000
  H   H20       1.0  0.79929  0.64348  0.60776  1.0000
  H   H21       1.0  0.82550  0.11918  0.31583  1.0000
  H   H22       1.0  0.17449  0.88081  0.68418  1.0000
  H   H23       1.0  0.66295  0.11333  0.15683  1.0000
  H   H24       1.0  0.33704  0.88667  0.84318  1.0000
  C   C1        1.0  0.23583  0.32084  0.69143  1.0000
  C   C2        1.0  0.76417  0.67915  0.30857  1.0000
  C   C3        1.0  0.08316  0.26278  0.74592  1.0000
  C   C4        1.0  0.91685  0.73721  0.25408  1.0000
  C   C5        1.0  0.84628  0.18868  0.71140  1.0000
  C   C6        1.0  0.15372  0.81132  0.28860  1.0000
  C   C7        1.0  0.90957  0.24181  0.56655  1.0000
  C   C8        1.0  0.09043  0.75818  0.43344  1.0000
  C   C9        1.0  0.75990  0.17914  0.62172  1.0000
  C   C10       1.0  0.24010  0.82087  0.37828  1.0000
  C   C11       1.0  0.14976  0.30640  0.60101  1.0000
  C   C12       1.0  0.85025  0.69358  0.39899  1.0000
  C   C13       1.0  0.34549  0.24187  0.18506  1.0000
  C   C14       1.0  0.65451  0.75813  0.81495  1.0000
  C   C15       1.0  0.21380  0.30813  0.25150  1.0000
  C   C16       1.0  0.78619  0.69188  0.74850  1.0000
  C   C17       1.0  0.65518  0.17270  0.29705  1.0000
  C   C18       1.0  0.34482  0.82731  0.70295  1.0000
  C   C19       1.0  0.52749  0.24504  0.36418  1.0000
  C   C20       1.0  0.47251  0.75497  0.63582  1.0000
  C   C21       1.0  0.56401  0.16976  0.20858  1.0000
  C   C22       1.0  0.43598  0.83024  0.79142  1.0000
  C   C23       1.0  0.30318  0.30775  0.34029  1.0000
  C   C24       1.0  0.69682  0.69225  0.65971  1.0000
  S   S1        1.0  0.18724  0.29073  0.86156  1.0000
  S   S2        1.0  0.81276  0.70928  0.13844  1.0000
  N   N1        1.0  0.26062  0.24411  0.09408  1.0000
  N   N2        1.0  0.73937  0.75589  0.90592  1.0000
  N   N3        1.0  0.60991  0.25559  0.45540  1.0000
  N   N4        1.0  0.39009  0.74441  0.54461  1.0000
  N   N5        1.0  0.83151  0.24173  0.47564  1.0000
  N   N6        1.0  0.16849  0.75826  0.52436  1.0000
  O   O1        1.0  0.71579  0.19316  0.00641  1.0000
  O   O2        1.0  0.28421  0.80685  0.99359  1.0000
  O   O3        1.0  0.09369  0.11145  0.88742  1.0000
  O   O4        1.0  0.90631  0.88856  0.11258  1.0000
  O   O5        1.0  0.44793  0.31818  0.87516  1.0000
  O   O6        1.0  0.55207  0.68182  0.12484  1.0000
  O   O7        1.0  0.08449  0.46070  0.90583  1.0000
  O   O8        1.0  0.91552  0.53931  0.09416  1.0000
