data_image0
_chemical_formula_structural       CoH24C24S2N6O8
_chemical_formula_sum              "Co1 H24 C24 S2 N6 O8"
_cell_length_a       5.66271
_cell_length_b       7.0129
_cell_length_c       15.5129
_cell_angle_alpha    102.332
_cell_angle_beta     100.916
_cell_angle_gamma    93.7475

_space_group_name_H-M_alt    "P 1"
_space_group_IT_number       1

loop_
  _space_group_symop_operation_xyz
  'x, y, z'

loop_
  _atom_site_type_symbol
  _atom_site_label
  _atom_site_symmetry_multiplicity
  _atom_site_fract_x
  _atom_site_fract_y
  _atom_site_fract_z
  _atom_site_occupancy
  Co  Co1       1.0  0.50000  0.50000  0.50000  1.0000
  H   H1        1.0  0.76266  0.35407  0.75008  1.0000
  H   H2        1.0  0.23734  0.64592  0.24992  1.0000
  H   H3        1.0  0.84969  0.30640  0.55576  1.0000
  H   H4        1.0  0.15031  0.69361  0.44424  1.0000
  H   H5        1.0  0.11884  0.28580  0.45027  1.0000
  H   H6        1.0  0.88115  0.71421  0.54973  1.0000
  H   H7        1.0  0.33493  0.14970  0.42267  1.0000
  H   H8        1.0  0.66507  0.85030  0.57733  1.0000
  H   H9        1.0  0.67941  0.38785  0.18914  1.0000
  H   H10       1.0  0.32059  0.61214  0.81086  1.0000
  H   H11       1.0  0.71244  0.19476  0.45995  1.0000
  H   H12       1.0  0.28756  0.80525  0.54005  1.0000
  H   H13       1.0  0.31515  0.14911  0.11757  1.0000
  H   H14       1.0  0.68485  0.85089  0.88243  1.0000
  H   H15       1.0  0.48091  0.15550  0.27910  1.0000
  H   H16       1.0  0.51909  0.84451  0.72090  1.0000
  H   H17       1.0  0.92488  0.37875  0.91433  1.0000
  H   H18       1.0  0.07513  0.62123  0.08567  1.0000
  H   H19       1.0  0.22856  0.14740  0.94261  1.0000
  H   H20       1.0  0.77145  0.85261  0.05740  1.0000
  H   H21       1.0  0.84754  0.40234  0.35047  1.0000
  H   H22       1.0  0.15245  0.59765  0.64953  1.0000
  H   H23       1.0  0.06782  0.11139  0.77703  1.0000
  H   H24       1.0  0.93217  0.88862  0.22297  1.0000
  C   C1        1.0  0.64875  0.30502  0.79220  1.0000
  C   C2        1.0  0.35125  0.69498  0.20779  1.0000
  C   C3        1.0  0.17323  0.27653  0.32480  1.0000
  C   C4        1.0  0.82677  0.72347  0.67520  1.0000
  C   C5        1.0  0.85402  0.33659  0.20954  1.0000
  C   C6        1.0  0.14597  0.66341  0.79046  1.0000
  C   C7        1.0  0.40793  0.22721  0.75467  1.0000
  C   C8        1.0  0.59207  0.77279  0.24533  1.0000
  C   C9        1.0  0.58911  0.25575  0.93652  1.0000
  C   C10       1.0  0.41089  0.74425  0.06347  1.0000
  C   C11       1.0  0.21246  0.20091  0.16910  1.0000
  C   C12       1.0  0.78754  0.79910  0.83090  1.0000
  C   C13       1.0  0.30599  0.20650  0.25936  1.0000
  C   C14       1.0  0.69401  0.79350  0.74064  1.0000
  C   C15       1.0  0.73918  0.31845  0.88307  1.0000
  C   C16       1.0  0.26083  0.68154  0.11693  1.0000
  C   C17       1.0  0.98332  0.26177  0.14327  1.0000
  C   C18       1.0  0.01668  0.73823  0.85673  1.0000
  C   C19       1.0  0.34472  0.18779  0.89929  1.0000
  C   C20       1.0  0.65528  0.81222  0.10071  1.0000
  C   C21       1.0  0.94901  0.34447  0.29951  1.0000
  C   C22       1.0  0.05098  0.65553  0.70049  1.0000
  C   C23       1.0  0.25499  0.16944  0.80756  1.0000
  C   C24       1.0  0.74501  0.83057  0.19244  1.0000
  S   S1        1.0  0.30110  0.19980  0.63726  1.0000
  S   S2        1.0  0.69890  0.80020  0.36274  1.0000
  N   N1        1.0  0.26192  0.27883  0.41809  1.0000
  N   N2        1.0  0.73808  0.72117  0.58191  1.0000
  N   N3        1.0  0.67131  0.25808  0.02837  1.0000
  N   N4        1.0  0.32870  0.74192  0.97163  1.0000
  N   N5        1.0  0.89737  0.24794  0.05057  1.0000
  N   N6        1.0  0.10263  0.75207  0.94943  1.0000
  O   O1        1.0  0.40073  0.02332  0.59292  1.0000
  O   O2        1.0  0.59927  0.97669  0.40708  1.0000
  O   O3        1.0  0.03529  0.17425  0.62069  1.0000
  O   O4        1.0  0.96470  0.82575  0.37931  1.0000
  O   O5        1.0  0.40292  0.37818  0.61572  1.0000
  O   O6        1.0  0.59707  0.62182  0.38428  1.0000
  O   O7        1.0  0.76843  0.33205  0.49716  1.0000
  O   O8        1.0  0.23158  0.66795  0.50285  1.0000
