data_image0
_chemical_formula_structural       ZnH24C24S2N6O8
_chemical_formula_sum              "Zn1 H24 C24 S2 N6 O8"
_cell_length_a       5.72037
_cell_length_b       6.98926
_cell_length_c       15.4643
_cell_angle_alpha    100.238
_cell_angle_beta     99.6821
_cell_angle_gamma    94.6417

_space_group_name_H-M_alt    "P 1"
_space_group_IT_number       1

loop_
  _space_group_symop_operation_xyz
  'x, y, z'

loop_
  _atom_site_type_symbol
  _atom_site_label
  _atom_site_symmetry_multiplicity
  _atom_site_fract_x
  _atom_site_fract_y
  _atom_site_fract_z
  _atom_site_occupancy
  Zn  Zn1       1.0  0.50000  0.50000  1.00000  1.0000
  H   H1        1.0  0.07120  0.62757  0.59121  1.0000
  H   H2        1.0  0.92881  0.37241  0.40879  1.0000
  H   H3        1.0  0.92070  0.87968  0.71986  1.0000
  H   H4        1.0  0.07931  0.12032  0.28013  1.0000
  H   H5        1.0  0.22756  0.64618  0.75386  1.0000
  H   H6        1.0  0.77245  0.35381  0.24614  1.0000
  H   H7        1.0  0.76591  0.84787  0.55576  1.0000
  H   H8        1.0  0.23408  0.15213  0.44423  1.0000
  H   H9        1.0  0.28299  0.81920  0.03979  1.0000
  H   H10       1.0  0.71701  0.18081  0.96020  1.0000
  H   H11       1.0  0.12902  0.71188  0.94844  1.0000
  H   H12       1.0  0.87098  0.28813  0.05156  1.0000
  H   H13       1.0  0.67891  0.85902  0.08102  1.0000
  H   H14       1.0  0.32109  0.14098  0.91899  1.0000
  H   H15       1.0  0.89474  0.72494  0.05427  1.0000
  H   H16       1.0  0.10525  0.27506  0.94573  1.0000
  H   H17       1.0  0.53400  0.84879  0.22629  1.0000
  H   H18       1.0  0.46599  0.15121  0.77371  1.0000
  H   H19       1.0  0.32297  0.61468  0.31278  1.0000
  H   H20       1.0  0.67703  0.38531  0.68722  1.0000
  H   H21       1.0  0.15759  0.60518  0.15288  1.0000
  H   H22       1.0  0.84241  0.39483  0.84711  1.0000
  H   H23       1.0  0.69595  0.84936  0.38640  1.0000
  H   H24       1.0  0.30405  0.15063  0.61361  1.0000
  C   C1        1.0  0.73520  0.82489  0.69122  1.0000
  C   C2        1.0  0.26480  0.17511  0.30877  1.0000
  C   C3        1.0  0.58126  0.76869  0.74575  1.0000
  C   C4        1.0  0.41875  0.23131  0.25425  1.0000
  C   C5        1.0  0.25540  0.68443  0.62049  1.0000
  C   C6        1.0  0.74460  0.31556  0.37951  1.0000
  C   C7        1.0  0.40672  0.74486  0.56521  1.0000
  C   C8        1.0  0.59328  0.25513  0.43479  1.0000
  C   C9        1.0  0.34249  0.69492  0.71068  1.0000
  C   C10       1.0  0.65752  0.30507  0.28932  1.0000
  C   C11       1.0  0.64854  0.80901  0.60024  1.0000
  C   C12       1.0  0.35146  0.19098  0.39976  1.0000
  C   C13       1.0  0.83869  0.73179  0.17958  1.0000
  C   C14       1.0  0.16131  0.26821  0.82042  1.0000
  C   C15       1.0  0.02415  0.74058  0.35978  1.0000
  C   C16       1.0  0.97585  0.25941  0.64022  1.0000
  C   C17       1.0  0.79816  0.80081  0.33471  1.0000
  C   C18       1.0  0.20185  0.19919  0.66529  1.0000
  C   C19       1.0  0.70680  0.79836  0.24523  1.0000
  C   C20       1.0  0.29320  0.20163  0.75477  1.0000
  C   C21       1.0  0.15176  0.66733  0.29336  1.0000
  C   C22       1.0  0.84824  0.33266  0.70664  1.0000
  C   C23       1.0  0.05867  0.66210  0.20419  1.0000
  C   C24       1.0  0.94133  0.33790  0.79581  1.0000
  S   S1        1.0  0.68526  0.79531  0.86211  1.0000
  S   S2        1.0  0.31474  0.20470  0.13790  1.0000
  N   N1        1.0  0.75306  0.73188  0.08739  1.0000
  N   N2        1.0  0.24693  0.26813  0.91261  1.0000
  N   N3        1.0  0.10670  0.75353  0.45178  1.0000
  N   N4        1.0  0.89330  0.24647  0.54822  1.0000
  N   N5        1.0  0.32905  0.74249  0.47349  1.0000
  N   N6        1.0  0.67095  0.25750  0.52651  1.0000
  O   O1        1.0  0.59107  0.61234  0.88618  1.0000
  O   O2        1.0  0.40893  0.38768  0.11382  1.0000
  O   O3        1.0  0.94701  0.82587  0.87692  1.0000
  O   O4        1.0  0.05300  0.17414  0.12309  1.0000
  O   O5        1.0  0.21520  0.68522  0.00579  1.0000
  O   O6        1.0  0.78480  0.31479  0.99421  1.0000
  O   O7        1.0  0.58134  0.96523  0.90580  1.0000
  O   O8        1.0  0.41865  0.03478  0.09419  1.0000
