data_image0
_chemical_formula_structural       Zn2P8H32C20N4O28
_chemical_formula_sum              "Zn2 P8 H32 C20 N4 O28"
_cell_length_a       8.55706
_cell_length_b       9.18201
_cell_length_c       11.6102
_cell_angle_alpha    96.4328
_cell_angle_beta     90
_cell_angle_gamma    90.0001

_space_group_name_H-M_alt    "P 1"
_space_group_IT_number       1

loop_
  _space_group_symop_operation_xyz
  'x, y, z'

loop_
  _atom_site_type_symbol
  _atom_site_label
  _atom_site_symmetry_multiplicity
  _atom_site_fract_x
  _atom_site_fract_y
  _atom_site_fract_z
  _atom_site_occupancy
  Zn  Zn1       1.0  0.00000  0.00000  0.00000  1.0000
  Zn  Zn2       1.0  0.50000  0.50000  0.50000  1.0000
  P   P1        1.0  0.09292  0.76087  0.18518  1.0000
  P   P2        1.0  0.59292  0.73913  0.31482  1.0000
  P   P3        1.0  0.90708  0.23913  0.81482  1.0000
  P   P4        1.0  0.40708  0.26087  0.68518  1.0000
  P   P5        1.0  0.49482  0.28450  0.22913  1.0000
  P   P6        1.0  0.99482  0.21550  0.27087  1.0000
  P   P7        1.0  0.50518  0.71550  0.77087  1.0000
  P   P8        1.0  0.00518  0.78450  0.72913  1.0000
  H   H1        1.0  0.27366  0.40928  0.86851  1.0000
  H   H2        1.0  0.77366  0.09072  0.63150  1.0000
  H   H3        1.0  0.72634  0.59072  0.13150  1.0000
  H   H4        1.0  0.22634  0.90928  0.36851  1.0000
  H   H5        1.0  0.12273  0.61337  0.94592  1.0000
  H   H6        1.0  0.62273  0.88663  0.55408  1.0000
  H   H7        1.0  0.87727  0.38663  0.05408  1.0000
  H   H8        1.0  0.37727  0.11337  0.44592  1.0000
  H   H9        1.0  0.28902  0.54533  0.28769  1.0000
  H   H10       1.0  0.78903  0.95467  0.21231  1.0000
  H   H11       1.0  0.71097  0.45467  0.71231  1.0000
  H   H12       1.0  0.21098  0.04533  0.78769  1.0000
  H   H13       1.0  0.42505  0.26793  0.97747  1.0000
  H   H14       1.0  0.92505  0.23207  0.52252  1.0000
  H   H15       1.0  0.57495  0.73207  0.02253  1.0000
  H   H16       1.0  0.07495  0.76793  0.47748  1.0000
  H   H17       1.0  0.89040  0.67763  0.28164  1.0000
  H   H18       1.0  0.39040  0.82237  0.21836  1.0000
  H   H19       1.0  0.10959  0.32237  0.71836  1.0000
  H   H20       1.0  0.60960  0.17763  0.78164  1.0000
  H   H21       1.0  0.28968  0.16858  0.27107  1.0000
  H   H22       1.0  0.78968  0.33142  0.22893  1.0000
  H   H23       1.0  0.71032  0.83142  0.72894  1.0000
  H   H24       1.0  0.21032  0.66858  0.77106  1.0000
  H   H25       1.0  0.29811  0.90134  0.94472  1.0000
  H   H26       1.0  0.79811  0.59866  0.55528  1.0000
  H   H27       1.0  0.70189  0.09866  0.05528  1.0000
  H   H28       1.0  0.20189  0.40134  0.44472  1.0000
  H   H29       1.0  0.29667  0.99595  0.06994  1.0000
  H   H30       1.0  0.79667  0.50405  0.43006  1.0000
  H   H31       1.0  0.70333  0.00405  0.93006  1.0000
  H   H32       1.0  0.20333  0.49595  0.56994  1.0000
  C   C1        1.0  0.18981  0.55481  0.00572  1.0000
  C   C2        1.0  0.68981  0.94519  0.49428  1.0000
  C   C3        1.0  0.81019  0.44519  0.99428  1.0000
  C   C4        1.0  0.31019  0.05481  0.50572  1.0000
  C   C5        1.0  0.19261  0.59575  0.12427  1.0000
  C   C6        1.0  0.69261  0.90425  0.37573  1.0000
  C   C7        1.0  0.80739  0.40425  0.87573  1.0000
  C   C8        1.0  0.30739  0.09575  0.62427  1.0000
  C   C9        1.0  0.28391  0.51400  0.19434  1.0000
  C   C10       1.0  0.78391  0.98600  0.30566  1.0000
  C   C11       1.0  0.71609  0.48600  0.80566  1.0000
  C   C12       1.0  0.21609  0.01400  0.69434  1.0000
  C   C13       1.0  0.37172  0.39492  0.14455  1.0000
  C   C14       1.0  0.87172  0.10508  0.35545  1.0000
  C   C15       1.0  0.62828  0.60508  0.85545  1.0000
  C   C16       1.0  0.12828  0.89492  0.64455  1.0000
  C   C17       1.0  0.36270  0.35882  0.02501  1.0000
  C   C18       1.0  0.86270  0.14118  0.47499  1.0000
  C   C19       1.0  0.63730  0.64118  0.97499  1.0000
  C   C20       1.0  0.13730  0.85882  0.52501  1.0000
  N   N1        1.0  0.27395  0.43851  0.96017  1.0000
  N   N2        1.0  0.77395  0.06150  0.53983  1.0000
  N   N3        1.0  0.72605  0.56150  0.03983  1.0000
  N   N4        1.0  0.22605  0.93851  0.46017  1.0000
  O   O1        1.0  0.98595  0.81162  0.09473  1.0000
  O   O2        1.0  0.48595  0.68838  0.40526  1.0000
  O   O3        1.0  0.01405  0.18838  0.90527  1.0000
  O   O4        1.0  0.51405  0.31162  0.59474  1.0000
  O   O5        1.0  0.22315  0.86534  0.23331  1.0000
  O   O6        1.0  0.72315  0.63466  0.26669  1.0000
  O   O7        1.0  0.77685  0.13466  0.76669  1.0000
  O   O8        1.0  0.27685  0.36534  0.73331  1.0000
  O   O9        1.0  0.00397  0.71471  0.29470  1.0000
  O   O10       1.0  0.50397  0.78529  0.20529  1.0000
  O   O11       1.0  0.99603  0.28529  0.70530  1.0000
  O   O12       1.0  0.49604  0.21471  0.79471  1.0000
  O   O13       1.0  0.51688  0.36227  0.34876  1.0000
  O   O14       1.0  0.01688  0.13774  0.15123  1.0000
  O   O15       1.0  0.48312  0.63774  0.65124  1.0000
  O   O16       1.0  0.98312  0.86226  0.84877  1.0000
  O   O17       1.0  0.64239  0.24600  0.15922  1.0000
  O   O18       1.0  0.14239  0.25400  0.34078  1.0000
  O   O19       1.0  0.35761  0.75400  0.84078  1.0000
  O   O20       1.0  0.85761  0.74600  0.65922  1.0000
  O   O21       1.0  0.39300  0.13883  0.23155  1.0000
  O   O22       1.0  0.89300  0.36117  0.26845  1.0000
  O   O23       1.0  0.60700  0.86117  0.76845  1.0000
  O   O24       1.0  0.10700  0.63883  0.73155  1.0000
  O   O25       1.0  0.25272  0.98855  0.99165  1.0000
  O   O26       1.0  0.75272  0.51145  0.50835  1.0000
  O   O27       1.0  0.74728  0.01145  0.00835  1.0000
  O   O28       1.0  0.24728  0.48855  0.49165  1.0000
