data_image0
_chemical_formula_structural       Hg4H36C48I8N8
_chemical_formula_sum              "Hg4 H36 C48 I8 N8"
_cell_length_a       7.98245
_cell_length_b       13.0696
_cell_length_c       14.175
_cell_angle_alpha    101.545
_cell_angle_beta     96.4256
_cell_angle_gamma    104.213

_space_group_name_H-M_alt    "P 1"
_space_group_IT_number       1

loop_
  _space_group_symop_operation_xyz
  'x, y, z'

loop_
  _atom_site_type_symbol
  _atom_site_label
  _atom_site_symmetry_multiplicity
  _atom_site_fract_x
  _atom_site_fract_y
  _atom_site_fract_z
  _atom_site_occupancy
  Hg  Hg1       1.0  0.51940  0.86158  0.78648  1.0000
  Hg  Hg2       1.0  0.48060  0.13842  0.21352  1.0000
  Hg  Hg3       1.0  0.04849  0.88763  0.67979  1.0000
  Hg  Hg4       1.0  0.95151  0.11237  0.32021  1.0000
  H   H1        1.0  0.56863  0.87510  0.56789  1.0000
  H   H2        1.0  0.43137  0.12490  0.43211  1.0000
  H   H3        1.0  0.53923  0.75918  0.40046  1.0000
  H   H4        1.0  0.46077  0.24082  0.59954  1.0000
  H   H5        1.0  0.39597  0.55723  0.37113  1.0000
  H   H6        1.0  0.60403  0.44277  0.62887  1.0000
  H   H7        1.0  0.29607  0.48313  0.50870  1.0000
  H   H8        1.0  0.70393  0.51687  0.49130  1.0000
  H   H9        1.0  0.02534  0.48019  0.57558  1.0000
  H   H10       1.0  0.97466  0.51981  0.42443  1.0000
  H   H11       1.0  0.89047  0.28072  0.54294  1.0000
  H   H12       1.0  0.10953  0.71928  0.45706  1.0000
  H   H13       1.0  0.02721  0.16911  0.63271  1.0000
  H   H14       1.0  0.97279  0.83089  0.36728  1.0000
  H   H15       1.0  0.29536  0.25715  0.75794  1.0000
  H   H16       1.0  0.70464  0.74285  0.24206  1.0000
  H   H17       1.0  0.43244  0.45640  0.79036  1.0000
  H   H18       1.0  0.56756  0.54360  0.20964  1.0000
  H   H19       1.0  0.90791  0.90165  0.88957  1.0000
  H   H20       1.0  0.09208  0.09835  0.11043  1.0000
  H   H21       1.0  0.10698  0.85618  0.01317  1.0000
  H   H22       1.0  0.89302  0.14382  0.98684  1.0000
  H   H23       1.0  0.97423  0.72465  0.11082  1.0000
  H   H24       1.0  0.02577  0.27535  0.88918  1.0000
  H   H25       1.0  0.64833  0.64524  0.07684  1.0000
  H   H26       1.0  0.35167  0.35476  0.92316  1.0000
  H   H27       1.0  0.45402  0.81346  0.12563  1.0000
  H   H28       1.0  0.54598  0.18655  0.87437  1.0000
  H   H29       1.0  0.32239  0.76855  0.26747  1.0000
  H   H30       1.0  0.67761  0.23146  0.73253  1.0000
  H   H31       1.0  0.13856  0.58049  0.25649  1.0000
  H   H32       1.0  0.86145  0.41951  0.74351  1.0000
  H   H33       1.0  0.07950  0.43995  0.10174  1.0000
  H   H34       1.0  0.92051  0.56005  0.89826  1.0000
  H   H35       1.0  0.20049  0.48824  0.95591  1.0000
  H   H36       1.0  0.79952  0.51176  0.04409  1.0000
  C   C1        1.0  0.50613  0.78787  0.55120  1.0000
  C   C2        1.0  0.49387  0.21213  0.44880  1.0000
  C   C3        1.0  0.48893  0.72263  0.45782  1.0000
  C   C4        1.0  0.51107  0.27737  0.54218  1.0000
  C   C5        1.0  0.41109  0.61185  0.44243  1.0000
  C   C6        1.0  0.58892  0.38815  0.55756  1.0000
  C   C7        1.0  0.35409  0.56998  0.51987  1.0000
  C   C8        1.0  0.64592  0.43002  0.48013  1.0000
  C   C9        1.0  0.37497  0.64011  0.61181  1.0000
  C   C10       1.0  0.62503  0.35989  0.38819  1.0000
  C   C11       1.0  0.32444  0.59869  0.69761  1.0000
  C   C12       1.0  0.67556  0.40131  0.30239  1.0000
  C   C13       1.0  0.23827  0.48155  0.68452  1.0000
  C   C14       1.0  0.76173  0.51845  0.31549  1.0000
  C   C15       1.0  0.08495  0.43092  0.61498  1.0000
  C   C16       1.0  0.91505  0.56908  0.38502  1.0000
  C   C17       1.0  0.00846  0.31949  0.59752  1.0000
  C   C18       1.0  0.99154  0.68051  0.40248  1.0000
  C   C19       1.0  0.08422  0.25679  0.64884  1.0000
  C   C20       1.0  0.91578  0.74321  0.35116  1.0000
  C   C21       1.0  0.23488  0.30658  0.71915  1.0000
  C   C22       1.0  0.76512  0.69341  0.28085  1.0000
  C   C23       1.0  0.31137  0.41844  0.73772  1.0000
  C   C24       1.0  0.68863  0.58156  0.26228  1.0000
  C   C25       1.0  0.85546  0.84405  0.93226  1.0000
  C   C26       1.0  0.14454  0.15595  0.06774  1.0000
  C   C27       1.0  0.96624  0.81909  0.00214  1.0000
  C   C28       1.0  0.03376  0.18091  0.99786  1.0000
  C   C29       1.0  0.89249  0.74629  0.05536  1.0000
  C   C30       1.0  0.10750  0.25371  0.94464  1.0000
  C   C31       1.0  0.71147  0.70208  0.03664  1.0000
  C   C32       1.0  0.28853  0.29792  0.96337  1.0000
  C   C33       1.0  0.60784  0.72956  0.96442  1.0000
  C   C34       1.0  0.39216  0.27044  0.03558  1.0000
  C   C35       1.0  0.41520  0.67766  0.94596  1.0000
  C   C36       1.0  0.58480  0.32234  0.05404  1.0000
  C   C37       1.0  0.33629  0.65258  0.03144  1.0000
  C   C38       1.0  0.66371  0.34742  0.96856  1.0000
  C   C39       1.0  0.37167  0.73155  0.12002  1.0000
  C   C40       1.0  0.62833  0.26845  0.87998  1.0000
  C   C41       1.0  0.29857  0.70585  0.20008  1.0000
  C   C42       1.0  0.70142  0.29414  0.79993  1.0000
  C   C43       1.0  0.19460  0.60078  0.19374  1.0000
  C   C44       1.0  0.80540  0.39922  0.80626  1.0000
  C   C45       1.0  0.16046  0.52178  0.10633  1.0000
  C   C46       1.0  0.83954  0.47822  0.89367  1.0000
  C   C47       1.0  0.22862  0.54819  0.02517  1.0000
  C   C48       1.0  0.77139  0.45181  0.97483  1.0000
  I   I1        1.0  0.30726  0.97322  0.87805  1.0000
  I   I2        1.0  0.69274  0.02678  0.12195  1.0000
  I   I3        1.0  0.80460  0.01687  0.74606  1.0000
  I   I4        1.0  0.19540  0.98313  0.25394  1.0000
  I   I5        1.0  0.88927  0.67959  0.68592  1.0000
  I   I6        1.0  0.11073  0.32041  0.31408  1.0000
  I   I7        1.0  0.25388  0.98975  0.56771  1.0000
  I   I8        1.0  0.74612  0.01025  0.43229  1.0000
  N   N1        1.0  0.45103  0.74768  0.62525  1.0000
  N   N2        1.0  0.54897  0.25232  0.37475  1.0000
  N   N3        1.0  0.36735  0.66908  0.78151  1.0000
  N   N4        1.0  0.63265  0.33092  0.21849  1.0000
  N   N5        1.0  0.31123  0.64327  0.86176  1.0000
  N   N6        1.0  0.68877  0.35673  0.13824  1.0000
  N   N7        1.0  0.68146  0.79990  0.91274  1.0000
  N   N8        1.0  0.31853  0.20010  0.08726  1.0000
