data_image0
_chemical_formula_structural       Cu2Mo4H12C14N8O14
_chemical_formula_sum              "Cu2 Mo4 H12 C14 N8 O14"
_cell_length_a       5.18914
_cell_length_b       9.48734
_cell_length_c       12.3007
_cell_angle_alpha    109.811
_cell_angle_beta     92.961
_cell_angle_gamma    91.3553

_space_group_name_H-M_alt    "P 1"
_space_group_IT_number       1

loop_
  _space_group_symop_operation_xyz
  'x, y, z'

loop_
  _atom_site_type_symbol
  _atom_site_label
  _atom_site_symmetry_multiplicity
  _atom_site_fract_x
  _atom_site_fract_y
  _atom_site_fract_z
  _atom_site_occupancy
  Cu  Cu1       1.0  0.74838  0.06868  0.11778  1.0000
  Cu  Cu2       1.0  0.25163  0.93132  0.88222  1.0000
  Mo  Mo1       1.0  0.88466  0.12585  0.44275  1.0000
  Mo  Mo2       1.0  0.11535  0.87415  0.55724  1.0000
  Mo  Mo3       1.0  0.31847  0.92598  0.27502  1.0000
  Mo  Mo4       1.0  0.68154  0.07402  0.72498  1.0000
  H   H1        1.0  0.89454  0.62782  0.21608  1.0000
  H   H2        1.0  0.10545  0.37218  0.78393  1.0000
  H   H3        1.0  0.34027  0.25417  0.29643  1.0000
  H   H4        1.0  0.65972  0.74581  0.70356  1.0000
  H   H5        1.0  0.57678  0.71061  0.33808  1.0000
  H   H6        1.0  0.42320  0.28938  0.66192  1.0000
  H   H7        1.0  0.28628  0.53679  0.39414  1.0000
  H   H8        1.0  0.71370  0.46320  0.60586  1.0000
  H   H9        1.0  0.46708  0.25851  0.92490  1.0000
  H   H10       1.0  0.53291  0.74149  0.07510  1.0000
  H   H11       1.0  0.23917  0.50721  0.07198  1.0000
  H   H12       1.0  0.76082  0.49279  0.92801  1.0000
  C   C1        1.0  0.77577  0.54164  0.23304  1.0000
  C   C2        1.0  0.22423  0.45836  0.76697  1.0000
  C   C3        1.0  0.46708  0.33717  0.28062  1.0000
  C   C4        1.0  0.53291  0.66282  0.71937  1.0000
  C   C5        1.0  0.99870  0.32621  0.10066  1.0000
  C   C6        1.0  0.00130  0.67379  0.89935  1.0000
  C   C7        1.0  0.43457  0.49071  0.33362  1.0000
  C   C8        1.0  0.56541  0.50928  0.66638  1.0000
  C   C9        1.0  0.30654  0.26481  0.97881  1.0000
  C   C10       1.0  0.69346  0.73519  0.02119  1.0000
  C   C11       1.0  0.19292  0.38889  0.05338  1.0000
  C   C12       1.0  0.80707  0.61112  0.94662  1.0000
  C   C13       1.0  0.80907  0.38813  0.18251  1.0000
  C   C14       1.0  0.19093  0.61187  0.81750  1.0000
  N   N1        1.0  0.00022  0.17398  0.05536  1.0000
  N   N2        1.0  0.99979  0.82603  0.94465  1.0000
  N   N3        1.0  0.65409  0.28769  0.20775  1.0000
  N   N4        1.0  0.34591  0.71230  0.79225  1.0000
  N   N5        1.0  0.59093  0.58716  0.30714  1.0000
  N   N6        1.0  0.40906  0.41283  0.69286  1.0000
  N   N7        1.0  0.18572  0.13696  0.98180  1.0000
  N   N8        1.0  0.81428  0.86305  0.01820  1.0000
  O   O1        1.0  0.15015  0.95175  0.42995  1.0000
  O   O2        1.0  0.84985  0.04825  0.57005  1.0000
  O   O3        1.0  0.45028  0.99792  0.17125  1.0000
  O   O4        1.0  0.54974  0.00209  0.82876  1.0000
  O   O5        1.0  0.02360  0.07648  0.29549  1.0000
  O   O6        1.0  0.97641  0.92352  0.70451  1.0000
  O   O7        1.0  0.01808  0.30276  0.51561  1.0000
  O   O8        1.0  0.98192  0.69724  0.48439  1.0000
  O   O9        1.0  0.59575  0.86220  0.33450  1.0000
  O   O10       1.0  0.40426  0.13780  0.66550  1.0000
  O   O11       1.0  0.56135  0.15773  0.41407  1.0000
  O   O12       1.0  0.43866  0.84227  0.58592  1.0000
  O   O13       1.0  0.16798  0.75749  0.18977  1.0000
  O   O14       1.0  0.83202  0.24251  0.81022  1.0000
