data_image0
_chemical_formula_structural       Cu4H28C12N4Cl8O8
_chemical_formula_sum              "Cu4 H28 C12 N4 Cl8 O8"
_cell_length_a       6.90617
_cell_length_b       7.82868
_cell_length_c       12.1248
_cell_angle_alpha    90
_cell_angle_beta     89.9996
_cell_angle_gamma    95.0215

_space_group_name_H-M_alt    "P 1"
_space_group_IT_number       1

loop_
  _space_group_symop_operation_xyz
  'x, y, z'

loop_
  _atom_site_type_symbol
  _atom_site_label
  _atom_site_symmetry_multiplicity
  _atom_site_fract_x
  _atom_site_fract_y
  _atom_site_fract_z
  _atom_site_occupancy
  Cu  Cu1       1.0  0.13467  0.26407  0.22908  1.0000
  Cu  Cu2       1.0  0.36533  0.73593  0.72908  1.0000
  Cu  Cu3       1.0  0.86533  0.73593  0.77092  1.0000
  Cu  Cu4       1.0  0.63467  0.26407  0.27092  1.0000
  H   H1        1.0  0.95704  0.39000  0.60274  1.0000
  H   H2        1.0  0.54296  0.61000  0.10274  1.0000
  H   H3        1.0  0.04297  0.61000  0.39726  1.0000
  H   H4        1.0  0.45704  0.39000  0.89726  1.0000
  H   H5        1.0  0.15635  0.05842  0.55953  1.0000
  H   H6        1.0  0.34365  0.94158  0.05953  1.0000
  H   H7        1.0  0.84365  0.94158  0.44047  1.0000
  H   H8        1.0  0.65635  0.05842  0.94047  1.0000
  H   H9        1.0  0.16915  0.17427  0.68442  1.0000
  H   H10       1.0  0.33084  0.82573  0.18443  1.0000
  H   H11       1.0  0.83085  0.82573  0.31557  1.0000
  H   H12       1.0  0.66915  0.17427  0.81557  1.0000
  H   H13       1.0  0.84430  0.18179  0.60951  1.0000
  H   H14       1.0  0.65570  0.81821  0.10951  1.0000
  H   H15       1.0  0.15570  0.81821  0.39049  1.0000
  H   H16       1.0  0.34430  0.18179  0.89050  1.0000
  H   H17       1.0  0.31713  0.30761  0.46716  1.0000
  H   H18       1.0  0.18287  0.69239  0.96716  1.0000
  H   H19       1.0  0.68287  0.69239  0.53285  1.0000
  H   H20       1.0  0.81713  0.30760  0.03284  1.0000
  H   H21       1.0  0.34903  0.40764  0.58935  1.0000
  H   H22       1.0  0.15097  0.59236  0.08935  1.0000
  H   H23       1.0  0.65097  0.59236  0.41065  1.0000
  H   H24       1.0  0.84903  0.40764  0.91065  1.0000
  H   H25       1.0  0.44699  0.22191  0.56660  1.0000
  H   H26       1.0  0.05301  0.77809  0.06660  1.0000
  H   H27       1.0  0.55302  0.77809  0.43340  1.0000
  H   H28       1.0  0.94698  0.22191  0.93340  1.0000
  C   C1        1.0  0.96262  0.26079  0.56813  1.0000
  C   C2        1.0  0.53738  0.73921  0.06813  1.0000
  C   C3        1.0  0.03738  0.73921  0.43187  1.0000
  C   C4        1.0  0.46262  0.26079  0.93187  1.0000
  C   C5        1.0  0.91618  0.26425  0.44586  1.0000
  C   C6        1.0  0.58383  0.73574  0.94586  1.0000
  C   C7        1.0  0.08382  0.73576  0.55414  1.0000
  C   C8        1.0  0.41617  0.26425  0.05413  1.0000
  C   C9        1.0  0.15182  0.18601  0.59511  1.0000
  C   C10       1.0  0.34818  0.81399  0.09511  1.0000
  C   C11       1.0  0.84818  0.81399  0.40489  1.0000
  C   C12       1.0  0.65182  0.18601  0.90489  1.0000
  N   N1        1.0  0.32723  0.28939  0.55170  1.0000
  N   N2        1.0  0.17277  0.71061  0.05170  1.0000
  N   N3        1.0  0.67278  0.71061  0.44830  1.0000
  N   N4        1.0  0.82723  0.28939  0.94830  1.0000
  Cl  Cl1       1.0  0.85502  0.47592  0.19612  1.0000
  Cl  Cl2       1.0  0.64498  0.52408  0.69612  1.0000
  Cl  Cl3       1.0  0.14498  0.52408  0.80388  1.0000
  Cl  Cl4       1.0  0.35502  0.47592  0.30388  1.0000
  Cl  Cl5       1.0  0.95812  0.03048  0.15666  1.0000
  Cl  Cl6       1.0  0.54188  0.96952  0.65666  1.0000
  Cl  Cl7       1.0  0.04188  0.96952  0.84334  1.0000
  Cl  Cl8       1.0  0.45812  0.03048  0.34334  1.0000
  O   O1        1.0  0.04521  0.21460  0.38159  1.0000
  O   O2        1.0  0.45478  0.78540  0.88158  1.0000
  O   O3        1.0  0.95479  0.78540  0.61841  1.0000
  O   O4        1.0  0.54522  0.21460  0.11842  1.0000
  O   O5        1.0  0.75108  0.31374  0.41845  1.0000
  O   O6        1.0  0.74891  0.68627  0.91845  1.0000
  O   O7        1.0  0.24892  0.68627  0.58155  1.0000
  O   O8        1.0  0.25109  0.31373  0.08155  1.0000
