data_image0
_chemical_formula_structural       Cd2H20C24N4O16
_chemical_formula_sum              "Cd2 H20 C24 N4 O16"
_cell_length_a       7.4444
_cell_length_b       8.3026
_cell_length_c       10.6717
_cell_angle_alpha    93.8231
_cell_angle_beta     90.0004
_cell_angle_gamma    90.0001

_space_group_name_H-M_alt    "P 1"
_space_group_IT_number       1

loop_
  _space_group_symop_operation_xyz
  'x, y, z'

loop_
  _atom_site_type_symbol
  _atom_site_label
  _atom_site_symmetry_multiplicity
  _atom_site_fract_x
  _atom_site_fract_y
  _atom_site_fract_z
  _atom_site_occupancy
  Cd  Cd1       1.0  0.08428  0.50000  0.75000  1.0000
  Cd  Cd2       1.0  0.91572  0.50000  0.25000  1.0000
  H   H1        1.0  0.56307  0.30064  0.02715  1.0000
  H   H2        1.0  0.56308  0.69936  0.47285  1.0000
  H   H3        1.0  0.43693  0.69936  0.97285  1.0000
  H   H4        1.0  0.43693  0.30064  0.52715  1.0000
  H   H5        1.0  0.70912  0.12284  0.17577  1.0000
  H   H6        1.0  0.70913  0.87716  0.32423  1.0000
  H   H7        1.0  0.29087  0.87716  0.82423  1.0000
  H   H8        1.0  0.29087  0.12284  0.67577  1.0000
  H   H9        1.0  0.86183  0.86634  0.09025  1.0000
  H   H10       1.0  0.86183  0.13366  0.40976  1.0000
  H   H11       1.0  0.13817  0.13365  0.90975  1.0000
  H   H12       1.0  0.13817  0.86634  0.59024  1.0000
  H   H13       1.0  0.23900  0.41406  0.96872  1.0000
  H   H14       1.0  0.23900  0.58594  0.53127  1.0000
  H   H15       1.0  0.76100  0.58594  0.03128  1.0000
  H   H16       1.0  0.76100  0.41406  0.46873  1.0000
  H   H17       1.0  0.39236  0.37462  0.86205  1.0000
  H   H18       1.0  0.39236  0.62538  0.63795  1.0000
  H   H19       1.0  0.60764  0.62538  0.13795  1.0000
  H   H20       1.0  0.60764  0.37462  0.36205  1.0000
  C   C1        1.0  0.88640  0.75980  0.84632  1.0000
  C   C2        1.0  0.88640  0.24021  0.65369  1.0000
  C   C3        1.0  0.11360  0.24020  0.15368  1.0000
  C   C4        1.0  0.11360  0.75979  0.34631  1.0000
  C   C5        1.0  0.79084  0.90834  0.89879  1.0000
  C   C6        1.0  0.79084  0.09166  0.60122  1.0000
  C   C7        1.0  0.20916  0.09166  0.10122  1.0000
  C   C8        1.0  0.20916  0.90834  0.39878  1.0000
  C   C9        1.0  0.70748  0.01277  0.81913  1.0000
  C   C10       1.0  0.70748  0.98723  0.68088  1.0000
  C   C11       1.0  0.29252  0.98723  0.18087  1.0000
  C   C12       1.0  0.29252  0.01277  0.31912  1.0000
  C   C13       1.0  0.62630  0.18695  0.99606  1.0000
  C   C14       1.0  0.62630  0.81305  0.50394  1.0000
  C   C15       1.0  0.37370  0.81305  0.00394  1.0000
  C   C16       1.0  0.37370  0.18695  0.49606  1.0000
  C   C17       1.0  0.71086  0.08720  0.07589  1.0000
  C   C18       1.0  0.71087  0.91280  0.42412  1.0000
  C   C19       1.0  0.28913  0.91280  0.92411  1.0000
  C   C20       1.0  0.28914  0.08720  0.57588  1.0000
  C   C21       1.0  0.79268  0.94512  0.02839  1.0000
  C   C22       1.0  0.79268  0.05488  0.47162  1.0000
  C   C23       1.0  0.20732  0.05488  0.97161  1.0000
  C   C24       1.0  0.20732  0.94512  0.52838  1.0000
  N   N1        1.0  0.62199  0.14899  0.86972  1.0000
  N   N2        1.0  0.62199  0.85100  0.63029  1.0000
  N   N3        1.0  0.37801  0.85100  0.13028  1.0000
  N   N4        1.0  0.37801  0.14900  0.36972  1.0000
  O   O1        1.0  0.88796  0.63541  0.91032  1.0000
  O   O2        1.0  0.88795  0.36459  0.58969  1.0000
  O   O3        1.0  0.11204  0.36459  0.08968  1.0000
  O   O4        1.0  0.11205  0.63541  0.41031  1.0000
  O   O5        1.0  0.96991  0.76395  0.74254  1.0000
  O   O6        1.0  0.96992  0.23605  0.75746  1.0000
  O   O7        1.0  0.03009  0.23605  0.25746  1.0000
  O   O8        1.0  0.03008  0.76395  0.24254  1.0000
  O   O9        1.0  0.30039  0.45639  0.89412  1.0000
  O   O10       1.0  0.30038  0.54361  0.60588  1.0000
  O   O11       1.0  0.69962  0.54361  0.10588  1.0000
  O   O12       1.0  0.69962  0.45639  0.39412  1.0000
  O   O13       1.0  0.53653  0.24294  0.79585  1.0000
  O   O14       1.0  0.53653  0.75706  0.70415  1.0000
  O   O15       1.0  0.46347  0.75706  0.20415  1.0000
  O   O16       1.0  0.46347  0.24294  0.29585  1.0000
