data_image0
_chemical_formula_structural       Li2H42C26S2N2
_chemical_formula_sum              "Li2 H42 C26 S2 N2"
_cell_length_a       7.56919
_cell_length_b       9.26858
_cell_length_c       10.5424
_cell_angle_alpha    85.4478
_cell_angle_beta     72.9973
_cell_angle_gamma    69.7326

_space_group_name_H-M_alt    "P 1"
_space_group_IT_number       1

loop_
  _space_group_symop_operation_xyz
  'x, y, z'

loop_
  _atom_site_type_symbol
  _atom_site_label
  _atom_site_symmetry_multiplicity
  _atom_site_fract_x
  _atom_site_fract_y
  _atom_site_fract_z
  _atom_site_occupancy
  Li  Li1       1.0  0.39965  0.92084  0.01067  1.0000
  Li  Li2       1.0  0.60034  0.07917  0.98933  1.0000
  H   H1        1.0  0.07069  0.09609  0.47240  1.0000
  H   H2        1.0  0.92931  0.90389  0.52761  1.0000
  H   H3        1.0  0.98910  0.37906  0.47133  1.0000
  H   H4        1.0  0.01089  0.62093  0.52868  1.0000
  H   H5        1.0  0.10347  0.50640  0.26002  1.0000
  H   H6        1.0  0.89651  0.49360  0.73999  1.0000
  H   H7        1.0  0.30113  0.35189  0.05665  1.0000
  H   H8        1.0  0.69885  0.64812  0.94336  1.0000
  H   H9        1.0  0.71260  0.75385  0.14998  1.0000
  H   H10       1.0  0.28740  0.24616  0.85002  1.0000
  H   H11       1.0  0.63995  0.92018  0.25164  1.0000
  H   H12       1.0  0.36005  0.07983  0.74835  1.0000
  H   H13       1.0  0.79049  0.74039  0.29624  1.0000
  H   H14       1.0  0.20952  0.25961  0.70376  1.0000
  H   H15       1.0  0.40076  0.93726  0.48861  1.0000
  H   H16       1.0  0.59925  0.06274  0.51139  1.0000
  H   H17       1.0  0.30071  0.78726  0.53911  1.0000
  H   H18       1.0  0.69930  0.21274  0.46088  1.0000
  H   H19       1.0  0.55394  0.75309  0.52166  1.0000
  H   H20       1.0  0.44606  0.24691  0.47833  1.0000
  H   H21       1.0  0.54919  0.55484  0.22156  1.0000
  H   H22       1.0  0.45082  0.44516  0.77844  1.0000
  H   H23       1.0  0.63308  0.52201  0.36541  1.0000
  H   H24       1.0  0.36692  0.47799  0.63459  1.0000
  H   H25       1.0  0.37886  0.56773  0.38157  1.0000
  H   H26       1.0  0.62114  0.43227  0.61842  1.0000
  H   H27       1.0  0.99960  0.89940  0.12305  1.0000
  H   H28       1.0  0.00040  0.10060  0.87695  1.0000
  H   H29       1.0  0.91407  0.87467  0.98838  1.0000
  H   H30       1.0  0.08594  0.12533  0.01162  1.0000
  H   H31       1.0  0.22688  0.92576  0.76275  1.0000
  H   H32       1.0  0.77312  0.07425  0.23725  1.0000
  H   H33       1.0  0.41198  0.74425  0.75913  1.0000
  H   H34       1.0  0.58802  0.25575  0.24086  1.0000
  H   H35       1.0  0.16338  0.75593  0.77965  1.0000
  H   H36       1.0  0.83663  0.24407  0.22034  1.0000
  H   H37       1.0  0.40945  0.59173  0.95066  1.0000
  H   H38       1.0  0.59055  0.40827  0.04934  1.0000
  H   H39       1.0  0.23630  0.66440  0.10659  1.0000
  H   H40       1.0  0.76370  0.33560  0.89341  1.0000
  H   H41       1.0  0.15799  0.61064  0.97779  1.0000
  H   H42       1.0  0.84201  0.38936  0.02220  1.0000
  C   C1        1.0  0.24220  0.06417  0.26425  1.0000
  C   C2        1.0  0.75780  0.93583  0.73575  1.0000
  C   C3        1.0  0.12637  0.15116  0.38146  1.0000
  C   C4        1.0  0.87362  0.84884  0.61855  1.0000
  C   C5        1.0  0.07897  0.31074  0.38079  1.0000
  C   C6        1.0  0.92101  0.68925  0.61922  1.0000
  C   C7        1.0  0.14321  0.38127  0.26241  1.0000
  C   C8        1.0  0.85678  0.61873  0.73761  1.0000
  C   C9        1.0  0.25652  0.29102  0.14740  1.0000
  C   C10       1.0  0.74347  0.70898  0.85261  1.0000
  C   C11       1.0  0.31507  0.12814  0.14181  1.0000
  C   C12       1.0  0.68493  0.87186  0.85820  1.0000
  C   C13       1.0  0.48509  0.76231  0.33546  1.0000
  C   C14       1.0  0.51492  0.23769  0.66454  1.0000
  C   C15       1.0  0.66788  0.79589  0.25296  1.0000
  C   C16       1.0  0.33213  0.20411  0.74704  1.0000
  C   C17       1.0  0.43110  0.81324  0.47978  1.0000
  C   C18       1.0  0.56890  0.18676  0.52022  1.0000
  C   C19       1.0  0.51223  0.59192  0.32516  1.0000
  C   C20       1.0  0.48778  0.40808  0.67483  1.0000
  C   C21       1.0  0.01974  0.91537  0.01602  1.0000
  C   C22       1.0  0.98027  0.08463  0.98399  1.0000
  C   C23       1.0  0.25740  0.81106  0.80498  1.0000
  C   C24       1.0  0.74260  0.18895  0.19502  1.0000
  C   C25       1.0  0.25771  0.66299  0.99919  1.0000
  C   C26       1.0  0.74229  0.33701  0.00080  1.0000
  S   S1        1.0  0.27700  0.86220  0.26442  1.0000
  S   S2        1.0  0.72300  0.13779  0.73558  1.0000
  N   N1        1.0  0.22296  0.81974  0.94931  1.0000
  N   N2        1.0  0.77703  0.18027  0.05069  1.0000
