data_image0
_chemical_formula_structural       Sr4H28C28N4O24
_chemical_formula_sum              "Sr4 H28 C28 N4 O24"
_cell_length_a       6.61709
_cell_length_b       6.85664
_cell_length_c       19.8215
_cell_angle_alpha    90.0001
_cell_angle_beta     90.0001
_cell_angle_gamma    92.0467

_space_group_name_H-M_alt    "P 1"
_space_group_IT_number       1

loop_
  _space_group_symop_operation_xyz
  'x, y, z'

loop_
  _atom_site_type_symbol
  _atom_site_label
  _atom_site_symmetry_multiplicity
  _atom_site_fract_x
  _atom_site_fract_y
  _atom_site_fract_z
  _atom_site_occupancy
  Sr  Sr1       1.0  0.62644  0.41716  0.68908  1.0000
  Sr  Sr2       1.0  0.87356  0.58284  0.18908  1.0000
  Sr  Sr3       1.0  0.37356  0.58284  0.31092  1.0000
  Sr  Sr4       1.0  0.12644  0.41716  0.81092  1.0000
  H   H1        1.0  0.25831  0.72938  0.69956  1.0000
  H   H2        1.0  0.24169  0.27062  0.19956  1.0000
  H   H3        1.0  0.74169  0.27062  0.30044  1.0000
  H   H4        1.0  0.75831  0.72938  0.80044  1.0000
  H   H5        1.0  0.41102  0.74791  0.76190  1.0000
  H   H6        1.0  0.08898  0.25209  0.26190  1.0000
  H   H7        1.0  0.58898  0.25209  0.23810  1.0000
  H   H8        1.0  0.91103  0.74792  0.73810  1.0000
  H   H9        1.0  0.65107  0.94687  0.68250  1.0000
  H   H10       1.0  0.84893  0.05313  0.18250  1.0000
  H   H11       1.0  0.34893  0.05313  0.31750  1.0000
  H   H12       1.0  0.15107  0.94687  0.81750  1.0000
  H   H13       1.0  0.58016  0.00674  0.75574  1.0000
  H   H14       1.0  0.91985  0.99326  0.25574  1.0000
  H   H15       1.0  0.41985  0.99326  0.24426  1.0000
  H   H16       1.0  0.08016  0.00674  0.74426  1.0000
  H   H17       1.0  0.24879  0.29310  0.49936  1.0000
  H   H18       1.0  0.25121  0.70690  0.99936  1.0000
  H   H19       1.0  0.75121  0.70689  0.50064  1.0000
  H   H20       1.0  0.74879  0.29311  0.00064  1.0000
  H   H21       1.0  0.66505  0.14609  0.41318  1.0000
  H   H22       1.0  0.83495  0.85391  0.91318  1.0000
  H   H23       1.0  0.33495  0.85391  0.58682  1.0000
  H   H24       1.0  0.16505  0.14609  0.08682  1.0000
  H   H25       1.0  0.51649  0.19892  0.52855  1.0000
  H   H26       1.0  0.98351  0.80108  0.02855  1.0000
  H   H27       1.0  0.48352  0.80108  0.47145  1.0000
  H   H28       1.0  0.01649  0.19892  0.97145  1.0000
  C   C1        1.0  0.11586  0.33263  0.62967  1.0000
  C   C2        1.0  0.38414  0.66737  0.12967  1.0000
  C   C3        1.0  0.88415  0.66737  0.37033  1.0000
  C   C4        1.0  0.61585  0.33263  0.87033  1.0000
  C   C5        1.0  0.99239  0.28750  0.56651  1.0000
  C   C6        1.0  0.50761  0.71250  0.06652  1.0000
  C   C7        1.0  0.00762  0.71250  0.43348  1.0000
  C   C8        1.0  0.49239  0.28750  0.93348  1.0000
  C   C9        1.0  0.08655  0.26762  0.50403  1.0000
  C   C10       1.0  0.41345  0.73238  0.00404  1.0000
  C   C11       1.0  0.91345  0.73238  0.49596  1.0000
  C   C12       1.0  0.58655  0.26762  0.99596  1.0000
  C   C13       1.0  0.96991  0.21944  0.44745  1.0000
  C   C14       1.0  0.53009  0.78055  0.94745  1.0000
  C   C15       1.0  0.03010  0.78055  0.55255  1.0000
  C   C16       1.0  0.46990  0.21945  0.05255  1.0000
  C   C17       1.0  0.06854  0.20289  0.37933  1.0000
  C   C18       1.0  0.43146  0.79711  0.87933  1.0000
  C   C19       1.0  0.93146  0.79711  0.62067  1.0000
  C   C20       1.0  0.56854  0.20289  0.12067  1.0000
  C   C21       1.0  0.76116  0.18921  0.45563  1.0000
  C   C22       1.0  0.73884  0.81078  0.95563  1.0000
  C   C23       1.0  0.23884  0.81078  0.54437  1.0000
  C   C24       1.0  0.26116  0.18922  0.04437  1.0000
  C   C25       1.0  0.67863  0.21685  0.51945  1.0000
  C   C26       1.0  0.82137  0.78315  0.01945  1.0000
  C   C27       1.0  0.32138  0.78315  0.48055  1.0000
  C   C28       1.0  0.17863  0.21685  0.98055  1.0000
  N   N1        1.0  0.79013  0.26777  0.57368  1.0000
  N   N2        1.0  0.70987  0.73223  0.07368  1.0000
  N   N3        1.0  0.20987  0.73223  0.42632  1.0000
  N   N4        1.0  0.29013  0.26777  0.92632  1.0000
  O   O1        1.0  0.01738  0.36553  0.68371  1.0000
  O   O2        1.0  0.48261  0.63447  0.18371  1.0000
  O   O3        1.0  0.98262  0.63447  0.31629  1.0000
  O   O4        1.0  0.51738  0.36553  0.81629  1.0000
  O   O5        1.0  0.30580  0.33377  0.62383  1.0000
  O   O6        1.0  0.19419  0.66624  0.12384  1.0000
  O   O7        1.0  0.69420  0.66623  0.37617  1.0000
  O   O8        1.0  0.80581  0.33377  0.87616  1.0000
  O   O9        1.0  0.25696  0.24276  0.37456  1.0000
  O   O10       1.0  0.24304  0.75724  0.87456  1.0000
  O   O11       1.0  0.74304  0.75724  0.62544  1.0000
  O   O12       1.0  0.75696  0.24276  0.12544  1.0000
  O   O13       1.0  0.95511  0.15223  0.32960  1.0000
  O   O14       1.0  0.54488  0.84776  0.82960  1.0000
  O   O15       1.0  0.04488  0.84776  0.67040  1.0000
  O   O16       1.0  0.45512  0.15224  0.17040  1.0000
  O   O17       1.0  0.35091  0.65480  0.72821  1.0000
  O   O18       1.0  0.14909  0.34520  0.22821  1.0000
  O   O19       1.0  0.64909  0.34520  0.27179  1.0000
  O   O20       1.0  0.85091  0.65480  0.77179  1.0000
  O   O21       1.0  0.61150  0.05814  0.71061  1.0000
  O   O22       1.0  0.88850  0.94186  0.21061  1.0000
  O   O23       1.0  0.38850  0.94186  0.28939  1.0000
  O   O24       1.0  0.11150  0.05814  0.78939  1.0000
