data_image0
_chemical_formula_structural       Cd2H20C28S4N24
_chemical_formula_sum              "Cd2 H20 C28 S4 N24"
_cell_length_a       7.32483
_cell_length_b       10.994
_cell_length_c       13.4498
_cell_angle_alpha    114.257
_cell_angle_beta     105.823
_cell_angle_gamma    90.0148

_space_group_name_H-M_alt    "P 1"
_space_group_IT_number       1

loop_
  _space_group_symop_operation_xyz
  'x, y, z'

loop_
  _atom_site_type_symbol
  _atom_site_label
  _atom_site_symmetry_multiplicity
  _atom_site_fract_x
  _atom_site_fract_y
  _atom_site_fract_z
  _atom_site_occupancy
  Cd  Cd1       1.0  0.59100  0.74987  0.99991  1.0000
  Cd  Cd2       1.0  0.40898  0.25012  0.00009  1.0000
  H   H1        1.0  0.80463  0.00762  0.94225  1.0000
  H   H2        1.0  0.86311  0.49232  0.05766  1.0000
  H   H3        1.0  0.19537  0.99237  0.05775  1.0000
  H   H4        1.0  0.13690  0.50768  0.94234  1.0000
  H   H5        1.0  0.70829  0.58700  0.75279  1.0000
  H   H6        1.0  0.95566  0.91290  0.24725  1.0000
  H   H7        1.0  0.29170  0.41300  0.24721  1.0000
  H   H8        1.0  0.04434  0.08710  0.75275  1.0000
  H   H9        1.0  0.91610  0.86425  0.59886  1.0000
  H   H10       1.0  0.31706  0.63582  0.40149  1.0000
  H   H11       1.0  0.08390  0.13575  0.40114  1.0000
  H   H12       1.0  0.68294  0.36418  0.59852  1.0000
  H   H13       1.0  0.69180  0.38416  0.39700  1.0000
  H   H14       1.0  0.29537  0.11597  0.60306  1.0000
  H   H15       1.0  0.30820  0.61584  0.60299  1.0000
  H   H16       1.0  0.70464  0.88403  0.39694  1.0000
  H   H17       1.0  0.79906  0.51184  0.29910  1.0000
  H   H18       1.0  0.50039  0.98834  0.70110  1.0000
  H   H19       1.0  0.20094  0.48817  0.70090  1.0000
  H   H20       1.0  0.49963  0.01166  0.29890  1.0000
  C   C1        1.0  0.79225  0.90778  0.87425  1.0000
  C   C2        1.0  0.91856  0.59218  0.12569  1.0000
  C   C3        1.0  0.20775  0.09221  0.12574  1.0000
  C   C4        1.0  0.08145  0.40782  0.87432  1.0000
  C   C5        1.0  0.74070  0.69406  0.78021  1.0000
  C   C6        1.0  0.96072  0.80584  0.21977  1.0000
  C   C7        1.0  0.25929  0.30594  0.21979  1.0000
  C   C8        1.0  0.03929  0.19415  0.78023  1.0000
  C   C9        1.0  0.56617  0.41450  0.87005  1.0000
  C   C10       1.0  0.69612  0.08537  0.12995  1.0000
  C   C11       1.0  0.43384  0.58548  0.12994  1.0000
  C   C12       1.0  0.30387  0.91461  0.87005  1.0000
  C   C13       1.0  0.80098  0.68494  0.60450  1.0000
  C   C14       1.0  0.19667  0.81513  0.39569  1.0000
  C   C15       1.0  0.19902  0.31507  0.39550  1.0000
  C   C16       1.0  0.80333  0.18487  0.60431  1.0000
  C   C17       1.0  0.86771  0.75661  0.55339  1.0000
  C   C18       1.0  0.31423  0.74347  0.44691  1.0000
  C   C19       1.0  0.13228  0.24340  0.44661  1.0000
  C   C20       1.0  0.68577  0.25654  0.55309  1.0000
  C   C21       1.0  0.74201  0.49182  0.44212  1.0000
  C   C22       1.0  0.30024  0.00828  0.55806  1.0000
  C   C23       1.0  0.25799  0.50818  0.55788  1.0000
  C   C24       1.0  0.69977  0.99173  0.44195  1.0000
  C   C25       1.0  0.80233  0.56218  0.38839  1.0000
  C   C26       1.0  0.41426  0.93794  0.61182  1.0000
  C   C27       1.0  0.19767  0.43782  0.61161  1.0000
  C   C28       1.0  0.58575  0.06206  0.38818  1.0000
  S   S1        1.0  0.61227  0.26635  0.86163  1.0000
  S   S2        1.0  0.75087  0.23375  0.13885  1.0000
  S   S3        1.0  0.38773  0.73364  0.13837  1.0000
  S   S4        1.0  0.24912  0.76624  0.86113  1.0000
  N   N1        1.0  0.74054  0.79148  0.88007  1.0000
  N   N2        1.0  0.86087  0.70842  0.11982  1.0000
  N   N3        1.0  0.25945  0.20852  0.11993  1.0000
  N   N4        1.0  0.13914  0.29158  0.88018  1.0000
  N   N5        1.0  0.53373  0.52264  0.87632  1.0000
  N   N6        1.0  0.65728  0.97706  0.12331  1.0000
  N   N7        1.0  0.46627  0.47735  0.12367  1.0000
  N   N8        1.0  0.34271  0.02294  0.87669  1.0000
  N   N9        1.0  0.79008  0.75056  0.71735  1.0000
  N   N10       1.0  0.07300  0.74947  0.28274  1.0000
  N   N11       1.0  0.20991  0.24944  0.28265  1.0000
  N   N12       1.0  0.92701  0.25053  0.71727  1.0000
  N   N13       1.0  0.82421  0.88737  0.77663  1.0000
  N   N14       1.0  0.04802  0.61267  0.22342  1.0000
  N   N15       1.0  0.17578  0.11262  0.22337  1.0000
  N   N16       1.0  0.95199  0.38733  0.77659  1.0000
  N   N17       1.0  0.74060  0.55370  0.55095  1.0000
  N   N18       1.0  0.18997  0.94637  0.44918  1.0000
  N   N19       1.0  0.25940  0.44630  0.44905  1.0000
  N   N20       1.0  0.81004  0.05364  0.55082  1.0000
  N   N21       1.0  0.86595  0.69427  0.44428  1.0000
  N   N22       1.0  0.42168  0.80580  0.55604  1.0000
  N   N23       1.0  0.13405  0.30573  0.55572  1.0000
  N   N24       1.0  0.57833  0.19420  0.44397  1.0000
