data_image0
_chemical_formula_structural       Zn2H36C48N4O10
_chemical_formula_sum              "Zn2 H36 C48 N4 O10"
_cell_length_a       8.97605
_cell_length_b       11.1633
_cell_length_c       11.5739
_cell_angle_alpha    69.0125
_cell_angle_beta     76.2801
_cell_angle_gamma    91.6107

_space_group_name_H-M_alt    "P 1"
_space_group_IT_number       1

loop_
  _space_group_symop_operation_xyz
  'x, y, z'

loop_
  _atom_site_type_symbol
  _atom_site_label
  _atom_site_symmetry_multiplicity
  _atom_site_fract_x
  _atom_site_fract_y
  _atom_site_fract_z
  _atom_site_occupancy
  Zn  Zn1       1.0  0.22270  0.15756  0.83901  1.0000
  Zn  Zn2       1.0  0.77730  0.84244  0.16098  1.0000
  H   H1        1.0  0.96917  0.13677  0.68458  1.0000
  H   H2        1.0  0.03083  0.86323  0.31542  1.0000
  H   H3        1.0  0.45420  0.28240  0.99524  1.0000
  H   H4        1.0  0.54580  0.71759  0.00476  1.0000
  H   H5        1.0  0.81922  0.31721  0.71386  1.0000
  H   H6        1.0  0.18078  0.68279  0.28615  1.0000
  H   H7        1.0  0.18397  0.02772  0.36988  1.0000
  H   H8        1.0  0.81603  0.97229  0.63012  1.0000
  H   H9        1.0  0.47310  0.06235  0.15030  1.0000
  H   H10       1.0  0.52690  0.93765  0.84969  1.0000
  H   H11       1.0  0.71581  0.25602  0.96938  1.0000
  H   H12       1.0  0.28419  0.74398  0.03062  1.0000
  H   H13       1.0  0.62679  0.08063  0.26559  1.0000
  H   H14       1.0  0.37321  0.91936  0.73441  1.0000
  H   H15       1.0  0.21489  0.94927  0.58342  1.0000
  H   H16       1.0  0.78511  0.05073  0.41657  1.0000
  H   H17       1.0  0.76516  0.59739  0.97409  1.0000
  H   H18       1.0  0.23483  0.40261  0.02591  1.0000
  H   H19       1.0  0.83818  0.42996  0.47801  1.0000
  H   H20       1.0  0.16182  0.57004  0.52199  1.0000
  H   H21       1.0  0.95407  0.49374  0.89096  1.0000
  H   H22       1.0  0.04593  0.50626  0.10904  1.0000
  H   H23       1.0  0.20045  0.34116  0.28196  1.0000
  H   H24       1.0  0.79955  0.65884  0.71804  1.0000
  H   H25       1.0  0.96174  0.21577  0.45352  1.0000
  H   H26       1.0  0.03827  0.78423  0.54648  1.0000
  H   H27       1.0  0.70762  0.47558  0.29689  1.0000
  H   H28       1.0  0.29238  0.52442  0.70312  1.0000
  H   H29       1.0  0.47770  0.43983  0.22683  1.0000
  H   H30       1.0  0.52231  0.56017  0.77317  1.0000
  H   H31       1.0  0.56774  0.19001  0.86075  1.0000
  H   H32       1.0  0.43226  0.80999  0.13926  1.0000
  H   H33       1.0  0.05806  0.94996  0.85725  1.0000
  H   H34       1.0  0.94195  0.05005  0.14275  1.0000
  H   H35       1.0  0.13530  0.91281  0.97025  1.0000
  H   H36       1.0  0.86470  0.08719  0.02975  1.0000
  C   C1        1.0  0.06989  0.19206  0.60736  1.0000
  C   C2        1.0  0.93012  0.80793  0.39264  1.0000
  C   C3        1.0  0.40748  0.01658  0.41283  1.0000
  C   C4        1.0  0.59252  0.98342  0.58717  1.0000
  C   C5        1.0  0.47432  0.37738  0.99902  1.0000
  C   C6        1.0  0.52568  0.62262  0.00098  1.0000
  C   C7        1.0  0.32605  0.27786  0.55143  1.0000
  C   C8        1.0  0.67395  0.72214  0.44857  1.0000
  C   C9        1.0  0.60049  0.36308  0.50013  1.0000
  C   C10       1.0  0.39951  0.63692  0.49988  1.0000
  C   C11       1.0  0.33343  0.32906  0.41867  1.0000
  C   C12       1.0  0.66658  0.67094  0.58133  1.0000
  C   C13       1.0  0.62676  0.43045  0.98044  1.0000
  C   C14       1.0  0.37324  0.56955  0.01956  1.0000
  C   C15       1.0  0.72080  0.31323  0.67502  1.0000
  C   C16       1.0  0.27920  0.68677  0.32498  1.0000
  C   C17       1.0  0.30788  0.03393  0.32705  1.0000
  C   C18       1.0  0.69212  0.96607  0.67294  1.0000
  C   C19       1.0  0.35230  0.05828  0.20018  1.0000
  C   C20       1.0  0.64770  0.94173  0.79982  1.0000
  C   C21       1.0  0.75145  0.35606  0.95448  1.0000
  C   C22       1.0  0.24854  0.64394  0.04551  1.0000
  C   C23       1.0  0.56965  0.04571  0.36790  1.0000
  C   C24       1.0  0.43035  0.95430  0.63209  1.0000
  C   C25       1.0  0.34043  0.97119  0.54649  1.0000
  C   C26       1.0  0.65957  0.02881  0.45351  1.0000
  C   C27       1.0  0.65038  0.55479  0.98259  1.0000
  C   C28       1.0  0.34962  0.44520  0.01741  1.0000
  C   C29       1.0  0.46255  0.29210  0.59256  1.0000
  C   C30       1.0  0.53745  0.70790  0.40744  1.0000
  C   C31       1.0  0.73072  0.37426  0.54586  1.0000
  C   C32       1.0  0.26928  0.62574  0.45414  1.0000
  C   C33       1.0  0.90477  0.39606  0.90940  1.0000
  C   C34       1.0  0.09523  0.60394  0.09060  1.0000
  C   C35       1.0  0.19842  0.30579  0.38333  1.0000
  C   C36       1.0  0.80159  0.69421  0.61667  1.0000
  C   C37       1.0  0.06712  0.23657  0.47770  1.0000
  C   C38       1.0  0.93288  0.76343  0.52230  1.0000
  C   C39       1.0  0.24069  0.08187  0.11988  1.0000
  C   C40       1.0  0.75931  0.91813  0.88013  1.0000
  C   C41       1.0  0.01425  0.30745  0.88099  1.0000
  C   C42       1.0  0.98575  0.69255  0.11901  1.0000
  C   C43       1.0  0.60256  0.41798  0.36723  1.0000
  C   C44       1.0  0.39744  0.58202  0.63277  1.0000
  C   C45       1.0  0.47442  0.39984  0.32822  1.0000
  C   C46       1.0  0.52558  0.60016  0.67179  1.0000
  C   C47       1.0  0.57995  0.24234  0.75880  1.0000
  C   C48       1.0  0.42005  0.75765  0.24121  1.0000
  N   N1        1.0  0.19572  0.21266  0.64279  1.0000
  N   N2        1.0  0.80428  0.78734  0.35721  1.0000
  N   N3        1.0  0.45379  0.23393  0.71930  1.0000
  N   N4        1.0  0.54621  0.76607  0.28070  1.0000
  O   O1        1.0  0.15949  0.96651  0.87663  1.0000
  O   O2        1.0  0.84051  0.03349  0.12337  1.0000
  O   O3        1.0  0.09978  0.08214  0.17156  1.0000
  O   O4        1.0  0.90022  0.91786  0.82845  1.0000
  O   O5        1.0  0.96308  0.19647  0.88634  1.0000
  O   O6        1.0  0.03692  0.80352  0.11366  1.0000
  O   O7        1.0  0.15943  0.34371  0.84958  1.0000
  O   O8        1.0  0.84056  0.65629  0.15041  1.0000
  O   O9        1.0  0.30223  0.10283  0.00064  1.0000
  O   O10       1.0  0.69776  0.89717  0.99936  1.0000
