data_image0
_chemical_formula_structural       Na4H24C20S4O26
_chemical_formula_sum              "Na4 H24 C20 S4 O26"
_cell_length_a       6.49998
_cell_length_b       11.0273
_cell_length_c       12.5644
_cell_angle_alpha    109.713
_cell_angle_beta     104.972
_cell_angle_gamma    89.9871

_space_group_name_H-M_alt    "P 1"
_space_group_IT_number       1

loop_
  _space_group_symop_operation_xyz
  'x, y, z'

loop_
  _atom_site_type_symbol
  _atom_site_label
  _atom_site_symmetry_multiplicity
  _atom_site_fract_x
  _atom_site_fract_y
  _atom_site_fract_z
  _atom_site_occupancy
  Na  Na1       1.0  0.22043  0.41373  0.97152  1.0000
  Na  Na2       1.0  0.24904  0.08631  0.02846  1.0000
  Na  Na3       1.0  0.77956  0.58627  0.02847  1.0000
  Na  Na4       1.0  0.75096  0.91369  0.97154  1.0000
  H   H1        1.0  0.22955  0.64356  0.16530  1.0000
  H   H2        1.0  0.06470  0.85642  0.83479  1.0000
  H   H3        1.0  0.77045  0.35645  0.83470  1.0000
  H   H4        1.0  0.93529  0.14358  0.16521  1.0000
  H   H5        1.0  0.16500  0.54101  0.21526  1.0000
  H   H6        1.0  0.95019  0.95898  0.78480  1.0000
  H   H7        1.0  0.83500  0.45899  0.78474  1.0000
  H   H8        1.0  0.04981  0.04103  0.21520  1.0000
  H   H9        1.0  0.89852  0.21747  0.93217  1.0000
  H   H10       1.0  0.96599  0.28252  0.06771  1.0000
  H   H11       1.0  0.10148  0.78253  0.06783  1.0000
  H   H12       1.0  0.03401  0.71748  0.93229  1.0000
  H   H13       1.0  0.31558  0.31898  0.71898  1.0000
  H   H14       1.0  0.59661  0.18087  0.28096  1.0000
  H   H15       1.0  0.68442  0.68101  0.28102  1.0000
  H   H16       1.0  0.40340  0.81914  0.71905  1.0000
  H   H17       1.0  0.24849  0.21668  0.47970  1.0000
  H   H18       1.0  0.76924  0.28320  0.52012  1.0000
  H   H19       1.0  0.75152  0.78331  0.52030  1.0000
  H   H20       1.0  0.23076  0.71680  0.47989  1.0000
  H   H21       1.0  0.22106  0.33023  0.31105  1.0000
  H   H22       1.0  0.91012  0.16987  0.68876  1.0000
  H   H23       1.0  0.77894  0.66975  0.68895  1.0000
  H   H24       1.0  0.08989  0.83013  0.31124  1.0000
  C   C1        1.0  0.31249  0.50284  0.68700  1.0000
  C   C2        1.0  0.62510  0.99703  0.31301  1.0000
  C   C3        1.0  0.68750  0.49716  0.31300  1.0000
  C   C4        1.0  0.37491  0.00297  0.68699  1.0000
  C   C5        1.0  0.25812  0.42208  0.49551  1.0000
  C   C6        1.0  0.76237  0.07785  0.50445  1.0000
  C   C7        1.0  0.74188  0.57791  0.50449  1.0000
  C   C8        1.0  0.23764  0.92215  0.49556  1.0000
  C   C9        1.0  0.26749  0.31852  0.53459  1.0000
  C   C10       1.0  0.73297  0.18137  0.46529  1.0000
  C   C11       1.0  0.73251  0.68148  0.46541  1.0000
  C   C12       1.0  0.26704  0.81863  0.53471  1.0000
  C   C13       1.0  0.30180  0.37078  0.65821  1.0000
  C   C14       1.0  0.64359  0.12909  0.34171  1.0000
  C   C15       1.0  0.69820  0.62922  0.34178  1.0000
  C   C16       1.0  0.35642  0.87091  0.65830  1.0000
  C   C17       1.0  0.22903  0.42586  0.37967  1.0000
  C   C18       1.0  0.84932  0.07419  0.62030  1.0000
  C   C19       1.0  0.77097  0.57413  0.62033  1.0000
  C   C20       1.0  0.15068  0.92581  0.37970  1.0000
  S   S1        1.0  0.35836  0.62988  0.82416  1.0000
  S   S2        1.0  0.53367  0.87006  0.17585  1.0000
  S   S3        1.0  0.64164  0.37011  0.17583  1.0000
  S   S4        1.0  0.46634  0.12994  0.82415  1.0000
  O   O1        1.0  0.15947  0.69457  0.81710  1.0000
  O   O2        1.0  0.34187  0.80549  0.18300  1.0000
  O   O3        1.0  0.84052  0.30543  0.18289  1.0000
  O   O4        1.0  0.65813  0.19451  0.81700  1.0000
  O   O5        1.0  0.39780  0.56413  0.91012  1.0000
  O   O6        1.0  0.48711  0.93582  0.08990  1.0000
  O   O7        1.0  0.60219  0.43587  0.08987  1.0000
  O   O8        1.0  0.51290  0.06419  0.91011  1.0000
  O   O9        1.0  0.54187  0.71252  0.83271  1.0000
  O   O10       1.0  0.70863  0.78738  0.16724  1.0000
  O   O11       1.0  0.45812  0.28747  0.16728  1.0000
  O   O12       1.0  0.29137  0.21263  0.83276  1.0000
  O   O13       1.0  0.13634  0.56380  0.14318  1.0000
  O   O14       1.0  0.99365  0.93624  0.85691  1.0000
  O   O15       1.0  0.86365  0.43621  0.85682  1.0000
  O   O16       1.0  0.00635  0.06377  0.14310  1.0000
  O   O17       1.0  0.02591  0.25008  0.99998  1.0000
  O   O18       1.0  0.97410  0.74992  0.00002  1.0000
  O   O19       1.0  0.28496  0.53699  0.58994  1.0000
  O   O20       1.0  0.69449  0.96291  0.41008  1.0000
  O   O21       1.0  0.71504  0.46300  0.41005  1.0000
  O   O22       1.0  0.30551  0.03709  0.58992  1.0000
  O   O23       1.0  0.21527  0.52640  0.35532  1.0000
  O   O24       1.0  0.86011  0.97370  0.64474  1.0000
  O   O25       1.0  0.78471  0.47359  0.64466  1.0000
  O   O26       1.0  0.13989  0.02630  0.35526  1.0000
