data_image0
_chemical_formula_structural       Cu8H40C52S8I8Br8
_chemical_formula_sum              "Cu8 H40 C52 S8 I8 Br8"
_cell_length_a       12.222
_cell_length_b       12.2607
_cell_length_c       14.7718
_cell_angle_alpha    98.8754
_cell_angle_beta     110.801
_cell_angle_gamma    113.243

_space_group_name_H-M_alt    "P 1"
_space_group_IT_number       1

loop_
  _space_group_symop_operation_xyz
  'x, y, z'

loop_
  _atom_site_type_symbol
  _atom_site_label
  _atom_site_symmetry_multiplicity
  _atom_site_fract_x
  _atom_site_fract_y
  _atom_site_fract_z
  _atom_site_occupancy
  Cu  Cu1       1.0  0.24026  0.86504  0.27027  1.0000
  Cu  Cu2       1.0  0.09439  0.96937  0.22954  1.0000
  Cu  Cu3       1.0  0.75975  0.13496  0.72973  1.0000
  Cu  Cu4       1.0  0.90561  0.03062  0.77047  1.0000
  Cu  Cu5       1.0  0.34846  0.11770  0.34662  1.0000
  Cu  Cu6       1.0  0.27099  0.00168  0.15286  1.0000
  Cu  Cu7       1.0  0.65155  0.88230  0.65339  1.0000
  Cu  Cu8       1.0  0.72902  0.99832  0.84715  1.0000
  H   H1        1.0  0.52030  0.11725  0.55493  1.0000
  H   H2        1.0  0.06111  0.96562  0.94334  1.0000
  H   H3        1.0  0.47970  0.88275  0.44507  1.0000
  H   H4        1.0  0.93889  0.03438  0.05667  1.0000
  H   H5        1.0  0.64544  0.19621  0.51752  1.0000
  H   H6        1.0  0.17975  0.12823  0.98258  1.0000
  H   H7        1.0  0.35456  0.80379  0.48247  1.0000
  H   H8        1.0  0.82025  0.87177  0.01742  1.0000
  H   H9        1.0  0.64476  0.54312  0.62231  1.0000
  H   H10       1.0  0.41999  0.02134  0.87772  1.0000
  H   H11       1.0  0.35524  0.45689  0.37769  1.0000
  H   H12       1.0  0.58001  0.97866  0.12229  1.0000
  H   H13       1.0  0.58892  0.30044  0.34629  1.0000
  H   H14       1.0  0.45541  0.24347  0.15375  1.0000
  H   H15       1.0  0.41108  0.69956  0.65372  1.0000
  H   H16       1.0  0.54459  0.75653  0.84625  1.0000
  H   H17       1.0  0.81032  0.72845  0.60704  1.0000
  H   H18       1.0  0.62074  0.20308  0.89338  1.0000
  H   H19       1.0  0.18967  0.27156  0.39296  1.0000
  H   H20       1.0  0.37925  0.79692  0.10662  1.0000
  H   H21       1.0  0.75220  0.48636  0.32970  1.0000
  H   H22       1.0  0.65822  0.42436  0.17073  1.0000
  H   H23       1.0  0.24779  0.51364  0.67030  1.0000
  H   H24       1.0  0.34178  0.57564  0.82926  1.0000
  H   H25       1.0  0.85969  0.54604  0.82841  1.0000
  H   H26       1.0  0.21690  0.03014  0.67155  1.0000
  H   H27       1.0  0.14031  0.45395  0.17159  1.0000
  H   H28       1.0  0.78310  0.96986  0.32845  1.0000
  H   H29       1.0  0.85676  0.31201  0.57541  1.0000
  H   H30       1.0  0.23739  0.28168  0.92461  1.0000
  H   H31       1.0  0.14324  0.68799  0.42459  1.0000
  H   H32       1.0  0.76261  0.71832  0.07539  1.0000
  H   H33       1.0  0.05292  0.73203  0.83870  1.0000
  H   H34       1.0  0.39234  0.21339  0.66171  1.0000
  H   H35       1.0  0.94708  0.26797  0.16130  1.0000
  H   H36       1.0  0.60765  0.78660  0.33829  1.0000
  H   H37       1.0  0.04149  0.49834  0.58119  1.0000
  H   H38       1.0  0.41765  0.46112  0.91910  1.0000
  H   H39       1.0  0.95850  0.50166  0.41880  1.0000
  H   H40       1.0  0.58235  0.53888  0.08090  1.0000
  C   C1        1.0  0.59308  0.21039  0.56119  1.0000
  C   C2        1.0  0.14933  0.03192  0.93841  1.0000
  C   C3        1.0  0.40692  0.78961  0.43881  1.0000
  C   C4        1.0  0.85068  0.96808  0.06159  1.0000
  C   C5        1.0  0.60786  0.41020  0.48600  1.0000
  C   C6        1.0  0.42480  0.12159  0.01430  1.0000
  C   C7        1.0  0.39214  0.58981  0.51400  1.0000
  C   C8        1.0  0.57520  0.87841  0.98571  1.0000
  C   C9        1.0  0.66862  0.53073  0.55833  1.0000
  C   C10       1.0  0.47225  0.10973  0.94191  1.0000
  C   C11       1.0  0.33138  0.46928  0.44167  1.0000
  C   C12       1.0  0.52775  0.89027  0.05809  1.0000
  C   C13       1.0  0.63674  0.39412  0.40301  1.0000
  C   C14       1.0  0.49219  0.23436  0.09726  1.0000
  C   C15       1.0  0.36326  0.60589  0.59699  1.0000
  C   C16       1.0  0.50781  0.76564  0.90274  1.0000
  C   C17       1.0  0.84444  0.41779  0.70055  1.0000
  C   C18       1.0  0.21764  0.14343  0.79974  1.0000
  C   C19       1.0  0.15556  0.58221  0.29945  1.0000
  C   C20       1.0  0.78236  0.85657  0.20026  1.0000
  C   C21       1.0  0.76140  0.63498  0.54979  1.0000
  C   C22       1.0  0.58505  0.21159  0.95061  1.0000
  C   C23       1.0  0.23859  0.36503  0.45021  1.0000
  C   C24       1.0  0.41495  0.78841  0.04939  1.0000
  C   C25       1.0  0.72866  0.49815  0.39373  1.0000
  C   C26       1.0  0.60555  0.33610  0.10670  1.0000
  C   C27       1.0  0.27134  0.50185  0.60627  1.0000
  C   C28       1.0  0.39445  0.66390  0.89330  1.0000
  C   C29       1.0  0.90053  0.53568  0.77488  1.0000
  C   C30       1.0  0.26050  0.12484  0.72534  1.0000
  C   C31       1.0  0.09947  0.46431  0.22512  1.0000
  C   C32       1.0  0.73950  0.87516  0.27466  1.0000
  C   C33       1.0  0.89664  0.40377  0.63185  1.0000
  C   C34       1.0  0.27257  0.26490  0.86840  1.0000
  C   C35       1.0  0.10336  0.59623  0.36815  1.0000
  C   C36       1.0  0.72743  0.73510  0.13160  1.0000
  C   C37       1.0  0.79118  0.61738  0.46764  1.0000
  C   C38       1.0  0.65030  0.32429  0.03289  1.0000
  C   C39       1.0  0.20881  0.38262  0.53236  1.0000
  C   C40       1.0  0.34969  0.67571  0.96711  1.0000
  C   C41       1.0  0.00821  0.64051  0.78023  1.0000
  C   C42       1.0  0.35979  0.22737  0.72016  1.0000
  C   C43       1.0  0.99178  0.35948  0.21976  1.0000
  C   C44       1.0  0.64021  0.77263  0.27983  1.0000
  C   C45       1.0  0.00176  0.50854  0.63533  1.0000
  C   C46       1.0  0.37367  0.36679  0.86503  1.0000
  C   C47       1.0  0.99823  0.49145  0.36466  1.0000
  C   C48       1.0  0.62633  0.63321  0.13496  1.0000
  C   C49       1.0  0.05689  0.62603  0.70955  1.0000
  C   C50       1.0  0.41653  0.34730  0.79099  1.0000
  C   C51       1.0  0.94310  0.37397  0.29044  1.0000
  C   C52       1.0  0.58347  0.65269  0.20900  1.0000
  S   S1        1.0  0.70712  0.28858  0.69797  1.0000
  S   S2        1.0  0.09070  0.00855  0.80187  1.0000
  S   S3        1.0  0.29289  0.71141  0.30203  1.0000
  S   S4        1.0  0.90931  0.99144  0.19814  1.0000
  S   S5        1.0  0.49175  0.27951  0.50123  1.0000
  S   S6        1.0  0.27817  0.99018  0.99868  1.0000
  S   S7        1.0  0.50825  0.72049  0.49877  1.0000
  S   S8        1.0  0.72183  0.00982  0.00133  1.0000
  I   I1        1.0  0.19726  0.96573  0.42018  1.0000
  I   I2        1.0  0.04478  0.77660  0.07877  1.0000
  I   I3        1.0  0.80275  0.03427  0.57982  1.0000
  I   I4        1.0  0.95522  0.22340  0.92123  1.0000
  I   I5        1.0  0.49270  0.02345  0.29443  1.0000
  I   I6        1.0  0.22976  0.19793  0.20583  1.0000
  I   I7        1.0  0.50730  0.97655  0.70558  1.0000
  I   I8        1.0  0.77025  0.80207  0.79418  1.0000
  Br  Br1       1.0  0.92119  0.75728  0.45627  1.0000
  Br  Br2       1.0  0.80166  0.46617  0.04443  1.0000
  Br  Br3       1.0  0.07880  0.24272  0.54372  1.0000
  Br  Br4       1.0  0.19834  0.53383  0.95557  1.0000
  Br  Br5       1.0  0.20307  0.76638  0.71305  1.0000
  Br  Br6       1.0  0.55339  0.49004  0.78768  1.0000
  Br  Br7       1.0  0.79693  0.23362  0.28694  1.0000
  Br  Br8       1.0  0.44661  0.50995  0.21231  1.0000
