data_image0
_chemical_formula_structural       Cu8H64C60S8I8
_chemical_formula_sum              "Cu8 H64 C60 S8 I8"
_cell_length_a       12.107
_cell_length_b       12.2231
_cell_length_c       14.8258
_cell_angle_alpha    97.9689
_cell_angle_beta     111.224
_cell_angle_gamma    113.98

_space_group_name_H-M_alt    "P 1"
_space_group_IT_number       1

loop_
  _space_group_symop_operation_xyz
  'x, y, z'

loop_
  _atom_site_type_symbol
  _atom_site_label
  _atom_site_symmetry_multiplicity
  _atom_site_fract_x
  _atom_site_fract_y
  _atom_site_fract_z
  _atom_site_occupancy
  Cu  Cu1       1.0  0.24496  0.86839  0.27066  1.0000
  Cu  Cu2       1.0  0.09614  0.97086  0.22755  1.0000
  Cu  Cu3       1.0  0.75503  0.13160  0.72934  1.0000
  Cu  Cu4       1.0  0.90386  0.02914  0.77245  1.0000
  Cu  Cu5       1.0  0.27438  0.00538  0.15402  1.0000
  Cu  Cu6       1.0  0.35161  0.11911  0.34509  1.0000
  Cu  Cu7       1.0  0.72562  0.99462  0.84598  1.0000
  Cu  Cu8       1.0  0.64838  0.88088  0.65491  1.0000
  H   H1        1.0  0.35304  0.80242  0.48111  1.0000
  H   H2        1.0  0.81814  0.87093  0.01756  1.0000
  H   H3        1.0  0.64696  0.19758  0.51889  1.0000
  H   H4        1.0  0.18186  0.12907  0.98245  1.0000
  H   H5        1.0  0.48300  0.88375  0.44676  1.0000
  H   H6        1.0  0.93898  0.03466  0.05545  1.0000
  H   H7        1.0  0.51700  0.11625  0.55324  1.0000
  H   H8        1.0  0.06102  0.96534  0.94455  1.0000
  H   H9        1.0  0.13697  0.68011  0.41972  1.0000
  H   H10       1.0  0.75659  0.71641  0.07807  1.0000
  H   H11       1.0  0.86304  0.31989  0.58029  1.0000
  H   H12       1.0  0.24342  0.28360  0.92194  1.0000
  H   H13       1.0  0.94892  0.48682  0.41069  1.0000
  H   H14       1.0  0.57410  0.53716  0.08831  1.0000
  H   H15       1.0  0.05109  0.51318  0.58931  1.0000
  H   H16       1.0  0.42591  0.46285  0.91169  1.0000
  H   H17       1.0  0.74094  0.18789  0.20011  1.0000
  H   H18       1.0  0.49009  0.54367  0.29933  1.0000
  H   H19       1.0  0.25906  0.81211  0.79989  1.0000
  H   H20       1.0  0.50992  0.45634  0.70068  1.0000
  H   H21       1.0  0.77353  0.26861  0.32409  1.0000
  H   H22       1.0  0.44497  0.44971  0.17556  1.0000
  H   H23       1.0  0.22648  0.73140  0.67591  1.0000
  H   H24       1.0  0.55504  0.55030  0.82445  1.0000
  H   H25       1.0  0.85911  0.18369  0.31047  1.0000
  H   H26       1.0  0.37051  0.54591  0.18863  1.0000
  H   H27       1.0  0.14089  0.81631  0.68953  1.0000
  H   H28       1.0  0.62950  0.45410  0.81138  1.0000
  H   H29       1.0  0.94347  0.26590  0.15499  1.0000
  H   H30       1.0  0.61278  0.79047  0.34452  1.0000
  H   H31       1.0  0.05654  0.73411  0.84501  1.0000
  H   H32       1.0  0.38722  0.20953  0.65548  1.0000
  H   H33       1.0  0.13907  0.45637  0.16846  1.0000
  H   H34       1.0  0.78811  0.97222  0.33019  1.0000
  H   H35       1.0  0.86093  0.54364  0.83154  1.0000
  H   H36       1.0  0.21189  0.02778  0.66981  1.0000
  H   H37       1.0  0.41606  0.69133  0.65654  1.0000
  H   H38       1.0  0.53048  0.75736  0.84206  1.0000
  H   H39       1.0  0.58393  0.30866  0.34346  1.0000
  H   H40       1.0  0.46952  0.24264  0.15794  1.0000
  H   H41       1.0  0.25095  0.50066  0.67242  1.0000
  H   H42       1.0  0.32390  0.57464  0.82686  1.0000
  H   H43       1.0  0.74905  0.49933  0.32757  1.0000
  H   H44       1.0  0.67610  0.42536  0.17313  1.0000
  H   H45       1.0  0.09146  0.16888  0.50263  1.0000
  H   H46       1.0  0.16356  0.58571  0.99651  1.0000
  H   H47       1.0  0.90854  0.83111  0.49737  1.0000
  H   H48       1.0  0.83644  0.41429  0.00349  1.0000
  H   H49       1.0  0.12035  0.26526  0.61939  1.0000
  H   H50       1.0  0.14168  0.49630  0.87978  1.0000
  H   H51       1.0  0.87964  0.73474  0.38060  1.0000
  H   H52       1.0  0.85832  0.50370  0.12022  1.0000
  H   H53       1.0  0.99639  0.24782  0.50047  1.0000
  H   H54       1.0  0.24843  0.49650  0.99875  1.0000
  H   H55       1.0  0.00361  0.75217  0.49953  1.0000
  H   H56       1.0  0.75157  0.50350  0.00125  1.0000
  H   H57       1.0  0.18313  0.26728  0.39139  1.0000
  H   H58       1.0  0.37580  0.79212  0.10783  1.0000
  H   H59       1.0  0.81687  0.73272  0.60861  1.0000
  H   H60       1.0  0.62419  0.20788  0.89216  1.0000
  H   H61       1.0  0.34899  0.45542  0.37630  1.0000
  H   H62       1.0  0.57896  0.97443  0.12240  1.0000
  H   H63       1.0  0.65100  0.54458  0.62370  1.0000
  H   H64       1.0  0.42104  0.02557  0.87760  1.0000
  C   C1        1.0  0.40769  0.78934  0.43936  1.0000
  C   C2        1.0  0.84903  0.96766  0.06042  1.0000
  C   C3        1.0  0.59231  0.21066  0.56064  1.0000
  C   C4        1.0  0.15097  0.03235  0.93958  1.0000
  C   C5        1.0  0.15259  0.58007  0.29633  1.0000
  C   C6        1.0  0.78156  0.85660  0.20170  1.0000
  C   C7        1.0  0.84741  0.41994  0.70367  1.0000
  C   C8        1.0  0.21844  0.14341  0.79830  1.0000
  C   C9        1.0  0.09707  0.58899  0.36312  1.0000
  C   C10       1.0  0.72296  0.73359  0.13489  1.0000
  C   C11       1.0  0.90293  0.41101  0.63688  1.0000
  C   C12       1.0  0.27704  0.26642  0.86511  1.0000
  C   C13       1.0  0.99020  0.48003  0.35713  1.0000
  C   C14       1.0  0.62098  0.63271  0.14152  1.0000
  C   C15       1.0  0.00981  0.51997  0.64287  1.0000
  C   C16       1.0  0.37903  0.36729  0.85848  1.0000
  C   C17       1.0  0.93379  0.36188  0.28335  1.0000
  C   C18       1.0  0.57805  0.65079  0.21573  1.0000
  C   C19       1.0  0.06621  0.63812  0.71665  1.0000
  C   C20       1.0  0.42195  0.34922  0.78428  1.0000
  C   C21       1.0  0.82070  0.24488  0.27943  1.0000
  C   C22       1.0  0.46545  0.54146  0.21996  1.0000
  C   C23       1.0  0.17930  0.75512  0.72057  1.0000
  C   C24       1.0  0.53456  0.45855  0.78004  1.0000
  C   C25       1.0  0.98721  0.35609  0.21436  1.0000
  C   C26       1.0  0.64208  0.77405  0.28467  1.0000
  C   C27       1.0  0.01279  0.64391  0.78564  1.0000
  C   C28       1.0  0.35792  0.22595  0.71534  1.0000
  C   C29       1.0  0.09657  0.46349  0.22113  1.0000
  C   C30       1.0  0.74191  0.87654  0.27744  1.0000
  C   C31       1.0  0.90343  0.53651  0.77887  1.0000
  C   C32       1.0  0.25809  0.12347  0.72256  1.0000
  C   C33       1.0  0.39030  0.58584  0.51421  1.0000
  C   C34       1.0  0.56883  0.87620  0.98411  1.0000
  C   C35       1.0  0.60970  0.41415  0.48579  1.0000
  C   C36       1.0  0.43117  0.12380  0.01589  1.0000
  C   C37       1.0  0.36388  0.59814  0.59833  1.0000
  C   C38       1.0  0.49613  0.76404  0.90020  1.0000
  C   C39       1.0  0.63612  0.40185  0.40166  1.0000
  C   C40       1.0  0.50387  0.23595  0.09980  1.0000
  C   C41       1.0  0.27104  0.49107  0.60661  1.0000
  C   C42       1.0  0.38100  0.66208  0.89233  1.0000
  C   C43       1.0  0.72896  0.50892  0.39339  1.0000
  C   C44       1.0  0.61900  0.33792  0.10767  1.0000
  C   C45       1.0  0.20270  0.37077  0.53211  1.0000
  C   C46       1.0  0.33638  0.66909  0.96691  1.0000
  C   C47       1.0  0.79730  0.62923  0.46789  1.0000
  C   C48       1.0  0.66361  0.33091  0.03308  1.0000
  C   C49       1.0  0.09809  0.25729  0.53943  1.0000
  C   C50       1.0  0.21582  0.55640  0.95974  1.0000
  C   C51       1.0  0.90191  0.74271  0.46057  1.0000
  C   C52       1.0  0.78417  0.44360  0.04026  1.0000
  C   C53       1.0  0.23300  0.36005  0.44970  1.0000
  C   C54       1.0  0.40907  0.78321  0.04924  1.0000
  C   C55       1.0  0.76700  0.63994  0.55030  1.0000
  C   C56       1.0  0.59093  0.21679  0.95076  1.0000
  C   C57       1.0  0.32642  0.46604  0.44074  1.0000
  C   C58       1.0  0.52387  0.88638  0.05786  1.0000
  C   C59       1.0  0.67357  0.53395  0.55925  1.0000
  C   C60       1.0  0.47612  0.11361  0.94214  1.0000
  S   S1        1.0  0.29414  0.71277  0.30251  1.0000
  S   S2        1.0  0.90926  0.99168  0.19667  1.0000
  S   S3        1.0  0.70585  0.28723  0.69749  1.0000
  S   S4        1.0  0.09075  0.00833  0.80333  1.0000
  S   S5        1.0  0.50913  0.71977  0.50077  1.0000
  S   S6        1.0  0.71820  0.00840  0.99887  1.0000
  S   S7        1.0  0.49087  0.28023  0.49923  1.0000
  S   S8        1.0  0.28180  0.99160  0.00113  1.0000
  I   I1        1.0  0.50082  0.02910  0.29691  1.0000
  I   I2        1.0  0.23431  0.20219  0.20423  1.0000
  I   I3        1.0  0.49918  0.97090  0.70309  1.0000
  I   I4        1.0  0.76569  0.79781  0.79577  1.0000
  I   I5        1.0  0.04239  0.77511  0.07983  1.0000
  I   I6        1.0  0.19319  0.96129  0.41676  1.0000
  I   I7        1.0  0.95761  0.22489  0.92017  1.0000
  I   I8        1.0  0.80681  0.03871  0.58324  1.0000
