data_image0
_chemical_formula_structural       Cu4H48C52S8Br4
_chemical_formula_sum              "Cu4 H48 C52 S8 Br4"
_cell_length_a       6.44202
_cell_length_b       12.5185
_cell_length_c       16.7746
_cell_angle_alpha    93.1186
_cell_angle_beta     90
_cell_angle_gamma    90

_space_group_name_H-M_alt    "P 1"
_space_group_IT_number       1

loop_
  _space_group_symop_operation_xyz
  'x, y, z'

loop_
  _atom_site_type_symbol
  _atom_site_label
  _atom_site_symmetry_multiplicity
  _atom_site_fract_x
  _atom_site_fract_y
  _atom_site_fract_z
  _atom_site_occupancy
  Cu  Cu1       1.0  0.55821  0.51421  0.44558  1.0000
  Cu  Cu2       1.0  0.44178  0.01420  0.94558  1.0000
  Cu  Cu3       1.0  0.57252  0.29057  0.43446  1.0000
  Cu  Cu4       1.0  0.42749  0.79056  0.93447  1.0000
  H   H1        1.0  0.00974  0.54801  0.29777  1.0000
  H   H2        1.0  0.99024  0.04800  0.79777  1.0000
  H   H3        1.0  0.98772  0.61067  0.16154  1.0000
  H   H4        1.0  0.01226  0.11068  0.66153  1.0000
  H   H5        1.0  0.20798  0.76248  0.12061  1.0000
  H   H6        1.0  0.79201  0.26249  0.62062  1.0000
  H   H7        1.0  0.45581  0.84857  0.21697  1.0000
  H   H8        1.0  0.54420  0.34858  0.71698  1.0000
  H   H9        1.0  0.48747  0.78422  0.35354  1.0000
  H   H10       1.0  0.51255  0.28423  0.85355  1.0000
  H   H11       1.0  0.07178  0.80932  0.53249  1.0000
  H   H12       1.0  0.92821  0.30932  0.03247  1.0000
  H   H13       1.0  0.07078  0.90220  0.66684  1.0000
  H   H14       1.0  0.92922  0.40220  0.16682  1.0000
  H   H15       1.0  0.82101  0.84740  0.77031  1.0000
  H   H16       1.0  0.17898  0.34741  0.27030  1.0000
  H   H17       1.0  0.58923  0.69083  0.74203  1.0000
  H   H18       1.0  0.41077  0.19084  0.24202  1.0000
  H   H19       1.0  0.59806  0.59332  0.60869  1.0000
  H   H20       1.0  0.40193  0.09333  0.10869  1.0000
  H   H21       1.0  0.32408  0.20301  0.58541  1.0000
  H   H22       1.0  0.67592  0.70301  0.08542  1.0000
  H   H23       1.0  0.41599  0.07052  0.68490  1.0000
  H   H24       1.0  0.58400  0.57052  0.18490  1.0000
  H   H25       1.0  0.49241  0.88237  0.64035  1.0000
  H   H26       1.0  0.50759  0.38237  0.14035  1.0000
  H   H27       1.0  0.46715  0.82447  0.49659  1.0000
  H   H28       1.0  0.53286  0.32447  0.99659  1.0000
  H   H29       1.0  0.36502  0.95590  0.39668  1.0000
  H   H30       1.0  0.63501  0.45590  0.89668  1.0000
  H   H31       1.0  0.88956  0.94848  0.44819  1.0000
  H   H32       1.0  0.11045  0.44848  0.94820  1.0000
  H   H33       1.0  0.89743  0.81454  0.33240  1.0000
  H   H34       1.0  0.10257  0.31453  0.83241  1.0000
  H   H35       1.0  0.85362  0.87460  0.19430  1.0000
  H   H36       1.0  0.14636  0.37460  0.69431  1.0000
  H   H37       1.0  0.80310  0.06766  0.17174  1.0000
  H   H38       1.0  0.19690  0.56765  0.67174  1.0000
  H   H39       1.0  0.79465  0.20100  0.28716  1.0000
  H   H40       1.0  0.20536  0.70100  0.78716  1.0000
  H   H41       1.0  0.08239  0.51621  0.51301  1.0000
  H   H42       1.0  0.91760  0.01620  0.01301  1.0000
  H   H43       1.0  0.01961  0.49092  0.41006  1.0000
  H   H44       1.0  0.98037  0.99091  0.91006  1.0000
  H   H45       1.0  0.04137  0.30631  0.39079  1.0000
  H   H46       1.0  0.95865  0.80631  0.89079  1.0000
  H   H47       1.0  0.10256  0.30284  0.49480  1.0000
  H   H48       1.0  0.89746  0.80285  0.99480  1.0000
  C   C1        1.0  0.24979  0.66278  0.33526  1.0000
  C   C2        1.0  0.75021  0.16279  0.83526  1.0000
  C   C3        1.0  0.10944  0.61357  0.28115  1.0000
  C   C4        1.0  0.89056  0.11358  0.78114  1.0000
  C   C5        1.0  0.09542  0.64969  0.20392  1.0000
  C   C6        1.0  0.90457  0.14969  0.70392  1.0000
  C   C7        1.0  0.21853  0.73421  0.18076  1.0000
  C   C8        1.0  0.78147  0.23422  0.68076  1.0000
  C   C9        1.0  0.35928  0.78251  0.23484  1.0000
  C   C10       1.0  0.64073  0.28252  0.73484  1.0000
  C   C11       1.0  0.37613  0.74685  0.31172  1.0000
  C   C12       1.0  0.62388  0.24686  0.81172  1.0000
  C   C13       1.0  0.83360  0.69593  0.56251  1.0000
  C   C14       1.0  0.16639  0.19593  0.06250  1.0000
  C   C15       1.0  0.96777  0.78264  0.57862  1.0000
  C   C16       1.0  0.03221  0.28264  0.07861  1.0000
  C   C17       1.0  0.96600  0.83511  0.65420  1.0000
  C   C18       1.0  0.03399  0.33511  0.15419  1.0000
  C   C19       1.0  0.82841  0.80307  0.71261  1.0000
  C   C20       1.0  0.17158  0.30309  0.21260  1.0000
  C   C21       1.0  0.69623  0.71624  0.69649  1.0000
  C   C22       1.0  0.30376  0.21625  0.19648  1.0000
  C   C23       1.0  0.69927  0.66190  0.62164  1.0000
  C   C24       1.0  0.30072  0.16190  0.12163  1.0000
  C   C25       1.0  0.33802  0.08675  0.48521  1.0000
  C   C26       1.0  0.66199  0.58675  0.98521  1.0000
  C   C27       1.0  0.35005  0.11948  0.56629  1.0000
  C   C28       1.0  0.64995  0.61948  0.06630  1.0000
  C   C29       1.0  0.40417  0.04538  0.62178  1.0000
  C   C30       1.0  0.59583  0.54538  0.12179  1.0000
  C   C31       1.0  0.44824  0.93947  0.59671  1.0000
  C   C32       1.0  0.55176  0.43947  0.09671  1.0000
  C   C33       1.0  0.43486  0.90732  0.51591  1.0000
  C   C34       1.0  0.56515  0.40732  0.01591  1.0000
  C   C35       1.0  0.37783  0.98036  0.45985  1.0000
  C   C36       1.0  0.62219  0.48037  0.95985  1.0000
  C   C37       1.0  0.84165  0.08219  0.37420  1.0000
  C   C38       1.0  0.15836  0.58219  0.87420  1.0000
  C   C39       1.0  0.86982  0.97370  0.38747  1.0000
  C   C40       1.0  0.13018  0.47370  0.88748  1.0000
  C   C41       1.0  0.87358  0.89904  0.32247  1.0000
  C   C42       1.0  0.12643  0.39904  0.82248  1.0000
  C   C43       1.0  0.84973  0.93281  0.24498  1.0000
  C   C44       1.0  0.15026  0.43281  0.74498  1.0000
  C   C45       1.0  0.82172  0.04125  0.23220  1.0000
  C   C46       1.0  0.17826  0.54125  0.73221  1.0000
  C   C47       1.0  0.81674  0.11628  0.29669  1.0000
  C   C48       1.0  0.18327  0.61628  0.79669  1.0000
  C   C49       1.0  0.05245  0.55375  0.45654  1.0000
  C   C50       1.0  0.94754  0.05374  0.95654  1.0000
  C   C51       1.0  0.07129  0.25366  0.43984  1.0000
  C   C52       1.0  0.92872  0.75366  0.93985  1.0000
  S   S1        1.0  0.28474  0.62626  0.43494  1.0000
  S   S2        1.0  0.71525  0.12626  0.93494  1.0000
  S   S3        1.0  0.81921  0.63567  0.46371  1.0000
  S   S4        1.0  0.18078  0.13566  0.96370  1.0000
  S   S5        1.0  0.83971  0.17534  0.45859  1.0000
  S   S6        1.0  0.16030  0.67534  0.95859  1.0000
  S   S7        1.0  0.29895  0.17755  0.40866  1.0000
  S   S8        1.0  0.70106  0.67755  0.90866  1.0000
  Br  Br1       1.0  0.65800  0.40822  0.32433  1.0000
  Br  Br2       1.0  0.34200  0.90822  0.82433  1.0000
  Br  Br3       1.0  0.46549  0.40264  0.55538  1.0000
  Br  Br4       1.0  0.53453  0.90264  0.05538  1.0000
