data_image0
_chemical_formula_structural       Ca4H16C16S4N8O24
_chemical_formula_sum              "Ca4 H16 C16 S4 N8 O24"
_cell_length_a       6.78148
_cell_length_b       9.05077
_cell_length_c       14.6054
_cell_angle_alpha    103.175
_cell_angle_beta     90.0174
_cell_angle_gamma    112.023

_space_group_name_H-M_alt    "P 1"
_space_group_IT_number       1

loop_
  _space_group_symop_operation_xyz
  'x, y, z'

loop_
  _atom_site_type_symbol
  _atom_site_label
  _atom_site_symmetry_multiplicity
  _atom_site_fract_x
  _atom_site_fract_y
  _atom_site_fract_z
  _atom_site_occupancy
  Ca  Ca1       1.0  0.09460  0.76832  0.77140  1.0000
  Ca  Ca2       1.0  0.32584  0.23163  0.72857  1.0000
  Ca  Ca3       1.0  0.90541  0.23168  0.22860  1.0000
  Ca  Ca4       1.0  0.67416  0.76837  0.27143  1.0000
  H   H1        1.0  0.11197  0.61689  0.57958  1.0000
  H   H2        1.0  0.49465  0.38314  0.92047  1.0000
  H   H3        1.0  0.88803  0.38311  0.42042  1.0000
  H   H4        1.0  0.50535  0.61686  0.07953  1.0000
  H   H5        1.0  0.96503  0.41733  0.78411  1.0000
  H   H6        1.0  0.54823  0.58272  0.71586  1.0000
  H   H7        1.0  0.03496  0.58267  0.21589  1.0000
  H   H8        1.0  0.45177  0.41729  0.28414  1.0000
  H   H9        1.0  0.79838  0.48068  0.83655  1.0000
  H   H10       1.0  0.31807  0.51931  0.66342  1.0000
  H   H11       1.0  0.20162  0.51932  0.16345  1.0000
  H   H12       1.0  0.68193  0.48069  0.33658  1.0000
  H   H13       1.0  0.98488  0.44440  0.60274  1.0000
  H   H14       1.0  0.54007  0.55556  0.89723  1.0000
  H   H15       1.0  0.01513  0.55560  0.39726  1.0000
  H   H16       1.0  0.45993  0.44444  0.10278  1.0000
  C   C1        1.0  0.36876  0.16317  0.17188  1.0000
  C   C2        1.0  0.20603  0.83671  0.32817  1.0000
  C   C3        1.0  0.63124  0.83683  0.82812  1.0000
  C   C4        1.0  0.79397  0.16328  0.67183  1.0000
  C   C5        1.0  0.30685  0.12233  0.94373  1.0000
  C   C6        1.0  0.18446  0.87760  0.55630  1.0000
  C   C7        1.0  0.69315  0.87767  0.05626  1.0000
  C   C8        1.0  0.81555  0.12240  0.44370  1.0000
  C   C9        1.0  0.23618  0.99052  0.99665  1.0000
  C   C10       1.0  0.24562  0.00936  0.50337  1.0000
  C   C11       1.0  0.76382  0.00948  0.00335  1.0000
  C   C12       1.0  0.75439  0.99063  0.49663  1.0000
  C   C13       1.0  0.26509  0.00609  0.09576  1.0000
  C   C14       1.0  0.25939  0.99375  0.40429  1.0000
  C   C15       1.0  0.73491  0.99391  0.90424  1.0000
  C   C16       1.0  0.74061  0.00625  0.59571  1.0000
  S   S1        1.0  0.09031  0.71755  0.02151  1.0000
  S   S2        1.0  0.37270  0.28226  0.47843  1.0000
  S   S3        1.0  0.90969  0.28245  0.97850  1.0000
  S   S4        1.0  0.62730  0.71774  0.52157  1.0000
  N   N1        1.0  0.13846  0.83443  0.94798  1.0000
  N   N2        1.0  0.30370  0.16543  0.55198  1.0000
  N   N3        1.0  0.86154  0.16556  0.05202  1.0000
  N   N4        1.0  0.69629  0.83457  0.44802  1.0000
  N   N5        1.0  0.19021  0.86178  0.11849  1.0000
  N   N6        1.0  0.32902  0.13802  0.38154  1.0000
  N   N7        1.0  0.80979  0.13822  0.88151  1.0000
  N   N8        1.0  0.67098  0.86198  0.61846  1.0000
  O   O1        1.0  0.56211  0.20507  0.19790  1.0000
  O   O2        1.0  0.35750  0.79502  0.30205  1.0000
  O   O3        1.0  0.43789  0.79493  0.80211  1.0000
  O   O4        1.0  0.64250  0.20497  0.69795  1.0000
  O   O5        1.0  0.25339  0.07869  0.85474  1.0000
  O   O6        1.0  0.17438  0.92127  0.64525  1.0000
  O   O7        1.0  0.74661  0.92131  0.14526  1.0000
  O   O8        1.0  0.82562  0.07873  0.35474  1.0000
  O   O9        1.0  0.25289  0.24233  0.20412  1.0000
  O   O10       1.0  0.01083  0.75736  0.29601  1.0000
  O   O11       1.0  0.74711  0.75768  0.79588  1.0000
  O   O12       1.0  0.98916  0.24264  0.70399  1.0000
  O   O13       1.0  0.41738  0.26706  0.99139  1.0000
  O   O14       1.0  0.15061  0.73294  0.50868  1.0000
  O   O15       1.0  0.58263  0.73294  0.00860  1.0000
  O   O16       1.0  0.84940  0.26706  0.49132  1.0000
  O   O17       1.0  0.95175  0.51617  0.82527  1.0000
  O   O18       1.0  0.43595  0.48384  0.67471  1.0000
  O   O19       1.0  0.04825  0.48383  0.17473  1.0000
  O   O20       1.0  0.56405  0.51616  0.32529  1.0000
  O   O21       1.0  0.08630  0.55667  0.63195  1.0000
  O   O22       1.0  0.52910  0.44328  0.86807  1.0000
  O   O23       1.0  0.91371  0.44333  0.36805  1.0000
  O   O24       1.0  0.47090  0.55672  0.13193  1.0000
