data_image0
_chemical_formula_structural       Ga4H44C36Cl8
_chemical_formula_sum              "Ga4 H44 C36 Cl8"
_cell_length_a       6.91684
_cell_length_b       8.26982
_cell_length_c       17.8347
_cell_angle_alpha    99.181
_cell_angle_beta     89.9997
_cell_angle_gamma    90.0001

_space_group_name_H-M_alt    "P 1"
_space_group_IT_number       1

loop_
  _space_group_symop_operation_xyz
  'x, y, z'

loop_
  _atom_site_type_symbol
  _atom_site_label
  _atom_site_symmetry_multiplicity
  _atom_site_fract_x
  _atom_site_fract_y
  _atom_site_fract_z
  _atom_site_occupancy
  Ga  Ga1       1.0  0.75001  0.50701  0.70532  1.0000
  Ga  Ga2       1.0  0.25000  0.49298  0.29468  1.0000
  Ga  Ga3       1.0  0.25000  0.61873  0.77633  1.0000
  Ga  Ga4       1.0  0.75000  0.38128  0.22368  1.0000
  H   H1        1.0  0.75000  0.54085  0.46519  1.0000
  H   H2        1.0  0.25000  0.45915  0.53482  1.0000
  H   H3        1.0  0.87813  0.60906  0.55012  1.0000
  H   H4        1.0  0.37813  0.39094  0.44988  1.0000
  H   H5        1.0  0.12187  0.39095  0.44988  1.0000
  H   H6        1.0  0.62186  0.60906  0.55012  1.0000
  H   H7        1.0  0.74999  0.26576  0.42547  1.0000
  H   H8        1.0  0.25000  0.73425  0.57453  1.0000
  H   H9        1.0  0.74999  0.98332  0.37349  1.0000
  H   H10       1.0  0.25000  0.01668  0.62650  1.0000
  H   H11       1.0  0.62210  0.85833  0.42874  1.0000
  H   H12       1.0  0.12210  0.14167  0.57126  1.0000
  H   H13       1.0  0.37790  0.14168  0.57126  1.0000
  H   H14       1.0  0.87789  0.85833  0.42874  1.0000
  H   H15       1.0  0.75000  0.91441  0.57843  1.0000
  H   H16       1.0  0.25000  0.08558  0.42156  1.0000
  H   H17       1.0  0.75000  0.98971  0.70743  1.0000
  H   H18       1.0  0.25000  0.01027  0.29256  1.0000
  H   H19       1.0  0.62193  0.17234  0.74189  1.0000
  H   H20       1.0  0.12192  0.82764  0.25810  1.0000
  H   H21       1.0  0.37808  0.82764  0.25810  1.0000
  H   H22       1.0  0.87808  0.17235  0.74189  1.0000
  H   H23       1.0  0.25000  0.44643  0.99292  1.0000
  H   H24       1.0  0.75000  0.55357  0.00708  1.0000
  H   H25       1.0  0.37806  0.42757  0.90569  1.0000
  H   H26       1.0  0.87806  0.57243  0.09431  1.0000
  H   H27       1.0  0.62194  0.57243  0.09431  1.0000
  H   H28       1.0  0.12194  0.42756  0.90569  1.0000
  H   H29       1.0  0.24999  0.70194  0.06448  1.0000
  H   H30       1.0  0.74999  0.29806  0.93552  1.0000
  H   H31       1.0  0.25000  0.96107  0.14663  1.0000
  H   H32       1.0  0.75000  0.03893  0.85337  1.0000
  H   H33       1.0  0.12262  0.11678  0.10890  1.0000
  H   H34       1.0  0.62262  0.88322  0.89110  1.0000
  H   H35       1.0  0.87739  0.88323  0.89110  1.0000
  H   H36       1.0  0.37738  0.11677  0.10890  1.0000
  H   H37       1.0  0.25000  0.14227  0.96572  1.0000
  H   H38       1.0  0.74999  0.85773  0.03428  1.0000
  H   H39       1.0  0.25000  0.93642  0.76495  1.0000
  H   H40       1.0  0.75001  0.06358  0.23506  1.0000
  H   H41       1.0  0.37747  0.09306  0.82356  1.0000
  H   H42       1.0  0.87748  0.90694  0.17643  1.0000
  H   H43       1.0  0.62253  0.90694  0.17644  1.0000
  H   H44       1.0  0.12253  0.09306  0.82356  1.0000
  C   C1        1.0  0.75000  0.33123  0.61852  1.0000
  C   C2        1.0  0.25000  0.66877  0.38148  1.0000
  C   C3        1.0  0.75000  0.36785  0.54393  1.0000
  C   C4        1.0  0.25000  0.63215  0.45607  1.0000
  C   C5        1.0  0.74999  0.23741  0.48312  1.0000
  C   C6        1.0  0.25000  0.76259  0.51688  1.0000
  C   C7        1.0  0.75000  0.07362  0.49379  1.0000
  C   C8        1.0  0.25000  0.92639  0.50621  1.0000
  C   C9        1.0  0.74999  0.04126  0.56844  1.0000
  C   C10       1.0  0.25000  0.95874  0.43155  1.0000
  C   C11       1.0  0.75000  0.16672  0.63107  1.0000
  C   C12       1.0  0.25000  0.83328  0.36893  1.0000
  C   C13       1.0  0.75000  0.54029  0.52665  1.0000
  C   C14       1.0  0.25000  0.45971  0.47335  1.0000
  C   C15       1.0  0.74999  0.93648  0.42767  1.0000
  C   C16       1.0  0.25000  0.06353  0.57233  1.0000
  C   C17       1.0  0.75000  0.12271  0.70963  1.0000
  C   C18       1.0  0.25000  0.87727  0.29037  1.0000
  C   C19       1.0  0.25000  0.74559  0.87776  1.0000
  C   C20       1.0  0.75000  0.25441  0.12224  1.0000
  C   C21       1.0  0.25000  0.66613  0.94230  1.0000
  C   C22       1.0  0.75000  0.33387  0.05769  1.0000
  C   C23       1.0  0.25000  0.76267  0.01440  1.0000
  C   C24       1.0  0.75000  0.23733  0.98560  1.0000
  C   C25       1.0  0.25000  0.93398  0.02419  1.0000
  C   C26       1.0  0.75000  0.06602  0.97581  1.0000
  C   C27       1.0  0.25000  0.00880  0.95942  1.0000
  C   C28       1.0  0.74999  0.99121  0.04059  1.0000
  C   C29       1.0  0.25000  0.91816  0.88619  1.0000
  C   C30       1.0  0.75000  0.08184  0.11381  1.0000
  C   C31       1.0  0.25000  0.48241  0.93632  1.0000
  C   C32       1.0  0.75001  0.51759  0.06368  1.0000
  C   C33       1.0  0.25000  0.03665  0.10147  1.0000
  C   C34       1.0  0.75000  0.96335  0.89853  1.0000
  C   C35       1.0  0.25000  0.01316  0.82098  1.0000
  C   C36       1.0  0.75001  0.98684  0.17902  1.0000
  Cl  Cl1       1.0  0.74999  0.50137  0.82734  1.0000
  Cl  Cl2       1.0  0.24999  0.49861  0.17266  1.0000
  Cl  Cl3       1.0  0.25000  0.35803  0.73344  1.0000
  Cl  Cl4       1.0  0.75000  0.64197  0.26656  1.0000
  Cl  Cl5       1.0  0.99815  0.70326  0.69900  1.0000
  Cl  Cl6       1.0  0.49815  0.29674  0.30100  1.0000
  Cl  Cl7       1.0  0.00185  0.29674  0.30100  1.0000
  Cl  Cl8       1.0  0.50185  0.70325  0.69900  1.0000
