data_image0
_chemical_formula_structural       Zn4H28C20O28
_chemical_formula_sum              "Zn4 H28 C20 O28"
_cell_length_a       6.71086
_cell_length_b       7.58523
_cell_length_c       16.7251
_cell_angle_alpha    104.322
_cell_angle_beta     93.3431
_cell_angle_gamma    91.9027

_space_group_name_H-M_alt    "P 1"
_space_group_IT_number       1

loop_
  _space_group_symop_operation_xyz
  'x, y, z'

loop_
  _atom_site_type_symbol
  _atom_site_label
  _atom_site_symmetry_multiplicity
  _atom_site_fract_x
  _atom_site_fract_y
  _atom_site_fract_z
  _atom_site_occupancy
  Zn  Zn1       1.0  0.21768  0.57390  0.18546  1.0000
  Zn  Zn2       1.0  0.78231  0.42609  0.81454  1.0000
  Zn  Zn3       1.0  0.26251  0.97547  0.31780  1.0000
  Zn  Zn4       1.0  0.73749  0.02454  0.68220  1.0000
  H   H1        1.0  0.36088  0.56655  0.49306  1.0000
  H   H2        1.0  0.63911  0.43347  0.50694  1.0000
  H   H3        1.0  0.34251  0.11601  0.05970  1.0000
  H   H4        1.0  0.65748  0.88399  0.94030  1.0000
  H   H5        1.0  0.56068  0.75181  0.28925  1.0000
  H   H6        1.0  0.43932  0.24820  0.71075  1.0000
  H   H7        1.0  0.53863  0.84447  0.21019  1.0000
  H   H8        1.0  0.46137  0.15552  0.78981  1.0000
  H   H9        1.0  0.45351  0.61377  0.07595  1.0000
  H   H10       1.0  0.54648  0.38622  0.92404  1.0000
  H   H11       1.0  0.28011  0.48006  0.02446  1.0000
  H   H12       1.0  0.71988  0.51993  0.97554  1.0000
  H   H13       1.0  0.48161  0.42350  0.25556  1.0000
  H   H14       1.0  0.51839  0.57650  0.74444  1.0000
  H   H15       1.0  0.35500  0.26400  0.19525  1.0000
  H   H16       1.0  0.64499  0.73600  0.80475  1.0000
  H   H17       1.0  0.89356  0.92096  0.35579  1.0000
  H   H18       1.0  0.10646  0.07905  0.64422  1.0000
  H   H19       1.0  0.88314  0.03082  0.28885  1.0000
  H   H20       1.0  0.11688  0.96920  0.71116  1.0000
  H   H21       1.0  0.51034  0.27751  0.37837  1.0000
  H   H22       1.0  0.48968  0.72250  0.62162  1.0000
  H   H23       1.0  0.56193  0.11726  0.42291  1.0000
  H   H24       1.0  0.43811  0.88275  0.57708  1.0000
  H   H25       1.0  0.86548  0.38894  0.17061  1.0000
  H   H26       1.0  0.13452  0.61106  0.82939  1.0000
  H   H27       1.0  0.85360  0.51763  0.11067  1.0000
  H   H28       1.0  0.14640  0.48237  0.88933  1.0000
  C   C1        1.0  0.06742  0.57748  0.43787  1.0000
  C   C2        1.0  0.93258  0.42250  0.56213  1.0000
  C   C3        1.0  0.86241  0.53845  0.44088  1.0000
  C   C4        1.0  0.13759  0.46156  0.55913  1.0000
  C   C5        1.0  0.20213  0.53928  0.49708  1.0000
  C   C6        1.0  0.79786  0.46072  0.50292  1.0000
  C   C7        1.0  0.14524  0.65532  0.37099  1.0000
  C   C8        1.0  0.85475  0.34468  0.62901  1.0000
  C   C9        1.0  0.71144  0.57773  0.37895  1.0000
  C   C10       1.0  0.28857  0.42229  0.62105  1.0000
  C   C11       1.0  0.06481  0.98467  0.07883  1.0000
  C   C12       1.0  0.93518  0.01532  0.92117  1.0000
  C   C13       1.0  0.87235  0.91774  0.04488  1.0000
  C   C14       1.0  0.12764  0.08226  0.95512  1.0000
  C   C15       1.0  0.19185  0.06706  0.03387  1.0000
  C   C16       1.0  0.80813  0.93294  0.96613  1.0000
  C   C17       1.0  0.12729  0.96085  0.16222  1.0000
  C   C18       1.0  0.87271  0.03914  0.83778  1.0000
  C   C19       1.0  0.73387  0.83577  0.09491  1.0000
  C   C20       1.0  0.26613  0.16423  0.90509  1.0000
  O   O1        1.0  0.23992  0.81031  0.39531  1.0000
  O   O2        1.0  0.76008  0.18969  0.60468  1.0000
  O   O3        1.0  0.11027  0.56219  0.29718  1.0000
  O   O4        1.0  0.88973  0.43781  0.70282  1.0000
  O   O5        1.0  0.56619  0.45991  0.35259  1.0000
  O   O6        1.0  0.43380  0.54011  0.64741  1.0000
  O   O7        1.0  0.73150  0.72368  0.35522  1.0000
  O   O8        1.0  0.26851  0.27635  0.64479  1.0000
  O   O9        1.0  0.23868  0.08445  0.21353  1.0000
  O   O10       1.0  0.76130  0.91555  0.78647  1.0000
  O   O11       1.0  0.06246  0.82066  0.18292  1.0000
  O   O12       1.0  0.93753  0.17934  0.81708  1.0000
  O   O13       1.0  0.66396  0.94059  0.15663  1.0000
  O   O14       1.0  0.33603  0.05940  0.84337  1.0000
  O   O15       1.0  0.69074  0.66361  0.06979  1.0000
  O   O16       1.0  0.30926  0.33639  0.93021  1.0000
  O   O17       1.0  0.45888  0.78853  0.24943  1.0000
  O   O18       1.0  0.54111  0.21147  0.75057  1.0000
  O   O19       1.0  0.30518  0.58795  0.07250  1.0000
  O   O20       1.0  0.69480  0.41203  0.92750  1.0000
  O   O21       1.0  0.42561  0.38302  0.19651  1.0000
  O   O22       1.0  0.57439  0.61698  0.80350  1.0000
  O   O23       1.0  0.95255  0.03095  0.34196  1.0000
  O   O24       1.0  0.04747  0.96906  0.65805  1.0000
  O   O25       1.0  0.45424  0.16510  0.39417  1.0000
  O   O26       1.0  0.54580  0.83489  0.60582  1.0000
  O   O27       1.0  0.94172  0.43320  0.13108  1.0000
  O   O28       1.0  0.05827  0.56679  0.86892  1.0000
