data_image0
_chemical_formula_structural       Cu2H36C36S2N12O8
_chemical_formula_sum              "Cu2 H36 C36 S2 N12 O8"
_cell_length_a       8.72191
_cell_length_b       9.69155
_cell_length_c       12.9543
_cell_angle_alpha    80.9142
_cell_angle_beta     80.4909
_cell_angle_gamma    90.049

_space_group_name_H-M_alt    "P 1"
_space_group_IT_number       1

loop_
  _space_group_symop_operation_xyz
  'x, y, z'

loop_
  _atom_site_type_symbol
  _atom_site_label
  _atom_site_symmetry_multiplicity
  _atom_site_fract_x
  _atom_site_fract_y
  _atom_site_fract_z
  _atom_site_occupancy
  Cu  Cu1       1.0  0.00000  0.00000  0.00000  1.0000
  Cu  Cu2       1.0  0.00000  1.00000  0.50000  1.0000
  H   H1        1.0  0.34132  0.69727  0.80958  1.0000
  H   H2        1.0  0.65868  0.30273  0.19041  1.0000
  H   H3        1.0  0.83830  0.67419  0.79603  1.0000
  H   H4        1.0  0.16169  0.32581  0.20396  1.0000
  H   H5        1.0  0.58485  0.34862  0.70003  1.0000
  H   H6        1.0  0.41514  0.65138  0.29996  1.0000
  H   H7        1.0  0.22206  0.54597  0.71501  1.0000
  H   H8        1.0  0.77794  0.45403  0.28499  1.0000
  H   H9        1.0  0.31440  0.39330  0.67480  1.0000
  H   H10       1.0  0.68560  0.60670  0.32519  1.0000
  H   H11       1.0  0.19521  0.17180  0.77761  1.0000
  H   H12       1.0  0.80479  0.82820  0.22239  1.0000
  H   H13       1.0  0.01463  0.29114  0.07336  1.0000
  H   H14       1.0  0.98538  0.70887  0.92664  1.0000
  H   H15       1.0  0.17353  0.52117  0.94018  1.0000
  H   H16       1.0  0.82648  0.47883  0.05982  1.0000
  H   H17       1.0  0.69880  0.84931  0.88524  1.0000
  H   H18       1.0  0.30120  0.15069  0.11475  1.0000
  H   H19       1.0  0.60384  0.92240  0.78092  1.0000
  H   H20       1.0  0.39615  0.07760  0.21908  1.0000
  H   H21       1.0  0.30924  0.96209  0.81924  1.0000
  H   H22       1.0  0.69075  0.03791  0.18076  1.0000
  H   H23       1.0  0.22906  0.85359  0.15271  1.0000
  H   H24       1.0  0.77095  0.14641  0.84729  1.0000
  H   H25       1.0  0.52487  0.76710  0.07236  1.0000
  H   H26       1.0  0.47514  0.23290  0.92764  1.0000
  H   H27       1.0  0.97279  0.51421  0.69926  1.0000
  H   H28       1.0  0.02721  0.48578  0.30075  1.0000
  H   H29       1.0  0.90441  0.36112  0.78976  1.0000
  H   H30       1.0  0.09559  0.63888  0.21024  1.0000
  H   H31       1.0  0.96376  0.15547  0.70419  1.0000
  H   H32       1.0  0.03624  0.84453  0.29581  1.0000
  H   H33       1.0  0.86137  0.28627  0.39688  1.0000
  H   H34       1.0  0.13863  0.71373  0.60312  1.0000
  H   H35       1.0  0.80455  0.50513  0.51495  1.0000
  H   H36       1.0  0.19544  0.49487  0.48506  1.0000
  C   C1        1.0  0.44810  0.51594  0.75583  1.0000
  C   C2        1.0  0.55190  0.48406  0.24417  1.0000
  C   C3        1.0  0.44986  0.64177  0.79561  1.0000
  C   C4        1.0  0.55014  0.35823  0.20438  1.0000
  C   C5        1.0  0.58941  0.69799  0.81246  1.0000
  C   C6        1.0  0.41059  0.30201  0.18753  1.0000
  C   C7        1.0  0.72757  0.62862  0.78748  1.0000
  C   C8        1.0  0.27243  0.37138  0.21251  1.0000
  C   C9        1.0  0.58633  0.44599  0.73242  1.0000
  C   C10       1.0  0.41367  0.55401  0.26758  1.0000
  C   C11       1.0  0.72663  0.50318  0.74715  1.0000
  C   C12       1.0  0.27336  0.49682  0.25284  1.0000
  C   C13       1.0  0.29614  0.45853  0.73753  1.0000
  C   C14       1.0  0.70386  0.54147  0.26247  1.0000
  C   C15       1.0  0.16791  0.23419  0.84098  1.0000
  C   C16       1.0  0.83209  0.76581  0.15902  1.0000
  C   C17       1.0  0.07593  0.30202  0.99216  1.0000
  C   C18       1.0  0.92408  0.69798  0.00784  1.0000
  C   C19       1.0  0.15383  0.41534  0.92749  1.0000
  C   C20       1.0  0.84618  0.58466  0.07251  1.0000
  C   C21       1.0  0.59491  0.83801  0.84940  1.0000
  C   C22       1.0  0.40508  0.16198  0.15059  1.0000
  C   C23       1.0  0.32583  0.92394  0.90027  1.0000
  C   C24       1.0  0.67417  0.07606  0.09973  1.0000
  C   C25       1.0  0.28861  0.85995  0.07187  1.0000
  C   C26       1.0  0.71140  0.14004  0.92814  1.0000
  C   C27       1.0  0.43524  0.81948  0.03347  1.0000
  C   C28       1.0  0.56477  0.18052  0.96654  1.0000
  C   C29       1.0  0.87934  0.43360  0.72061  1.0000
  C   C30       1.0  0.12065  0.56640  0.27939  1.0000
  C   C31       1.0  0.93029  0.21967  0.63541  1.0000
  C   C32       1.0  0.06972  0.78033  0.36459  1.0000
  C   C33       1.0  0.87404  0.29254  0.47798  1.0000
  C   C34       1.0  0.12597  0.70745  0.52202  1.0000
  C   C35       1.0  0.84644  0.40076  0.53477  1.0000
  C   C36       1.0  0.15355  0.59924  0.46524  1.0000
  S   S1        1.0  0.93999  0.09518  0.26803  1.0000
  S   S2        1.0  0.06001  0.90482  0.73197  1.0000
  N   N1        1.0  0.21088  0.37091  0.83255  1.0000
  N   N2        1.0  0.78912  0.62909  0.16744  1.0000
  N   N3        1.0  0.08610  0.19061  0.93716  1.0000
  N   N4        1.0  0.91391  0.80939  0.06284  1.0000
  N   N5        1.0  0.45731  0.86173  0.92498  1.0000
  N   N6        1.0  0.54269  0.13826  0.07502  1.0000
  N   N7        1.0  0.22158  0.92448  0.98805  1.0000
  N   N8        1.0  0.77843  0.07552  0.01196  1.0000
  N   N9        1.0  0.88320  0.35312  0.63406  1.0000
  N   N10       1.0  0.11680  0.64688  0.36594  1.0000
  N   N11       1.0  0.92680  0.18045  0.54162  1.0000
  N   N12       1.0  0.07321  0.81955  0.45838  1.0000
  O   O1        1.0  0.03117  0.04102  0.17571  1.0000
  O   O2        1.0  0.96883  0.95899  0.82429  1.0000
  O   O3        1.0  0.80130  0.00423  0.31478  1.0000
  O   O4        1.0  0.19870  0.99577  0.68521  1.0000
  O   O5        1.0  0.04834  0.09270  0.34995  1.0000
  O   O6        1.0  0.95165  0.90729  0.65005  1.0000
  O   O7        1.0  0.89789  0.24275  0.23617  1.0000
  O   O8        1.0  0.10211  0.75725  0.76383  1.0000
