data_image0
_chemical_formula_structural       Co2H44C36S2N12O12
_chemical_formula_sum              "Co2 H44 C36 S2 N12 O12"
_cell_length_a       8.79073
_cell_length_b       11.4794
_cell_length_c       12.667
_cell_angle_alpha    89.1387
_cell_angle_beta     79.2151
_cell_angle_gamma    69.4173

_space_group_name_H-M_alt    "P 1"
_space_group_IT_number       1

loop_
  _space_group_symop_operation_xyz
  'x, y, z'

loop_
  _atom_site_type_symbol
  _atom_site_label
  _atom_site_symmetry_multiplicity
  _atom_site_fract_x
  _atom_site_fract_y
  _atom_site_fract_z
  _atom_site_occupancy
  Co  Co1       1.0  0.76432  0.23912  0.70189  1.0000
  Co  Co2       1.0  0.23568  0.76088  0.29812  1.0000
  H   H1        1.0  0.04588  0.09501  0.61992  1.0000
  H   H2        1.0  0.95413  0.90498  0.38009  1.0000
  H   H3        1.0  0.91771  0.01846  0.63133  1.0000
  H   H4        1.0  0.08230  0.98153  0.36869  1.0000
  H   H5        1.0  0.45908  0.21471  0.65495  1.0000
  H   H6        1.0  0.54092  0.78529  0.34505  1.0000
  H   H7        1.0  0.61324  0.15587  0.55817  1.0000
  H   H8        1.0  0.38676  0.84412  0.44183  1.0000
  H   H9        1.0  0.27660  0.24021  0.24539  1.0000
  H   H10       1.0  0.72339  0.75979  0.75461  1.0000
  H   H11       1.0  0.07130  0.25995  0.96002  1.0000
  H   H12       1.0  0.92870  0.74006  0.03998  1.0000
  H   H13       1.0  0.80858  0.52436  0.23049  1.0000
  H   H14       1.0  0.19142  0.47564  0.76950  1.0000
  H   H15       1.0  0.14968  0.39826  0.38541  1.0000
  H   H16       1.0  0.85031  0.60173  0.61458  1.0000
  H   H17       1.0  0.00117  0.54026  0.35502  1.0000
  H   H18       1.0  0.99883  0.45973  0.64498  1.0000
  H   H19       1.0  0.04904  0.25670  0.51675  1.0000
  H   H20       1.0  0.95097  0.74330  0.48325  1.0000
  H   H21       1.0  0.54200  0.47980  0.59875  1.0000
  H   H22       1.0  0.45799  0.52018  0.40125  1.0000
  H   H23       1.0  0.69380  0.57948  0.42446  1.0000
  H   H24       1.0  0.30619  0.42051  0.57553  1.0000
  H   H25       1.0  0.35273  0.12477  0.96055  1.0000
  H   H26       1.0  0.64727  0.87523  0.03944  1.0000
  H   H27       1.0  0.44435  0.11922  0.07686  1.0000
  H   H28       1.0  0.55565  0.88078  0.92313  1.0000
  H   H29       1.0  0.38519  0.97232  0.22926  1.0000
  H   H30       1.0  0.61482  0.02768  0.77074  1.0000
  H   H31       1.0  0.11028  0.81044  0.08168  1.0000
  H   H32       1.0  0.88971  0.18956  0.91833  1.0000
  H   H33       1.0  0.17704  0.99419  0.94988  1.0000
  H   H34       1.0  0.82295  0.00581  0.05012  1.0000
  H   H35       1.0  0.80333  0.54205  0.99083  1.0000
  H   H36       1.0  0.19667  0.45796  0.00917  1.0000
  H   H37       1.0  0.78590  0.39804  0.96319  1.0000
  H   H38       1.0  0.21410  0.60197  0.03680  1.0000
  H   H39       1.0  0.58938  0.69183  0.14194  1.0000
  H   H40       1.0  0.41063  0.30818  0.85806  1.0000
  H   H41       1.0  0.27664  0.48631  0.23565  1.0000
  H   H42       1.0  0.72337  0.51370  0.76434  1.0000
  H   H43       1.0  0.56273  0.33519  0.09678  1.0000
  H   H44       1.0  0.43727  0.66482  0.90321  1.0000
  C   C1        1.0  0.03860  0.38530  0.25018  1.0000
  C   C2        1.0  0.96140  0.61470  0.74982  1.0000
  C   C3        1.0  0.17621  0.28393  0.20191  1.0000
  C   C4        1.0  0.82379  0.71607  0.79809  1.0000
  C   C5        1.0  0.18713  0.23894  0.09779  1.0000
  C   C6        1.0  0.81287  0.76107  0.90221  1.0000
  C   C7        1.0  0.05893  0.29516  0.04206  1.0000
  C   C8        1.0  0.94107  0.70484  0.95794  1.0000
  C   C9        1.0  0.91997  0.39626  0.09039  1.0000
  C   C10       1.0  0.08003  0.60374  0.90961  1.0000
  C   C11       1.0  0.91122  0.44131  0.19389  1.0000
  C   C12       1.0  0.08878  0.55869  0.80611  1.0000
  C   C13       1.0  0.03038  0.43925  0.35964  1.0000
  C   C14       1.0  0.96962  0.56075  0.64035  1.0000
  C   C15       1.0  0.92953  0.32789  0.51439  1.0000
  C   C16       1.0  0.07047  0.67210  0.48561  1.0000
  C   C17       1.0  0.66862  0.44690  0.55503  1.0000
  C   C18       1.0  0.33138  0.55309  0.44496  1.0000
  C   C19       1.0  0.73974  0.49678  0.46874  1.0000
  C   C20       1.0  0.26026  0.50320  0.53124  1.0000
  C   C21       1.0  0.33134  0.12487  0.04873  1.0000
  C   C22       1.0  0.66866  0.87513  0.95126  1.0000
  C   C23       1.0  0.31644  0.95433  0.17266  1.0000
  C   C24       1.0  0.68356  0.04567  0.82734  1.0000
  C   C25       1.0  0.17931  0.87002  0.09054  1.0000
  C   C26       1.0  0.82067  0.12999  0.90947  1.0000
  C   C27       1.0  0.20859  0.96052  0.02644  1.0000
  C   C28       1.0  0.79140  0.03948  0.97357  1.0000
  C   C29       1.0  0.78444  0.46016  0.02858  1.0000
  C   C30       1.0  0.21557  0.53985  0.97142  1.0000
  C   C31       1.0  0.53923  0.61764  0.14800  1.0000
  C   C32       1.0  0.46077  0.38236  0.85201  1.0000
  C   C33       1.0  0.38471  0.50560  0.19673  1.0000
  C   C34       1.0  0.61529  0.49440  0.80326  1.0000
  C   C35       1.0  0.52412  0.43083  0.12768  1.0000
  C   C36       1.0  0.47589  0.56918  0.87231  1.0000
  S   S1        1.0  0.16948  0.20049  0.72774  1.0000
  S   S2        1.0  0.83052  0.79951  0.27226  1.0000
  N   N1        1.0  0.90427  0.42043  0.44430  1.0000
  N   N2        1.0  0.09574  0.57956  0.55570  1.0000
  N   N3        1.0  0.78791  0.34233  0.58333  1.0000
  N   N4        1.0  0.21208  0.65766  0.41667  1.0000
  N   N5        1.0  0.29528  0.01232  0.07940  1.0000
  N   N6        1.0  0.70471  0.98768  0.92060  1.0000
  N   N7        1.0  0.24671  0.86723  0.18141  1.0000
  N   N8        1.0  0.75329  0.13277  0.81860  1.0000
  N   N9        1.0  0.61975  0.50308  0.09691  1.0000
  N   N10       1.0  0.38026  0.49693  0.90309  1.0000
  N   N11       1.0  0.39556  0.62186  0.20954  1.0000
  N   N12       1.0  0.60444  0.37815  0.79046  1.0000
  O   O1        1.0  0.92879  0.09692  0.60855  1.0000
  O   O2        1.0  0.07122  0.90307  0.39146  1.0000
  O   O3        1.0  0.58433  0.17384  0.63553  1.0000
  O   O4        1.0  0.41567  0.82615  0.36448  1.0000
  O   O5        1.0  0.98954  0.27947  0.75893  1.0000
  O   O6        1.0  0.01047  0.72053  0.24107  1.0000
  O   O7        1.0  0.26576  0.28476  0.69344  1.0000
  O   O8        1.0  0.73424  0.71524  0.30656  1.0000
  O   O9        1.0  0.19471  0.11415  0.63203  1.0000
  O   O10       1.0  0.80529  0.88585  0.36796  1.0000
  O   O11       1.0  0.23019  0.12774  0.81840  1.0000
  O   O12       1.0  0.76980  0.87226  0.18161  1.0000
