data_image0
_chemical_formula_structural       Cd2H44C36S2N12O12
_chemical_formula_sum              "Cd2 H44 C36 S2 N12 O12"
_cell_length_a       8.90995
_cell_length_b       12.0121
_cell_length_c       12.717
_cell_angle_alpha    89.86
_cell_angle_beta     79.8087
_cell_angle_gamma    69.3913

_space_group_name_H-M_alt    "P 1"
_space_group_IT_number       1

loop_
  _space_group_symop_operation_xyz
  'x, y, z'

loop_
  _atom_site_type_symbol
  _atom_site_label
  _atom_site_symmetry_multiplicity
  _atom_site_fract_x
  _atom_site_fract_y
  _atom_site_fract_z
  _atom_site_occupancy
  Cd  Cd1       1.0  0.21791  0.26136  0.30049  1.0000
  Cd  Cd2       1.0  0.78209  0.73864  0.69951  1.0000
  H   H1        1.0  0.00618  0.49778  0.41872  1.0000
  H   H2        1.0  0.99382  0.50222  0.58129  1.0000
  H   H3        1.0  0.91303  0.40561  0.40531  1.0000
  H   H4        1.0  0.08697  0.59439  0.59469  1.0000
  H   H5        1.0  0.40615  0.36242  0.43228  1.0000
  H   H6        1.0  0.59385  0.63758  0.56772  1.0000
  H   H7        1.0  0.53826  0.28147  0.33424  1.0000
  H   H8        1.0  0.46174  0.71854  0.66575  1.0000
  H   H9        1.0  0.28120  0.75122  0.23305  1.0000
  H   H10       1.0  0.71880  0.24878  0.76695  1.0000
  H   H11       1.0  0.82786  0.02786  0.20718  1.0000
  H   H12       1.0  0.17214  0.97214  0.79282  1.0000
  H   H13       1.0  0.07684  0.75605  0.94972  1.0000
  H   H14       1.0  0.92316  0.24395  0.05028  1.0000
  H   H15       1.0  0.35887  0.62906  0.95316  1.0000
  H   H16       1.0  0.64113  0.37094  0.04684  1.0000
  H   H17       1.0  0.44346  0.62295  0.07201  1.0000
  H   H18       1.0  0.55654  0.37705  0.92799  1.0000
  H   H19       1.0  0.37802  0.48228  0.21843  1.0000
  H   H20       1.0  0.62198  0.51772  0.78157  1.0000
  H   H21       1.0  0.11646  0.32955  0.05646  1.0000
  H   H22       1.0  0.88353  0.67045  0.94353  1.0000
  H   H23       1.0  0.18132  0.50953  0.93511  1.0000
  H   H24       1.0  0.81867  0.49047  0.06489  1.0000
  H   H25       1.0  0.15974  0.91381  0.36655  1.0000
  H   H26       1.0  0.84026  0.08619  0.63345  1.0000
  H   H27       1.0  0.01259  0.04716  0.33352  1.0000
  H   H28       1.0  0.98741  0.95284  0.66648  1.0000
  H   H29       1.0  0.06145  0.77292  0.49036  1.0000
  H   H30       1.0  0.93856  0.22708  0.50964  1.0000
  H   H31       1.0  0.56410  0.98824  0.57864  1.0000
  H   H32       1.0  0.43590  0.01176  0.42136  1.0000
  H   H33       1.0  0.71042  0.08701  0.40724  1.0000
  H   H34       1.0  0.28957  0.91299  0.59276  1.0000
  H   H35       1.0  0.81067  0.03301  0.97559  1.0000
  H   H36       1.0  0.18933  0.96699  0.02441  1.0000
  H   H37       1.0  0.80550  0.89153  0.94488  1.0000
  H   H38       1.0  0.19451  0.10847  0.05512  1.0000
  H   H39       1.0  0.58728  0.17416  0.11477  1.0000
  H   H40       1.0  0.41272  0.82584  0.88523  1.0000
  H   H41       1.0  0.32809  0.95400  0.23682  1.0000
  H   H42       1.0  0.67191  0.04600  0.76318  1.0000
  H   H43       1.0  0.60917  0.81711  0.09395  1.0000
  H   H44       1.0  0.39083  0.18288  0.90605  1.0000
  C   C1        1.0  0.19305  0.74256  0.08669  1.0000
  C   C2        1.0  0.80695  0.25744  0.91331  1.0000
  C   C3        1.0  0.18369  0.79210  0.18809  1.0000
  C   C4        1.0  0.81631  0.20790  0.81191  1.0000
  C   C5        1.0  0.05128  0.89391  0.23197  1.0000
  C   C6        1.0  0.94872  0.10609  0.76804  1.0000
  C   C7        1.0  0.92735  0.94561  0.17390  1.0000
  C   C8        1.0  0.07265  0.05439  0.82611  1.0000
  C   C9        1.0  0.93404  0.89542  0.07334  1.0000
  C   C10       1.0  0.06596  0.10457  0.92666  1.0000
  C   C11       1.0  0.06768  0.79439  0.02946  1.0000
  C   C12       1.0  0.93232  0.20561  0.97054  1.0000
  C   C13       1.0  0.33318  0.63038  0.04092  1.0000
  C   C14       1.0  0.66682  0.36962  0.95908  1.0000
  C   C15       1.0  0.31232  0.46556  0.15969  1.0000
  C   C16       1.0  0.68768  0.53444  0.84031  1.0000
  C   C17       1.0  0.18140  0.38729  0.07131  1.0000
  C   C18       1.0  0.81860  0.61271  0.92869  1.0000
  C   C19       1.0  0.20955  0.47583  0.01141  1.0000
  C   C20       1.0  0.79045  0.52417  0.98859  1.0000
  C   C21       1.0  0.04245  0.95078  0.33962  1.0000
  C   C22       1.0  0.95756  0.04922  0.66038  1.0000
  C   C23       1.0  0.94386  0.84273  0.49054  1.0000
  C   C24       1.0  0.05614  0.15727  0.50946  1.0000
  C   C25       1.0  0.68824  0.95731  0.53391  1.0000
  C   C26       1.0  0.31176  0.04269  0.46609  1.0000
  C   C27       1.0  0.75685  0.00737  0.45008  1.0000
  C   C28       1.0  0.24315  0.99263  0.54992  1.0000
  C   C29       1.0  0.79942  0.95227  0.01110  1.0000
  C   C30       1.0  0.20058  0.04773  0.98890  1.0000
  C   C31       1.0  0.54984  0.09777  0.12804  1.0000
  C   C32       1.0  0.45016  0.90222  0.87196  1.0000
  C   C33       1.0  0.42336  0.97971  0.19063  1.0000
  C   C34       1.0  0.57664  0.02028  0.80937  1.0000
  C   C35       1.0  0.56059  0.91099  0.12006  1.0000
  C   C36       1.0  0.43941  0.08900  0.87993  1.0000
  S   S1        1.0  0.81514  0.29973  0.27301  1.0000
  S   S2        1.0  0.18486  0.70027  0.72699  1.0000
  N   N1        1.0  0.29268  0.52428  0.06869  1.0000
  N   N2        1.0  0.70732  0.47572  0.93131  1.0000
  N   N3        1.0  0.24600  0.38170  0.16311  1.0000
  N   N4        1.0  0.75400  0.61829  0.83689  1.0000
  N   N5        1.0  0.91894  0.93354  0.42402  1.0000
  N   N6        1.0  0.08106  0.06646  0.57598  1.0000
  N   N7        1.0  0.80575  0.85528  0.55824  1.0000
  N   N8        1.0  0.19426  0.14471  0.44176  1.0000
  N   N9        1.0  0.63888  0.98748  0.08043  1.0000
  N   N10       1.0  0.36112  0.01252  0.91957  1.0000
  N   N11       1.0  0.41774  0.09604  0.19499  1.0000
  N   N12       1.0  0.58226  0.90396  0.80501  1.0000
  O   O1        1.0  0.01726  0.41427  0.42179  1.0000
  O   O2        1.0  0.98274  0.58572  0.57821  1.0000
  O   O3        1.0  0.41700  0.32011  0.36484  1.0000
  O   O4        1.0  0.58299  0.67990  0.63516  1.0000
  O   O5        1.0  0.99513  0.22701  0.24203  1.0000
  O   O6        1.0  0.00487  0.77300  0.75797  1.0000
  O   O7        1.0  0.78010  0.36110  0.38205  1.0000
  O   O8        1.0  0.21989  0.63890  0.61795  1.0000
  O   O9        1.0  0.76349  0.38655  0.19222  1.0000
  O   O10       1.0  0.23651  0.61345  0.80778  1.0000
  O   O11       1.0  0.72399  0.21479  0.27944  1.0000
  O   O12       1.0  0.27601  0.78521  0.72056  1.0000
