data_image0
_chemical_formula_structural       Ni2H44C36S2N12O12
_chemical_formula_sum              "Ni2 H44 C36 S2 N12 O12"
_cell_length_a       8.64522
_cell_length_b       11.5719
_cell_length_c       12.66
_cell_angle_alpha    88.9349
_cell_angle_beta     78.8656
_cell_angle_gamma    69.8474

_space_group_name_H-M_alt    "P 1"
_space_group_IT_number       1

loop_
  _space_group_symop_operation_xyz
  'x, y, z'

loop_
  _atom_site_type_symbol
  _atom_site_label
  _atom_site_symmetry_multiplicity
  _atom_site_fract_x
  _atom_site_fract_y
  _atom_site_fract_z
  _atom_site_occupancy
  Ni  Ni1       1.0  0.21972  0.26681  0.29975  1.0000
  Ni  Ni2       1.0  0.76179  0.74758  0.70149  1.0000
  H   H1        1.0  0.93787  0.41971  0.39368  1.0000
  H   H2        1.0  0.04396  0.59028  0.64898  1.0000
  H   H3        1.0  0.06248  0.49643  0.37801  1.0000
  H   H4        1.0  0.88607  0.55478  0.60021  1.0000
  H   H5        1.0  0.37024  0.33220  0.43747  1.0000
  H   H6        1.0  0.65920  0.50102  0.51332  1.0000
  H   H7        1.0  0.52970  0.28152  0.33934  1.0000
  H   H8        1.0  0.53507  0.60810  0.59621  1.0000
  H   H9        1.0  0.27603  0.74985  0.25375  1.0000
  H   H10       1.0  0.71566  0.26636  0.75750  1.0000
  H   H11       1.0  0.80399  0.02641  0.22987  1.0000
  H   H12       1.0  0.17572  0.97300  0.77629  1.0000
  H   H13       1.0  0.08452  0.76403  0.96244  1.0000
  H   H14       1.0  0.93125  0.24724  0.03947  1.0000
  H   H15       1.0  0.37421  0.63729  0.96868  1.0000
  H   H16       1.0  0.64991  0.38805  0.03836  1.0000
  H   H17       1.0  0.45195  0.62588  0.09182  1.0000
  H   H18       1.0  0.55463  0.39340  0.92357  1.0000
  H   H19       1.0  0.37165  0.48145  0.23468  1.0000
  H   H20       1.0  0.62532  0.52942  0.76474  1.0000
  H   H21       1.0  0.11053  0.32567  0.06598  1.0000
  H   H22       1.0  0.89638  0.69950  0.91160  1.0000
  H   H23       1.0  0.19549  0.50779  0.94192  1.0000
  H   H24       1.0  0.83470  0.51478  0.04419  1.0000
  H   H25       1.0  0.14345  0.90990  0.38928  1.0000
  H   H26       1.0  0.83198  0.09736  0.62385  1.0000
  H   H27       1.0  0.99311  0.04808  0.35632  1.0000
  H   H28       1.0  0.98451  0.95839  0.65640  1.0000
  H   H29       1.0  0.04002  0.76549  0.51609  1.0000
  H   H30       1.0  0.93854  0.24717  0.50107  1.0000
  H   H31       1.0  0.52670  0.98686  0.60324  1.0000
  H   H32       1.0  0.44455  0.01726  0.40191  1.0000
  H   H33       1.0  0.68159  0.08700  0.42836  1.0000
  H   H34       1.0  0.29127  0.91075  0.57258  1.0000
  H   H35       1.0  0.81150  0.04075  0.98952  1.0000
  H   H36       1.0  0.18616  0.96063  0.01308  1.0000
  H   H37       1.0  0.79518  0.89768  0.96109  1.0000
  H   H38       1.0  0.21288  0.10113  0.03808  1.0000
  H   H39       1.0  0.58759  0.19008  0.13435  1.0000
  H   H40       1.0  0.39572  0.81105  0.85066  1.0000
  H   H41       1.0  0.27311  0.98318  0.23236  1.0000
  H   H42       1.0  0.73271  0.00631  0.77214  1.0000
  H   H43       1.0  0.56701  0.83332  0.09664  1.0000
  H   H44       1.0  0.44547  0.15542  0.91293  1.0000
  C   C1        1.0  0.19344  0.74530  0.10378  1.0000
  C   C2        1.0  0.81098  0.26868  0.90300  1.0000
  C   C3        1.0  0.17675  0.79120  0.20821  1.0000
  C   C4        1.0  0.81594  0.22092  0.80129  1.0000
  C   C5        1.0  0.03560  0.89159  0.25379  1.0000
  C   C6        1.0  0.94827  0.11522  0.75575  1.0000
  C   C7        1.0  0.90962  0.94451  0.19515  1.0000
  C   C8        1.0  0.07647  0.05787  0.81164  1.0000
  C   C9        1.0  0.92367  0.89777  0.09157  1.0000
  C   C10       1.0  0.07384  0.10552  0.91258  1.0000
  C   C11       1.0  0.06650  0.79839  0.04545  1.0000
  C   C12       1.0  0.93975  0.21068  0.95872  1.0000
  C   C13       1.0  0.34246  0.63394  0.05649  1.0000
  C   C14       1.0  0.67134  0.38549  0.94999  1.0000
  C   C15       1.0  0.30869  0.46433  0.17356  1.0000
  C   C16       1.0  0.69030  0.55139  0.82254  1.0000
  C   C17       1.0  0.17849  0.38437  0.08158  1.0000
  C   C18       1.0  0.82755  0.63875  0.90389  1.0000
  C   C19       1.0  0.21729  0.47389  0.02028  1.0000
  C   C20       1.0  0.80098  0.54762  0.96800  1.0000
  C   C21       1.0  0.02346  0.94817  0.36237  1.0000
  C   C22       1.0  0.95360  0.05839  0.64876  1.0000
  C   C23       1.0  0.91964  0.83670  0.51563  1.0000
  C   C24       1.0  0.05781  0.17270  0.49758  1.0000
  C   C25       1.0  0.65514  0.95507  0.55902  1.0000
  C   C26       1.0  0.31787  0.05083  0.44906  1.0000
  C   C27       1.0  0.72785  0.00508  0.47255  1.0000
  C   C28       1.0  0.24594  0.99774  0.53385  1.0000
  C   C29       1.0  0.79055  0.95962  0.02697  1.0000
  C   C30       1.0  0.20975  0.04005  0.97399  1.0000
  C   C31       1.0  0.53757  0.11559  0.14228  1.0000
  C   C32       1.0  0.45098  0.88309  0.84932  1.0000
  C   C33       1.0  0.38260  0.00340  0.19312  1.0000
  C   C34       1.0  0.61903  0.98975  0.80775  1.0000
  C   C35       1.0  0.52572  0.92874  0.12574  1.0000
  C   C36       1.0  0.47939  0.06312  0.87807  1.0000
  S   S1        1.0  0.82124  0.30878  0.27735  1.0000
  S   S2        1.0  0.21192  0.69023  0.72679  1.0000
  N   N1        1.0  0.30002  0.52294  0.07997  1.0000
  N   N2        1.0  0.71427  0.49418  0.91557  1.0000
  N   N3        1.0  0.23584  0.37958  0.17669  1.0000
  N   N4        1.0  0.75755  0.63997  0.81418  1.0000
  N   N5        1.0  0.89437  0.92932  0.44692  1.0000
  N   N6        1.0  0.08117  0.07637  0.56288  1.0000
  N   N7        1.0  0.77586  0.85057  0.58513  1.0000
  N   N8        1.0  0.19955  0.15898  0.42692  1.0000
  N   N9        1.0  0.62197  0.00150  0.09354  1.0000
  N   N10       1.0  0.37608  0.99453  0.90429  1.0000
  N   N11       1.0  0.39157  0.11934  0.20326  1.0000
  N   N12       1.0  0.59947  0.87846  0.78996  1.0000
  O   O1        1.0  0.05238  0.41958  0.40493  1.0000
  O   O2        1.0  0.93313  0.61843  0.61209  1.0000
  O   O3        1.0  0.40211  0.32051  0.35941  1.0000
  O   O4        1.0  0.64958  0.54420  0.58131  1.0000
  O   O5        1.0  0.00702  0.23390  0.25121  1.0000
  O   O6        1.0  0.04586  0.79206  0.75600  1.0000
  O   O7        1.0  0.78422  0.39161  0.37614  1.0000
  O   O8        1.0  0.18400  0.57448  0.69371  1.0000
  O   O9        1.0  0.76896  0.38085  0.18503  1.0000
  O   O10       1.0  0.29543  0.66251  0.82155  1.0000
  O   O11       1.0  0.72801  0.22006  0.30329  1.0000
  O   O12       1.0  0.32250  0.72524  0.63533  1.0000
