data_image0
_chemical_formula_structural       Zn2H28C22S2N8O8
_chemical_formula_sum              "Zn2 H28 C22 S2 N8 O8"
_cell_length_a       7.99201
_cell_length_b       9.37782
_cell_length_c       10.0542
_cell_angle_alpha    96.9432
_cell_angle_beta     88.1233
_cell_angle_gamma    98.4622

_space_group_name_H-M_alt    "P 1"
_space_group_IT_number       1

loop_
  _space_group_symop_operation_xyz
  'x, y, z'

loop_
  _atom_site_type_symbol
  _atom_site_label
  _atom_site_symmetry_multiplicity
  _atom_site_fract_x
  _atom_site_fract_y
  _atom_site_fract_z
  _atom_site_occupancy
  Zn  Zn1       1.0  0.15560  0.34473  0.32529  1.0000
  Zn  Zn2       1.0  0.84440  0.65527  0.67470  1.0000
  H   H1        1.0  0.83677  0.02184  0.67822  1.0000
  H   H2        1.0  0.16323  0.97815  0.32178  1.0000
  H   H3        1.0  0.96914  0.17767  0.74925  1.0000
  H   H4        1.0  0.03087  0.82232  0.25075  1.0000
  H   H5        1.0  0.85180  0.16176  0.35417  1.0000
  H   H6        1.0  0.14821  0.83824  0.64583  1.0000
  H   H7        1.0  0.70649  0.95812  0.24723  1.0000
  H   H8        1.0  0.29352  0.04189  0.75276  1.0000
  H   H9        1.0  0.51721  0.79889  0.56299  1.0000
  H   H10       1.0  0.48281  0.20110  0.43700  1.0000
  H   H11       1.0  0.31927  0.56669  0.54968  1.0000
  H   H12       1.0  0.68076  0.43331  0.45031  1.0000
  H   H13       1.0  0.38096  0.49080  0.13762  1.0000
  H   H14       1.0  0.61903  0.50922  0.86237  1.0000
  H   H15       1.0  0.57622  0.72622  0.13084  1.0000
  H   H16       1.0  0.42378  0.27378  0.86915  1.0000
  H   H17       1.0  0.63941  0.33060  0.05140  1.0000
  H   H18       1.0  0.36058  0.66942  0.94861  1.0000
  H   H19       1.0  0.83793  0.38634  0.96892  1.0000
  H   H20       1.0  0.16206  0.61366  0.03108  1.0000
  H   H21       1.0  0.75752  0.50799  0.09151  1.0000
  H   H22       1.0  0.24248  0.49201  0.90850  1.0000
  H   H23       1.0  0.35256  0.99012  0.96786  1.0000
  H   H24       1.0  0.64744  0.00989  0.03215  1.0000
  H   H25       1.0  0.15589  0.93371  0.04499  1.0000
  H   H26       1.0  0.84411  0.06628  0.95501  1.0000
  H   H27       1.0  0.34511  0.92820  0.12978  1.0000
  H   H28       1.0  0.65488  0.07181  0.87023  1.0000
  C   C1        1.0  0.92906  0.17986  0.55393  1.0000
  C   C2        1.0  0.07095  0.82013  0.44607  1.0000
  C   C3        1.0  0.67539  0.91825  0.34471  1.0000
  C   C4        1.0  0.32462  0.08175  0.65528  1.0000
  C   C5        1.0  0.56081  0.78309  0.34723  1.0000
  C   C6        1.0  0.43920  0.21692  0.65277  1.0000
  C   C7        1.0  0.48887  0.73498  0.46649  1.0000
  C   C8        1.0  0.51114  0.26503  0.53350  1.0000
  C   C9        1.0  0.37960  0.60537  0.45936  1.0000
  C   C10       1.0  0.62042  0.39461  0.54063  1.0000
  C   C11       1.0  0.41326  0.56491  0.22809  1.0000
  C   C12       1.0  0.58674  0.43510  0.77190  1.0000
  C   C13       1.0  0.52093  0.69512  0.22603  1.0000
  C   C14       1.0  0.47908  0.30488  0.77395  1.0000
  C   C15       1.0  0.86162  0.33783  0.17000  1.0000
  C   C16       1.0  0.13837  0.66216  0.83000  1.0000
  C   C17       1.0  0.76620  0.39238  0.06405  1.0000
  C   C18       1.0  0.23380  0.60763  0.93595  1.0000
  C   C19       1.0  0.27575  0.14334  0.12929  1.0000
  C   C20       1.0  0.72422  0.85666  0.87072  1.0000
  C   C21       1.0  0.28497  0.99037  0.06401  1.0000
  C   C22       1.0  0.71502  0.00963  0.93599  1.0000
  S   S1        1.0  0.05957  0.33989  0.54646  1.0000
  S   S2        1.0  0.94044  0.66011  0.45355  1.0000
  N   N1        1.0  0.90111  0.12508  0.67022  1.0000
  N   N2        1.0  0.09890  0.87491  0.32978  1.0000
  N   N3        1.0  0.84941  0.10931  0.44308  1.0000
  N   N4        1.0  0.15060  0.89069  0.55692  1.0000
  N   N5        1.0  0.74151  0.98612  0.45475  1.0000
  N   N6        1.0  0.25850  0.01387  0.54525  1.0000
  N   N7        1.0  0.34198  0.52077  0.34236  1.0000
  N   N8        1.0  0.65802  0.47923  0.65764  1.0000
  O   O1        1.0  0.79411  0.22949  0.22634  1.0000
  O   O2        1.0  0.20588  0.77050  0.77365  1.0000
  O   O3        1.0  0.01019  0.40769  0.19553  1.0000
  O   O4        1.0  0.98980  0.59231  0.80449  1.0000
  O   O5        1.0  0.31438  0.25010  0.06615  1.0000
  O   O6        1.0  0.68560  0.74991  0.93387  1.0000
  O   O7        1.0  0.22079  0.15242  0.25401  1.0000
  O   O8        1.0  0.77917  0.84757  0.74600  1.0000
