data_image0
_chemical_formula_structural       Nd2H38C60N10O14
_chemical_formula_sum              "Nd2 H38 C60 N10 O14"
_cell_length_a       10.5995
_cell_length_b       11.1812
_cell_length_c       13.656
_cell_angle_alpha    110.254
_cell_angle_beta     101.116
_cell_angle_gamma    107.961

_space_group_name_H-M_alt    "P 1"
_space_group_IT_number       1

loop_
  _space_group_symop_operation_xyz
  'x, y, z'

loop_
  _atom_site_type_symbol
  _atom_site_label
  _atom_site_symmetry_multiplicity
  _atom_site_fract_x
  _atom_site_fract_y
  _atom_site_fract_z
  _atom_site_occupancy
  Nd  Nd1       1.0  0.00052  0.08221  0.88077  1.0000
  Nd  Nd2       1.0  0.99948  0.91779  0.11923  1.0000
  H   H1        1.0  0.12579  0.35195  0.86087  1.0000
  H   H2        1.0  0.87421  0.64805  0.13913  1.0000
  H   H3        1.0  0.23725  0.35928  0.95962  1.0000
  H   H4        1.0  0.76275  0.64072  0.04038  1.0000
  H   H5        1.0  0.65302  0.91823  0.72467  1.0000
  H   H6        1.0  0.34698  0.08177  0.27533  1.0000
  H   H7        1.0  0.47433  0.76659  0.53114  1.0000
  H   H8        1.0  0.52567  0.23341  0.46886  1.0000
  H   H9        1.0  0.55898  0.68218  0.37355  1.0000
  H   H10       1.0  0.44102  0.31782  0.62645  1.0000
  H   H11       1.0  0.26558  0.88617  0.48602  1.0000
  H   H12       1.0  0.73442  0.11383  0.51398  1.0000
  H   H13       1.0  0.42211  0.03775  0.68568  1.0000
  H   H14       1.0  0.57789  0.96225  0.31432  1.0000
  H   H15       1.0  0.30927  0.10058  0.83037  1.0000
  H   H16       1.0  0.69073  0.89942  0.16963  1.0000
  H   H17       1.0  0.76569  0.68756  0.30563  1.0000
  H   H18       1.0  0.23431  0.31244  0.69437  1.0000
  H   H19       1.0  0.02118  0.75775  0.34702  1.0000
  H   H20       1.0  0.97882  0.24225  0.65298  1.0000
  H   H21       1.0  0.99991  0.76321  0.70108  1.0000
  H   H22       1.0  0.00009  0.23679  0.29892  1.0000
  H   H23       1.0  0.92481  0.57865  0.50481  1.0000
  H   H24       1.0  0.07519  0.42135  0.49519  1.0000
  H   H25       1.0  0.76905  0.33379  0.46059  1.0000
  H   H26       1.0  0.23095  0.66621  0.53941  1.0000
  H   H27       1.0  0.72872  0.24008  0.93845  1.0000
  H   H28       1.0  0.27129  0.75992  0.06155  1.0000
  H   H29       1.0  0.52607  0.30380  0.97002  1.0000
  H   H30       1.0  0.47393  0.69620  0.02998  1.0000
  H   H31       1.0  0.45799  0.44707  0.88143  1.0000
  H   H32       1.0  0.54201  0.55293  0.11857  1.0000
  H   H33       1.0  0.55557  0.67577  0.79434  1.0000
  H   H34       1.0  0.44443  0.32423  0.20566  1.0000
  H   H35       1.0  0.29136  0.55404  0.72133  1.0000
  H   H36       1.0  0.70864  0.44596  0.27867  1.0000
  H   H37       1.0  0.15400  0.67964  0.80795  1.0000
  H   H38       1.0  0.84600  0.32036  0.19205  1.0000
  C   C1        1.0  0.68514  0.87976  0.65275  1.0000
  C   C2        1.0  0.31486  0.12024  0.34725  1.0000
  C   C3        1.0  0.58645  0.79557  0.54535  1.0000
  C   C4        1.0  0.41355  0.20443  0.45465  1.0000
  C   C5        1.0  0.63339  0.74965  0.45756  1.0000
  C   C6        1.0  0.36660  0.25035  0.54244  1.0000
  C   C7        1.0  0.77951  0.79055  0.47739  1.0000
  C   C8        1.0  0.22049  0.20945  0.52261  1.0000
  C   C9        1.0  0.87147  0.87612  0.58870  1.0000
  C   C10       1.0  0.12853  0.12388  0.41130  1.0000
  C   C11       1.0  0.02152  0.91958  0.61274  1.0000
  C   C12       1.0  0.97848  0.08042  0.38726  1.0000
  C   C13       1.0  0.07468  0.87544  0.52487  1.0000
  C   C14       1.0  0.92532  0.12456  0.47513  1.0000
  C   C15       1.0  0.22217  0.91897  0.55197  1.0000
  C   C16       1.0  0.77783  0.08103  0.44803  1.0000
  C   C17       1.0  0.30787  0.00086  0.66133  1.0000
  C   C18       1.0  0.69213  0.99914  0.33867  1.0000
  C   C19       1.0  0.24581  0.03796  0.74301  1.0000
  C   C20       1.0  0.75419  0.96204  0.25699  1.0000
  C   C21       1.0  0.83708  0.74977  0.39099  1.0000
  C   C22       1.0  0.16292  0.25022  0.60901  1.0000
  C   C23       1.0  0.97903  0.79017  0.41369  1.0000
  C   C24       1.0  0.02097  0.20982  0.58631  1.0000
  C   C25       1.0  0.92501  0.73287  0.86843  1.0000
  C   C26       1.0  0.07499  0.26713  0.13157  1.0000
  C   C27       1.0  0.87793  0.62142  0.75297  1.0000
  C   C28       1.0  0.12207  0.37858  0.24703  1.0000
  C   C29       1.0  0.92802  0.65609  0.67490  1.0000
  C   C30       1.0  0.07198  0.34390  0.32510  1.0000
  C   C31       1.0  0.88858  0.55400  0.56774  1.0000
  C   C32       1.0  0.11142  0.44600  0.43226  1.0000
  C   C33       1.0  0.80148  0.41806  0.54341  1.0000
  C   C34       1.0  0.19852  0.58194  0.45659  1.0000
  C   C35       1.0  0.78958  0.48141  0.72013  1.0000
  C   C36       1.0  0.21042  0.51859  0.27987  1.0000
  C   C37       1.0  0.72441  0.43488  0.79576  1.0000
  C   C38       1.0  0.27559  0.56512  0.20424  1.0000
  C   C39       1.0  0.76989  0.35461  0.84153  1.0000
  C   C40       1.0  0.23011  0.64539  0.15847  1.0000
  C   C41       1.0  0.69655  0.30480  0.90391  1.0000
  C   C42       1.0  0.30345  0.69520  0.09609  1.0000
  C   C43       1.0  0.58434  0.33937  0.92063  1.0000
  C   C44       1.0  0.41566  0.66063  0.07937  1.0000
  C   C45       1.0  0.54699  0.41994  0.87167  1.0000
  C   C46       1.0  0.45301  0.58006  0.12833  1.0000
  C   C47       1.0  0.89375  0.32088  0.82648  1.0000
  C   C48       1.0  0.10625  0.67912  0.17352  1.0000
  C   C49       1.0  0.71473  0.92883  0.95343  1.0000
  C   C50       1.0  0.28527  0.07117  0.04657  1.0000
  C   C51       1.0  0.55639  0.86520  0.91151  1.0000
  C   C52       1.0  0.44361  0.13480  0.08849  1.0000
  C   C53       1.0  0.49129  0.72911  0.82611  1.0000
  C   C54       1.0  0.50871  0.27089  0.17389  1.0000
  C   C55       1.0  0.34513  0.66077  0.78636  1.0000
  C   C56       1.0  0.65487  0.33923  0.21364  1.0000
  C   C57       1.0  0.26835  0.73133  0.83396  1.0000
  C   C58       1.0  0.73165  0.26867  0.16604  1.0000
  C   C59       1.0  0.47022  0.92870  0.95396  1.0000
  C   C60       1.0  0.52978  0.07130  0.04604  1.0000
  N   N1        1.0  0.82333  0.91754  0.67436  1.0000
  N   N2        1.0  0.17667  0.08246  0.32564  1.0000
  N   N3        1.0  0.10729  0.99897  0.72012  1.0000
  N   N4        1.0  0.89271  0.00103  0.27988  1.0000
  N   N5        1.0  0.75307  0.38143  0.61728  1.0000
  N   N6        1.0  0.24693  0.61857  0.38272  1.0000
  N   N7        1.0  0.61439  0.46638  0.80953  1.0000
  N   N8        1.0  0.38561  0.53362  0.19047  1.0000
  N   N9        1.0  0.32894  0.86157  0.91432  1.0000
  N   N10       1.0  0.67106  0.13843  0.08568  1.0000
  O   O1        1.0  0.92671  0.69936  0.94811  1.0000
  O   O2        1.0  0.07329  0.30064  0.05189  1.0000
  O   O3        1.0  0.96444  0.85954  0.88246  1.0000
  O   O4        1.0  0.03556  0.14046  0.11754  1.0000
  O   O5        1.0  0.00232  0.41135  0.82897  1.0000
  O   O6        1.0  0.99768  0.58865  0.17103  1.0000
  O   O7        1.0  0.87819  0.19714  0.81230  1.0000
  O   O8        1.0  0.12181  0.80286  0.18770  1.0000
  O   O9        1.0  0.77659  0.99878  0.90802  1.0000
  O   O10       1.0  0.22341  0.00122  0.09198  1.0000
  O   O11       1.0  0.77057  0.89116  0.02192  1.0000
  O   O12       1.0  0.22943  0.10884  0.97808  1.0000
  O   O13       1.0  0.18555  0.30294  0.88053  1.0000
  O   O14       1.0  0.81444  0.69706  0.11947  1.0000
