data_image0
_chemical_formula_structural       Tb2H38C60N10O14
_chemical_formula_sum              "Tb2 H38 C60 N10 O14"
_cell_length_a       10.4569
_cell_length_b       11.1704
_cell_length_c       13.497
_cell_angle_alpha    110.164
_cell_angle_beta     101.31
_cell_angle_gamma    107.793

_space_group_name_H-M_alt    "P 1"
_space_group_IT_number       1

loop_
  _space_group_symop_operation_xyz
  'x, y, z'

loop_
  _atom_site_type_symbol
  _atom_site_label
  _atom_site_symmetry_multiplicity
  _atom_site_fract_x
  _atom_site_fract_y
  _atom_site_fract_z
  _atom_site_occupancy
  Tb  Tb1       1.0  0.49942  0.41579  0.62345  1.0000
  Tb  Tb2       1.0  0.50058  0.58421  0.37655  1.0000
  H   H1        1.0  0.36534  0.14580  0.63093  1.0000
  H   H2        1.0  0.63466  0.85420  0.36907  1.0000
  H   H3        1.0  0.26011  0.14977  0.53195  1.0000
  H   H4        1.0  0.73989  0.85023  0.46804  1.0000
  H   H5        1.0  0.03992  0.04959  0.61533  1.0000
  H   H6        1.0  0.96008  0.95041  0.38467  1.0000
  H   H7        1.0  0.96946  0.19184  0.52472  1.0000
  H   H8        1.0  0.03053  0.80816  0.47528  1.0000
  H   H9        1.0  0.76139  0.25236  0.55386  1.0000
  H   H10       1.0  0.23861  0.74764  0.44614  1.0000
  H   H11       1.0  0.50656  0.74205  0.81360  1.0000
  H   H12       1.0  0.49344  0.25795  0.18641  1.0000
  H   H13       1.0  0.58382  0.93547  0.00779  1.0000
  H   H14       1.0  0.41618  0.06453  0.99221  1.0000
  H   H15       1.0  0.73145  0.17818  0.04071  1.0000
  H   H16       1.0  0.26855  0.82183  0.95929  1.0000
  H   H17       1.0  0.06920  0.18527  0.29250  1.0000
  H   H18       1.0  0.93080  0.81474  0.70750  1.0000
  H   H19       1.0  0.80280  0.05830  0.21374  1.0000
  H   H20       1.0  0.19720  0.94170  0.78626  1.0000
  H   H21       1.0  0.65614  0.17686  0.29751  1.0000
  H   H22       1.0  0.34386  0.82314  0.70250  1.0000
  H   H23       1.0  0.18705  0.39209  0.66832  1.0000
  H   H24       1.0  0.81294  0.60790  0.33169  1.0000
  H   H25       1.0  0.07494  0.46094  0.81470  1.0000
  H   H26       1.0  0.92505  0.53906  0.18531  1.0000
  H   H27       1.0  0.23515  0.61637  0.01597  1.0000
  H   H28       1.0  0.76485  0.38363  0.98403  1.0000
  H   H29       1.0  0.48432  0.74863  0.15562  1.0000
  H   H30       1.0  0.51569  0.25137  0.84438  1.0000
  H   H31       1.0  0.74303  0.81797  0.19623  1.0000
  H   H32       1.0  0.25697  0.18203  0.80377  1.0000
  H   H33       1.0  0.95055  0.81561  0.12625  1.0000
  H   H34       1.0  0.04945  0.18439  0.87375  1.0000
  H   H35       1.0  0.03271  0.72251  0.96673  1.0000
  H   H36       1.0  0.96729  0.27749  0.03326  1.0000
  H   H37       1.0  0.84944  0.56575  0.77263  1.0000
  H   H38       1.0  0.15056  0.43425  0.22737  1.0000
  C   C1        1.0  0.76769  0.05830  0.69921  1.0000
  C   C2        1.0  0.23231  0.94170  0.30079  1.0000
  C   C3        1.0  0.94860  0.07527  0.62393  1.0000
  C   C4        1.0  0.05140  0.92473  0.37607  1.0000
  C   C5        1.0  0.90993  0.15539  0.57394  1.0000
  C   C6        1.0  0.09008  0.84461  0.42606  1.0000
  C   C7        1.0  0.79482  0.18813  0.58925  1.0000
  C   C8        1.0  0.20517  0.81187  0.41075  1.0000
  C   C9        1.0  0.72062  0.13762  0.65199  1.0000
  C   C10       1.0  0.27938  0.86238  0.34801  1.0000
  C   C11       1.0  0.59551  0.17164  0.66722  1.0000
  C   C12       1.0  0.40449  0.82836  0.33279  1.0000
  C   C13       1.0  0.70477  0.01572  0.77836  1.0000
  C   C14       1.0  0.29524  0.98428  0.22164  1.0000
  C   C15       1.0  0.62025  0.87658  0.75162  1.0000
  C   C16       1.0  0.37975  0.12342  0.24838  1.0000
  C   C17       1.0  0.57526  0.84868  0.83509  1.0000
  C   C18       1.0  0.42475  0.15132  0.16491  1.0000
  C   C19       1.0  0.61609  0.95561  0.94116  1.0000
  C   C20       1.0  0.38391  0.04439  0.05884  1.0000
  C   C21       1.0  0.69850  0.09016  0.95904  1.0000
  C   C22       1.0  0.30150  0.90984  0.04096  1.0000
  C   C23       1.0  0.57307  0.75646  0.63883  1.0000
  C   C24       1.0  0.42693  0.24354  0.36117  1.0000
  C   C25       1.0  0.97234  0.42966  0.45266  1.0000
  C   C26       1.0  0.02766  0.57034  0.54734  1.0000
  C   C27       1.0  0.06370  0.37075  0.41135  1.0000
  C   C28       1.0  0.93630  0.62925  0.58865  1.0000
  C   C29       1.0  0.00157  0.23579  0.32368  1.0000
  C   C30       1.0  0.99843  0.76421  0.67632  1.0000
  C   C31       1.0  0.85381  0.16431  0.28046  1.0000
  C   C32       1.0  0.14619  0.83569  0.71954  1.0000
  C   C33       1.0  0.77201  0.23081  0.32668  1.0000
  C   C34       1.0  0.22799  0.76919  0.67332  1.0000
  C   C35       1.0  0.22448  0.43721  0.45645  1.0000
  C   C36       1.0  0.77552  0.56278  0.54355  1.0000
  C   C37       1.0  0.25229  0.45679  0.75624  1.0000
  C   C38       1.0  0.74771  0.54321  0.24376  1.0000
  C   C39       1.0  0.19068  0.49736  0.83894  1.0000
  C   C40       1.0  0.80932  0.50264  0.16106  1.0000
  C   C41       1.0  0.27831  0.58135  0.94920  1.0000
  C   C42       1.0  0.72169  0.41865  0.05081  1.0000
  C   C43       1.0  0.42767  0.62446  0.97628  1.0000
  C   C44       1.0  0.57233  0.37554  0.02372  1.0000
  C   C45       1.0  0.52589  0.71317  0.08810  1.0000
  C   C46       1.0  0.47411  0.28683  0.91190  1.0000
  C   C47       1.0  0.66958  0.75278  0.11039  1.0000
  C   C48       1.0  0.33042  0.24722  0.88961  1.0000
  C   C49       1.0  0.72634  0.70735  0.02288  1.0000
  C   C50       1.0  0.27366  0.29265  0.97712  1.0000
  C   C51       1.0  0.87395  0.74609  0.04195  1.0000
  C   C52       1.0  0.12605  0.25392  0.95805  1.0000
  C   C53       1.0  0.91947  0.69505  0.95306  1.0000
  C   C54       1.0  0.08053  0.30495  0.04694  1.0000
  C   C55       1.0  0.81823  0.60797  0.84526  1.0000
  C   C56       1.0  0.18177  0.39203  0.15474  1.0000
  C   C57       1.0  0.63181  0.61846  0.91106  1.0000
  C   C58       1.0  0.36819  0.38154  0.08894  1.0000
  C   C59       1.0  0.48002  0.57634  0.88732  1.0000
  C   C60       1.0  0.51998  0.42366  0.11268  1.0000
  N   N1        1.0  0.88007  0.02780  0.68611  1.0000
  N   N2        1.0  0.11993  0.97220  0.31389  1.0000
  N   N3        1.0  0.74152  0.12066  0.88003  1.0000
  N   N4        1.0  0.25848  0.87934  0.11997  1.0000
  N   N5        1.0  0.82949  0.35980  0.40941  1.0000
  N   N6        1.0  0.17051  0.64020  0.59059  1.0000
  N   N7        1.0  0.67852  0.57200  0.82421  1.0000
  N   N8        1.0  0.32148  0.42800  0.17579  1.0000
  N   N9        1.0  0.39251  0.49441  0.77909  1.0000
  N   N10       1.0  0.60749  0.50559  0.22091  1.0000
  O   O1        1.0  0.31126  0.20105  0.61249  1.0000
  O   O2        1.0  0.68874  0.79895  0.38751  1.0000
  O   O3        1.0  0.48391  0.08056  0.66181  1.0000
  O   O4        1.0  0.51609  0.91944  0.33819  1.0000
  O   O5        1.0  0.61340  0.29683  0.68466  1.0000
  O   O6        1.0  0.38660  0.70316  0.31534  1.0000
  O   O7        1.0  0.56569  0.77893  0.55243  1.0000
  O   O8        1.0  0.43431  0.22107  0.44757  1.0000
  O   O9        1.0  0.54081  0.63603  0.63674  1.0000
  O   O10       1.0  0.45919  0.36397  0.36326  1.0000
  O   O11       1.0  0.28042  0.39700  0.52420  1.0000
  O   O12       1.0  0.71958  0.60300  0.47580  1.0000
  O   O13       1.0  0.28800  0.51135  0.41375  1.0000
  O   O14       1.0  0.71200  0.48865  0.58625  1.0000
