data_image0
_chemical_formula_structural       Cd4H44C72N8O20
_chemical_formula_sum              "Cd4 H44 C72 N8 O20"
_cell_length_a       7.51886
_cell_length_b       12.4081
_cell_length_c       17.281
_cell_angle_alpha    90
_cell_angle_beta     90
_cell_angle_gamma    96.0491

_space_group_name_H-M_alt    "P 1"
_space_group_IT_number       1

loop_
  _space_group_symop_operation_xyz
  'x, y, z'

loop_
  _atom_site_type_symbol
  _atom_site_label
  _atom_site_symmetry_multiplicity
  _atom_site_fract_x
  _atom_site_fract_y
  _atom_site_fract_z
  _atom_site_occupancy
  Cd  Cd1       1.0  0.57707  0.38530  0.69168  1.0000
  Cd  Cd2       1.0  0.42293  0.11470  0.19168  1.0000
  Cd  Cd3       1.0  0.42293  0.61470  0.30832  1.0000
  Cd  Cd4       1.0  0.57707  0.88530  0.80832  1.0000
  H   H1        1.0  0.90764  0.07018  0.01492  1.0000
  H   H2        1.0  0.09236  0.42982  0.51492  1.0000
  H   H3        1.0  0.09237  0.92982  0.98508  1.0000
  H   H4        1.0  0.90763  0.57018  0.48508  1.0000
  H   H5        1.0  0.09258  0.22351  0.07935  1.0000
  H   H6        1.0  0.90741  0.27650  0.57935  1.0000
  H   H7        1.0  0.90742  0.77650  0.92065  1.0000
  H   H8        1.0  0.09258  0.72350  0.42065  1.0000
  H   H9        1.0  0.13062  0.40574  0.01417  1.0000
  H   H10       1.0  0.86938  0.09427  0.51417  1.0000
  H   H11       1.0  0.86938  0.59427  0.98583  1.0000
  H   H12       1.0  0.13062  0.90573  0.48583  1.0000
  H   H13       1.0  0.96378  0.63305  0.80844  1.0000
  H   H14       1.0  0.03623  0.86695  0.30844  1.0000
  H   H15       1.0  0.03623  0.36695  0.19156  1.0000
  H   H16       1.0  0.96377  0.13305  0.69156  1.0000
  H   H17       1.0  0.14464  0.69076  0.69280  1.0000
  H   H18       1.0  0.85536  0.80924  0.19281  1.0000
  H   H19       1.0  0.85537  0.30924  0.30719  1.0000
  H   H20       1.0  0.14464  0.19076  0.80720  1.0000
  H   H21       1.0  0.37208  0.57313  0.64345  1.0000
  H   H22       1.0  0.62792  0.92686  0.14346  1.0000
  H   H23       1.0  0.62793  0.42686  0.35654  1.0000
  H   H24       1.0  0.37208  0.07313  0.85654  1.0000
  H   H25       1.0  0.25505  0.35078  0.82062  1.0000
  H   H26       1.0  0.74495  0.14922  0.32062  1.0000
  H   H27       1.0  0.74495  0.64921  0.17938  1.0000
  H   H28       1.0  0.25505  0.85078  0.67938  1.0000
  H   H29       1.0  0.45843  0.31993  0.52015  1.0000
  H   H30       1.0  0.54157  0.18007  0.02015  1.0000
  H   H31       1.0  0.54157  0.68007  0.47985  1.0000
  H   H32       1.0  0.45843  0.81994  0.97985  1.0000
  H   H33       1.0  0.43666  0.16092  0.43345  1.0000
  H   H34       1.0  0.56334  0.33908  0.93346  1.0000
  H   H35       1.0  0.56333  0.83908  0.56655  1.0000
  H   H36       1.0  0.43666  0.66092  0.06654  1.0000
  H   H37       1.0  0.58189  0.97076  0.63040  1.0000
  H   H38       1.0  0.41811  0.52924  0.13040  1.0000
  H   H39       1.0  0.41811  0.02923  0.36960  1.0000
  H   H40       1.0  0.58189  0.47077  0.86960  1.0000
  H   H41       1.0  0.59694  0.13791  0.70822  1.0000
  H   H42       1.0  0.40305  0.36209  0.20822  1.0000
  H   H43       1.0  0.40305  0.86208  0.29178  1.0000
  H   H44       1.0  0.59694  0.63792  0.79178  1.0000
  C   C1        1.0  0.74365  0.06658  0.87868  1.0000
  C   C2        1.0  0.25635  0.43342  0.37868  1.0000
  C   C3        1.0  0.25635  0.93342  0.12132  1.0000
  C   C4        1.0  0.74365  0.56658  0.62132  1.0000
  C   C5        1.0  0.84948  0.16271  0.91507  1.0000
  C   C6        1.0  0.15052  0.33729  0.41507  1.0000
  C   C7        1.0  0.15052  0.83729  0.08493  1.0000
  C   C8        1.0  0.84948  0.66271  0.58493  1.0000
  C   C9        1.0  0.92951  0.14932  0.98725  1.0000
  C   C10       1.0  0.07049  0.35068  0.48725  1.0000
  C   C11       1.0  0.07049  0.85068  0.01275  1.0000
  C   C12       1.0  0.92951  0.64932  0.51275  1.0000
  C   C13       1.0  0.03245  0.23513  0.02300  1.0000
  C   C14       1.0  0.96755  0.26487  0.52300  1.0000
  C   C15       1.0  0.96755  0.76487  0.97700  1.0000
  C   C16       1.0  0.03244  0.73512  0.47700  1.0000
  C   C17       1.0  0.05619  0.33611  0.98665  1.0000
  C   C18       1.0  0.94380  0.16390  0.48665  1.0000
  C   C19       1.0  0.94381  0.66390  0.01335  1.0000
  C   C20       1.0  0.05619  0.83610  0.51335  1.0000
  C   C21       1.0  0.97741  0.34938  0.91481  1.0000
  C   C22       1.0  0.02259  0.15062  0.41481  1.0000
  C   C23       1.0  0.02260  0.65062  0.08519  1.0000
  C   C24       1.0  0.97741  0.84937  0.58519  1.0000
  C   C25       1.0  0.87224  0.26438  0.87784  1.0000
  C   C26       1.0  0.12776  0.23562  0.37784  1.0000
  C   C27       1.0  0.12776  0.73562  0.12216  1.0000
  C   C28       1.0  0.87224  0.76438  0.62216  1.0000
  C   C29       1.0  0.77587  0.29102  0.80472  1.0000
  C   C30       1.0  0.22413  0.20898  0.30472  1.0000
  C   C31       1.0  0.22413  0.70898  0.19528  1.0000
  C   C32       1.0  0.77587  0.79102  0.69528  1.0000
  C   C33       1.0  0.09143  0.48531  0.82194  1.0000
  C   C34       1.0  0.90858  0.01469  0.32195  1.0000
  C   C35       1.0  0.90858  0.51469  0.17805  1.0000
  C   C36       1.0  0.09142  0.98531  0.67806  1.0000
  C   C37       1.0  0.06458  0.58372  0.78703  1.0000
  C   C38       1.0  0.93543  0.91628  0.28703  1.0000
  C   C39       1.0  0.93543  0.41628  0.21297  1.0000
  C   C40       1.0  0.06458  0.08372  0.71297  1.0000
  C   C41       1.0  0.16604  0.61593  0.72229  1.0000
  C   C42       1.0  0.83397  0.88408  0.22230  1.0000
  C   C43       1.0  0.83397  0.38407  0.27770  1.0000
  C   C44       1.0  0.16603  0.11592  0.77771  1.0000
  C   C45       1.0  0.29095  0.55073  0.69436  1.0000
  C   C46       1.0  0.70906  0.94927  0.19436  1.0000
  C   C47       1.0  0.70906  0.44927  0.30564  1.0000
  C   C48       1.0  0.29094  0.05073  0.80564  1.0000
  C   C49       1.0  0.22399  0.42533  0.79287  1.0000
  C   C50       1.0  0.77601  0.07467  0.29287  1.0000
  C   C51       1.0  0.77601  0.57467  0.20713  1.0000
  C   C52       1.0  0.22399  0.92532  0.70713  1.0000
  C   C53       1.0  0.48076  0.24012  0.54225  1.0000
  C   C54       1.0  0.51924  0.25988  0.04225  1.0000
  C   C55       1.0  0.51924  0.75988  0.45775  1.0000
  C   C56       1.0  0.48076  0.74013  0.95775  1.0000
  C   C57       1.0  0.46898  0.14990  0.49425  1.0000
  C   C58       1.0  0.53102  0.35011  0.99425  1.0000
  C   C59       1.0  0.53102  0.85010  0.50575  1.0000
  C   C60       1.0  0.46898  0.64990  0.00575  1.0000
  C   C61       1.0  0.50387  0.04908  0.52451  1.0000
  C   C62       1.0  0.49613  0.45092  0.02451  1.0000
  C   C63       1.0  0.49613  0.95092  0.47549  1.0000
  C   C64       1.0  0.50387  0.54909  0.97548  1.0000
  C   C65       1.0  0.54997  0.04538  0.60309  1.0000
  C   C66       1.0  0.45003  0.45462  0.10309  1.0000
  C   C67       1.0  0.45003  0.95462  0.39691  1.0000
  C   C68       1.0  0.54996  0.54538  0.89691  1.0000
  C   C69       1.0  0.55863  0.13905  0.64740  1.0000
  C   C70       1.0  0.44136  0.36095  0.14740  1.0000
  C   C71       1.0  0.44137  0.86094  0.35260  1.0000
  C   C72       1.0  0.55863  0.63906  0.85260  1.0000
  N   N1        1.0  0.32036  0.45782  0.72997  1.0000
  N   N2        1.0  0.67965  0.04219  0.22997  1.0000
  N   N3        1.0  0.67965  0.54218  0.27003  1.0000
  N   N4        1.0  0.32036  0.95781  0.77003  1.0000
  N   N5        1.0  0.52419  0.23489  0.61756  1.0000
  N   N6        1.0  0.47581  0.26511  0.11756  1.0000
  N   N7        1.0  0.47581  0.76510  0.38244  1.0000
  N   N8        1.0  0.52419  0.73490  0.88244  1.0000
  O   O1        1.0  0.68250  0.98783  0.92172  1.0000
  O   O2        1.0  0.31750  0.51218  0.42172  1.0000
  O   O3        1.0  0.31750  0.01218  0.07828  1.0000
  O   O4        1.0  0.68250  0.48782  0.57828  1.0000
  O   O5        1.0  0.72203  0.06578  0.80527  1.0000
  O   O6        1.0  0.27798  0.43422  0.30527  1.0000
  O   O7        1.0  0.27797  0.93422  0.19473  1.0000
  O   O8        1.0  0.72202  0.56578  0.69473  1.0000
  O   O9        1.0  0.61112  0.30801  0.81346  1.0000
  O   O10       1.0  0.38888  0.19199  0.31346  1.0000
  O   O11       1.0  0.38888  0.69199  0.18654  1.0000
  O   O12       1.0  0.61112  0.80801  0.68654  1.0000
  O   O13       1.0  0.85966  0.30461  0.74178  1.0000
  O   O14       1.0  0.14034  0.19539  0.24178  1.0000
  O   O15       1.0  0.14034  0.69538  0.25822  1.0000
  O   O16       1.0  0.85966  0.80462  0.75822  1.0000
  O   O17       1.0  0.98529  0.45469  0.88456  1.0000
  O   O18       1.0  0.01471  0.04531  0.38457  1.0000
  O   O19       1.0  0.01472  0.54531  0.11543  1.0000
  O   O20       1.0  0.98529  0.95468  0.61544  1.0000
