data_image0
_chemical_formula_structural       Sb2H28C12N2Cl2O4F6
_chemical_formula_sum              "Sb2 H28 C12 N2 Cl2 O4 F6"
_cell_length_a       8.21865
_cell_length_b       8.91511
_cell_length_c       9.10671
_cell_angle_alpha    82.1329
_cell_angle_beta     64.878
_cell_angle_gamma    62.3255

_space_group_name_H-M_alt    "P 1"
_space_group_IT_number       1

loop_
  _space_group_symop_operation_xyz
  'x, y, z'

loop_
  _atom_site_type_symbol
  _atom_site_label
  _atom_site_symmetry_multiplicity
  _atom_site_fract_x
  _atom_site_fract_y
  _atom_site_fract_z
  _atom_site_occupancy
  Sb  Sb1       1.0  0.43421  0.74554  0.71483  1.0000
  Sb  Sb2       1.0  0.56578  0.25446  0.28517  1.0000
  H   H1        1.0  0.53267  0.37800  0.84989  1.0000
  H   H2        1.0  0.46733  0.62200  0.15011  1.0000
  H   H3        1.0  0.63486  0.20769  0.94547  1.0000
  H   H4        1.0  0.36514  0.79231  0.05453  1.0000
  H   H5        1.0  0.56236  0.79646  0.25964  1.0000
  H   H6        1.0  0.43764  0.20354  0.74036  1.0000
  H   H7        1.0  0.47920  0.95167  0.12984  1.0000
  H   H8        1.0  0.52081  0.04833  0.87016  1.0000
  H   H9        1.0  0.81339  0.58359  0.03057  1.0000
  H   H10       1.0  0.18660  0.41641  0.96943  1.0000
  H   H11       1.0  0.84877  0.77177  0.99792  1.0000
  H   H12       1.0  0.15123  0.22822  0.00208  1.0000
  H   H13       1.0  0.12144  0.30711  0.38821  1.0000
  H   H14       1.0  0.87857  0.69289  0.61179  1.0000
  H   H15       1.0  0.97605  0.31558  0.28467  1.0000
  H   H16       1.0  0.02395  0.68442  0.71533  1.0000
  H   H17       1.0  0.98380  0.59105  0.17222  1.0000
  H   H18       1.0  0.01620  0.40895  0.82778  1.0000
  H   H19       1.0  0.84997  0.59729  0.38600  1.0000
  H   H20       1.0  0.15003  0.40270  0.61400  1.0000
  H   H21       1.0  0.90827  0.84669  0.39625  1.0000
  H   H22       1.0  0.09172  0.15331  0.60375  1.0000
  H   H23       1.0  0.03779  0.81217  0.18168  1.0000
  H   H24       1.0  0.96220  0.18783  0.81832  1.0000
  H   H25       1.0  0.14306  0.96576  0.30561  1.0000
  H   H26       1.0  0.85694  0.03424  0.69439  1.0000
  H   H27       1.0  0.23866  0.78241  0.41080  1.0000
  H   H28       1.0  0.76134  0.21759  0.58919  1.0000
  C   C1        1.0  0.45450  0.18510  0.85564  1.0000
  C   C2        1.0  0.54550  0.81490  0.14436  1.0000
  C   C3        1.0  0.25191  0.28142  0.99402  1.0000
  C   C4        1.0  0.74809  0.71858  0.00598  1.0000
  C   C5        1.0  0.91137  0.64792  0.71909  1.0000
  C   C6        1.0  0.08864  0.35208  0.28091  1.0000
  C   C7        1.0  0.99798  0.45675  0.71465  1.0000
  C   C8        1.0  0.00201  0.54326  0.28535  1.0000
  C   C9        1.0  0.94263  0.22353  0.70365  1.0000
  C   C10       1.0  0.05737  0.77647  0.29635  1.0000
  C   C11       1.0  0.79475  0.17290  0.69621  1.0000
  C   C12       1.0  0.20525  0.82710  0.30379  1.0000
  N   N1        1.0  0.60082  0.24555  0.84427  1.0000
  N   N2        1.0  0.39918  0.75445  0.15573  1.0000
  Cl  Cl1       1.0  0.50000  1.00000  0.50000  1.0000
  Cl  Cl2       1.0  0.50000  0.50000  0.50000  1.0000
  O   O1        1.0  0.27662  0.26439  0.14304  1.0000
  O   O2        1.0  0.72338  0.73561  0.85696  1.0000
  O   O3        1.0  0.87038  0.40319  0.69257  1.0000
  O   O4        1.0  0.12962  0.59681  0.30743  1.0000
  F   F1        1.0  0.70692  0.08417  0.09381  1.0000
  F   F2        1.0  0.29308  0.91584  0.90619  1.0000
  F   F3        1.0  0.64202  0.40629  0.11078  1.0000
  F   F4        1.0  0.35798  0.59371  0.88922  1.0000
  F   F5        1.0  0.83011  0.15769  0.29201  1.0000
  F   F6        1.0  0.16989  0.84232  0.70799  1.0000
