data_image0
_chemical_formula_structural       H40Au8C48S8
_chemical_formula_sum              "H40 Au8 C48 S8"
_cell_length_a       4.36059
_cell_length_b       13.804
_cell_length_c       20.8032
_cell_angle_alpha    104.876
_cell_angle_beta     90
_cell_angle_gamma    99.0877

_space_group_name_H-M_alt    "P 1"
_space_group_IT_number       1

loop_
  _space_group_symop_operation_xyz
  'x, y, z'

loop_
  _atom_site_type_symbol
  _atom_site_label
  _atom_site_symmetry_multiplicity
  _atom_site_fract_x
  _atom_site_fract_y
  _atom_site_fract_z
  _atom_site_occupancy
  H   H1        1.0  0.05700  0.68575  0.50358  1.0000
  H   H2        1.0  0.37140  0.31409  0.99641  1.0000
  H   H3        1.0  0.94302  0.31421  0.49641  1.0000
  H   H4        1.0  0.62865  0.68593  0.00359  1.0000
  H   H5        1.0  0.95758  0.86295  0.52814  1.0000
  H   H6        1.0  0.09416  0.13693  0.97199  1.0000
  H   H7        1.0  0.04236  0.13701  0.47185  1.0000
  H   H8        1.0  0.90587  0.86309  0.02802  1.0000
  H   H9        1.0  0.21285  0.98002  0.46367  1.0000
  H   H10       1.0  0.23272  0.01987  0.03645  1.0000
  H   H11       1.0  0.78705  0.01995  0.53632  1.0000
  H   H12       1.0  0.76730  0.98015  0.96356  1.0000
  H   H13       1.0  0.64961  0.73882  0.34558  1.0000
  H   H14       1.0  0.91172  0.26092  0.15424  1.0000
  H   H15       1.0  0.35034  0.26116  0.65441  1.0000
  H   H16       1.0  0.08831  0.73910  0.84578  1.0000
  H   H17       1.0  0.40163  0.62271  0.41090  1.0000
  H   H18       1.0  0.77969  0.37705  0.08892  1.0000
  H   H19       1.0  0.59840  0.37728  0.58909  1.0000
  H   H20       1.0  0.22036  0.62297  0.91108  1.0000
  H   H21       1.0  0.42562  0.44917  0.15876  1.0000
  H   H22       1.0  0.97411  0.55179  0.34128  1.0000
  H   H23       1.0  0.57444  0.55086  0.84124  1.0000
  H   H24       1.0  0.02591  0.44820  0.65872  1.0000
  H   H25       1.0  0.30734  0.48457  0.05071  1.0000
  H   H26       1.0  0.82062  0.51623  0.44928  1.0000
  H   H27       1.0  0.69273  0.51545  0.94929  1.0000
  H   H28       1.0  0.17941  0.48376  0.55072  1.0000
  H   H29       1.0  0.08371  0.63911  0.04928  1.0000
  H   H30       1.0  0.44393  0.36128  0.45061  1.0000
  H   H31       1.0  0.91633  0.36091  0.95072  1.0000
  H   H32       1.0  0.55609  0.63871  0.54940  1.0000
  H   H33       1.0  0.10878  0.72557  0.26366  1.0000
  H   H34       1.0  0.38628  0.27427  0.23623  1.0000
  H   H35       1.0  0.89115  0.27444  0.73634  1.0000
  H   H36       1.0  0.61372  0.72573  0.76377  1.0000
  H   H37       1.0  0.33805  0.57145  0.26503  1.0000
  H   H38       1.0  0.76825  0.42879  0.23495  1.0000
  H   H39       1.0  0.66194  0.42857  0.73497  1.0000
  H   H40       1.0  0.23176  0.57121  0.76505  1.0000
  Au  Au1       1.0  0.77021  0.87685  0.25615  1.0000
  Au  Au2       1.0  0.89318  0.12340  0.24400  1.0000
  Au  Au3       1.0  0.22972  0.12315  0.74384  1.0000
  Au  Au4       1.0  0.10682  0.87660  0.75600  1.0000
  Au  Au5       1.0  0.37858  0.07575  0.35102  1.0000
  Au  Au6       1.0  0.30268  0.92439  0.14911  1.0000
  Au  Au7       1.0  0.62138  0.92423  0.64898  1.0000
  Au  Au8       1.0  0.69732  0.07562  0.85089  1.0000
  C   C1        1.0  0.16305  0.73552  0.47383  1.0000
  C   C2        1.0  0.42761  0.26430  0.02617  1.0000
  C   C3        1.0  0.83694  0.26445  0.52617  1.0000
  C   C4        1.0  0.57245  0.73572  0.97384  1.0000
  C   C5        1.0  0.10931  0.83572  0.48819  1.0000
  C   C6        1.0  0.27345  0.16414  0.01189  1.0000
  C   C7        1.0  0.89063  0.16425  0.51181  1.0000
  C   C8        1.0  0.72657  0.83588  0.98812  1.0000
  C   C9        1.0  0.24980  0.90130  0.45197  1.0000
  C   C10       1.0  0.34871  0.09854  0.04808  1.0000
  C   C11       1.0  0.75012  0.09866  0.54802  1.0000
  C   C12       1.0  0.65132  0.90149  0.95193  1.0000
  C   C13       1.0  0.44413  0.86642  0.40039  1.0000
  C   C14       1.0  0.57821  0.13346  0.09959  1.0000
  C   C15       1.0  0.55578  0.13356  0.59960  1.0000
  C   C16       1.0  0.42181  0.86657  0.90042  1.0000
  C   C17       1.0  0.49470  0.76541  0.38512  1.0000
  C   C18       1.0  0.73003  0.23441  0.11475  1.0000
  C   C19       1.0  0.50525  0.23456  0.61487  1.0000
  C   C20       1.0  0.27001  0.76561  0.88526  1.0000
  C   C21       1.0  0.35486  0.70052  0.42217  1.0000
  C   C22       1.0  0.65482  0.29929  0.07774  1.0000
  C   C23       1.0  0.64513  0.29945  0.57782  1.0000
  C   C24       1.0  0.34522  0.70073  0.92226  1.0000
  C   C25       1.0  0.33069  0.51726  0.15807  1.0000
  C   C26       1.0  0.81252  0.48339  0.34188  1.0000
  C   C27       1.0  0.66936  0.48276  0.84193  1.0000
  C   C28       1.0  0.18749  0.51660  0.65812  1.0000
  C   C29       1.0  0.26218  0.53682  0.09748  1.0000
  C   C30       1.0  0.72419  0.46385  0.40247  1.0000
  C   C31       1.0  0.73787  0.46319  0.90252  1.0000
  C   C32       1.0  0.27583  0.53615  0.59753  1.0000
  C   C33       1.0  0.13571  0.62311  0.09642  1.0000
  C   C34       1.0  0.51248  0.37730  0.40349  1.0000
  C   C35       1.0  0.86431  0.37690  0.90357  1.0000
  C   C36       1.0  0.48751  0.62269  0.59651  1.0000
  C   C37       1.0  0.07715  0.69039  0.15640  1.0000
  C   C38       1.0  0.38793  0.30980  0.34350  1.0000
  C   C39       1.0  0.92285  0.30963  0.84360  1.0000
  C   C40       1.0  0.61208  0.69020  0.65650  1.0000
  C   C41       1.0  0.15099  0.67199  0.21719  1.0000
  C   C42       1.0  0.48106  0.32805  0.28272  1.0000
  C   C43       1.0  0.84897  0.32802  0.78281  1.0000
  C   C44       1.0  0.51893  0.67194  0.71728  1.0000
  C   C45       1.0  0.27806  0.58551  0.21771  1.0000
  C   C46       1.0  0.69364  0.41475  0.28224  1.0000
  C   C47       1.0  0.72194  0.41450  0.78228  1.0000
  C   C48       1.0  0.30636  0.58525  0.71777  1.0000
  S   S1        1.0  0.66972  0.95542  0.36362  1.0000
  S   S2        1.0  0.71470  0.04456  0.13650  1.0000
  S   S3        1.0  0.33021  0.04456  0.63637  1.0000
  S   S4        1.0  0.28531  0.95545  0.86351  1.0000
  S   S5        1.0  0.89483  0.79468  0.15027  1.0000
  S   S6        1.0  0.10128  0.20561  0.34976  1.0000
  S   S7        1.0  0.10516  0.20533  0.84972  1.0000
  S   S8        1.0  0.89872  0.79439  0.65025  1.0000
