data_image0
_chemical_formula_structural       Mn2H8C4O12
_chemical_formula_sum              "Mn2 H8 C4 O12"
_cell_length_a       5.72739
_cell_length_b       6.63939
_cell_length_c       8.17812
_cell_angle_alpha    79.9027
_cell_angle_beta     69.5143
_cell_angle_gamma    64.4823

_space_group_name_H-M_alt    "P 1"
_space_group_IT_number       1

loop_
  _space_group_symop_operation_xyz
  'x, y, z'

loop_
  _atom_site_type_symbol
  _atom_site_label
  _atom_site_symmetry_multiplicity
  _atom_site_fract_x
  _atom_site_fract_y
  _atom_site_fract_z
  _atom_site_occupancy
  Mn  Mn1       1.0  0.92656  0.75009  0.25011  1.0000
  Mn  Mn2       1.0  0.07344  0.24991  0.74988  1.0000
  H   H1        1.0  0.62309  0.18133  0.35270  1.0000
  H   H2        1.0  0.15733  0.31893  0.14699  1.0000
  H   H3        1.0  0.37691  0.81868  0.64729  1.0000
  H   H4        1.0  0.84267  0.68107  0.85301  1.0000
  H   H5        1.0  0.67808  0.18382  0.14394  1.0000
  H   H6        1.0  0.00602  0.31609  0.35573  1.0000
  H   H7        1.0  0.32192  0.81618  0.85606  1.0000
  H   H8        1.0  0.99399  0.68390  0.64427  1.0000
  C   C1        1.0  0.47695  0.74841  0.14848  1.0000
  C   C2        1.0  0.37368  0.75160  0.35186  1.0000
  C   C3        1.0  0.52307  0.25159  0.85149  1.0000
  C   C4        1.0  0.62630  0.24841  0.64816  1.0000
  O   O1        1.0  0.71139  0.74919  0.07241  1.0000
  O   O2        1.0  0.53301  0.75071  0.42788  1.0000
  O   O3        1.0  0.28858  0.25081  0.92761  1.0000
  O   O4        1.0  0.46696  0.24930  0.57211  1.0000
  O   O5        1.0  0.31906  0.74504  0.07376  1.0000
  O   O6        1.0  0.13765  0.75524  0.42658  1.0000
  O   O7        1.0  0.68095  0.25496  0.92626  1.0000
  O   O8        1.0  0.86237  0.24477  0.57341  1.0000
  O   O9        1.0  0.75554  0.11158  0.24068  1.0000
  O   O10       1.0  0.10787  0.38860  0.25906  1.0000
  O   O11       1.0  0.24447  0.88842  0.75931  1.0000
  O   O12       1.0  0.89214  0.61139  0.74094  1.0000
