data_image0
_chemical_formula_structural       Co4H44C72N8O20
_chemical_formula_sum              "Co4 H44 C72 N8 O20"
_cell_length_a       9.03919
_cell_length_b       13.8666
_cell_length_c       13.9611
_cell_angle_alpha    76.0544
_cell_angle_beta     77.2286
_cell_angle_gamma    77.608

_space_group_name_H-M_alt    "P 1"
_space_group_IT_number       1

loop_
  _space_group_symop_operation_xyz
  'x, y, z'

loop_
  _atom_site_type_symbol
  _atom_site_label
  _atom_site_symmetry_multiplicity
  _atom_site_fract_x
  _atom_site_fract_y
  _atom_site_fract_z
  _atom_site_occupancy
  Co  Co1       1.0  0.70625  0.84162  0.51765  1.0000
  Co  Co2       1.0  0.79416  0.48238  0.16059  1.0000
  Co  Co3       1.0  0.29375  0.15839  0.48235  1.0000
  Co  Co4       1.0  0.20584  0.51762  0.83941  1.0000
  H   H1        1.0  0.51252  0.40605  0.85518  1.0000
  H   H2        1.0  0.98673  0.14361  0.59297  1.0000
  H   H3        1.0  0.48748  0.59395  0.14483  1.0000
  H   H4        1.0  0.01326  0.85639  0.40703  1.0000
  H   H5        1.0  0.75930  0.44307  0.88475  1.0000
  H   H6        1.0  0.73860  0.11577  0.55665  1.0000
  H   H7        1.0  0.24069  0.55693  0.11526  1.0000
  H   H8        1.0  0.26139  0.88423  0.44334  1.0000
  H   H9        1.0  0.34327  0.77704  0.00147  1.0000
  H   H10       1.0  0.15700  0.99797  0.22423  1.0000
  H   H11       1.0  0.65673  0.22296  0.99853  1.0000
  H   H12       1.0  0.84300  0.00202  0.77577  1.0000
  H   H13       1.0  0.07391  0.05740  0.87446  1.0000
  H   H14       1.0  0.42464  0.12501  0.94248  1.0000
  H   H15       1.0  0.92610  0.94259  0.12554  1.0000
  H   H16       1.0  0.57536  0.87499  0.05752  1.0000
  H   H17       1.0  0.31689  0.70986  0.81433  1.0000
  H   H18       1.0  0.18476  0.18397  0.29060  1.0000
  H   H19       1.0  0.68311  0.29013  0.18567  1.0000
  H   H20       1.0  0.81524  0.81603  0.70940  1.0000
  H   H21       1.0  0.11467  0.91252  0.01995  1.0000
  H   H22       1.0  0.38511  0.97963  0.08827  1.0000
  H   H23       1.0  0.88533  0.08748  0.98005  1.0000
  H   H24       1.0  0.61489  0.02037  0.91173  1.0000
  H   H25       1.0  0.78173  0.62223  0.87470  1.0000
  H   H26       1.0  0.71693  0.12610  0.37858  1.0000
  H   H27       1.0  0.21827  0.37776  0.12530  1.0000
  H   H28       1.0  0.28306  0.87390  0.62142  1.0000
  H   H29       1.0  0.49896  0.62978  0.35063  1.0000
  H   H30       1.0  0.00227  0.65049  0.37087  1.0000
  H   H31       1.0  0.50104  0.37023  0.64936  1.0000
  H   H32       1.0  0.99773  0.34952  0.62914  1.0000
  H   H33       1.0  0.59198  0.48952  0.65006  1.0000
  H   H34       1.0  0.90689  0.34894  0.51033  1.0000
  H   H35       1.0  0.40802  0.51048  0.34994  1.0000
  H   H36       1.0  0.09311  0.65106  0.48968  1.0000
  H   H37       1.0  0.69487  0.64003  0.64815  1.0000
  H   H38       1.0  0.80474  0.35075  0.36108  1.0000
  H   H39       1.0  0.30513  0.35997  0.35185  1.0000
  H   H40       1.0  0.19527  0.64925  0.63892  1.0000
  H   H41       1.0  0.60342  0.77360  0.36221  1.0000
  H   H42       1.0  0.89762  0.63888  0.22843  1.0000
  H   H43       1.0  0.39658  0.22640  0.63779  1.0000
  H   H44       1.0  0.10239  0.36112  0.77157  1.0000
  C   C1        1.0  0.52915  0.48256  0.85185  1.0000
  C   C2        1.0  0.97032  0.14717  0.51694  1.0000
  C   C3        1.0  0.47085  0.51744  0.14816  1.0000
  C   C4        1.0  0.02968  0.85284  0.48306  1.0000
  C   C5        1.0  0.66518  0.50411  0.86632  1.0000
  C   C6        1.0  0.83352  0.13374  0.49578  1.0000
  C   C7        1.0  0.33481  0.49589  0.13368  1.0000
  C   C8        1.0  0.16647  0.86626  0.50422  1.0000
  C   C9        1.0  0.23550  0.08238  0.69054  1.0000
  C   C10       1.0  0.26235  0.30905  0.91673  1.0000
  C   C11       1.0  0.76449  0.91762  0.30946  1.0000
  C   C12       1.0  0.73765  0.69095  0.08327  1.0000
  C   C13       1.0  0.55020  0.67888  0.84436  1.0000
  C   C14       1.0  0.95004  0.15512  0.32187  1.0000
  C   C15       1.0  0.44980  0.32112  0.15564  1.0000
  C   C16       1.0  0.04996  0.84488  0.67813  1.0000
  C   C17       1.0  0.53305  0.93211  0.67650  1.0000
  C   C18       1.0  0.96631  0.32322  0.06914  1.0000
  C   C19       1.0  0.46695  0.06789  0.32350  1.0000
  C   C20       1.0  0.03369  0.67678  0.93086  1.0000
  C   C21       1.0  0.40953  0.92848  0.76896  1.0000
  C   C22       1.0  0.08988  0.23070  0.07232  1.0000
  C   C23       1.0  0.59047  0.07152  0.23103  1.0000
  C   C24       1.0  0.91012  0.76930  0.92768  1.0000
  C   C25       1.0  0.42935  0.84831  0.85008  1.0000
  C   C26       1.0  0.07065  0.14955  0.15284  1.0000
  C   C27       1.0  0.57065  0.15169  0.14992  1.0000
  C   C28       1.0  0.92935  0.85045  0.84716  1.0000
  C   C29       1.0  0.32483  0.84141  0.94030  1.0000
  C   C30       1.0  0.17517  0.05926  0.15970  1.0000
  C   C31       1.0  0.67517  0.15859  0.05970  1.0000
  C   C32       1.0  0.82483  0.94074  0.84030  1.0000
  C   C33       1.0  0.27705  0.00298  0.77885  1.0000
  C   C34       1.0  0.22176  0.22069  0.99724  1.0000
  C   C35       1.0  0.72295  0.99702  0.22115  1.0000
  C   C36       1.0  0.77824  0.77930  0.00276  1.0000
  C   C37       1.0  0.17391  0.99778  0.86982  1.0000
  C   C38       1.0  0.32508  0.12971  0.00250  1.0000
  C   C39       1.0  0.82609  0.00222  0.13018  1.0000
  C   C40       1.0  0.67493  0.87028  0.99750  1.0000
  C   C41       1.0  0.41740  0.65296  0.82871  1.0000
  C   C42       1.0  0.08349  0.16999  0.34733  1.0000
  C   C43       1.0  0.58260  0.34703  0.17130  1.0000
  C   C44       1.0  0.91651  0.83000  0.65267  1.0000
  C   C45       1.0  0.53119  0.54454  0.50108  1.0000
  C   C46       1.0  0.96899  0.49895  0.45573  1.0000
  C   C47       1.0  0.46882  0.45546  0.49891  1.0000
  C   C48       1.0  0.03101  0.50105  0.54427  1.0000
  C   C49       1.0  0.19699  0.91737  0.94993  1.0000
  C   C50       1.0  0.30267  0.04965  0.08340  1.0000
  C   C51       1.0  0.80302  0.08263  0.05007  1.0000
  C   C52       1.0  0.69733  0.95035  0.91660  1.0000
  C   C53       1.0  0.67702  0.60353  0.86257  1.0000
  C   C54       1.0  0.82210  0.13765  0.39701  1.0000
  C   C55       1.0  0.32298  0.39646  0.13743  1.0000
  C   C56       1.0  0.17790  0.86235  0.60299  1.0000
  C   C57       1.0  0.53687  0.62753  0.42000  1.0000
  C   C58       1.0  0.96396  0.58056  0.37324  1.0000
  C   C59       1.0  0.46314  0.37248  0.57999  1.0000
  C   C60       1.0  0.03605  0.41943  0.62676  1.0000
  C   C61       1.0  0.58999  0.55043  0.58439  1.0000
  C   C62       1.0  0.90962  0.41509  0.44987  1.0000
  C   C63       1.0  0.41001  0.44958  0.41560  1.0000
  C   C64       1.0  0.09038  0.58491  0.55013  1.0000
  C   C65       1.0  0.64880  0.63482  0.58407  1.0000
  C   C66       1.0  0.85111  0.41534  0.36614  1.0000
  C   C67       1.0  0.35119  0.36519  0.41592  1.0000
  C   C68       1.0  0.14889  0.58466  0.63386  1.0000
  C   C69       1.0  0.59720  0.70961  0.42502  1.0000
  C   C70       1.0  0.90365  0.57553  0.29184  1.0000
  C   C71       1.0  0.40280  0.29039  0.57498  1.0000
  C   C72       1.0  0.09636  0.42448  0.70816  1.0000
  N   N1        1.0  0.40780  0.55621  0.83326  1.0000
  N   N2        1.0  0.09268  0.16512  0.44353  1.0000
  N   N3        1.0  0.59220  0.44379  0.16675  1.0000
  N   N4        1.0  0.90732  0.83488  0.55647  1.0000
  N   N5        1.0  0.65279  0.71415  0.50580  1.0000
  N   N6        1.0  0.84770  0.49412  0.28731  1.0000
  N   N7        1.0  0.34721  0.28585  0.49420  1.0000
  N   N8        1.0  0.15231  0.50588  0.71269  1.0000
  O   O1        1.0  0.31205  0.06306  0.60425  1.0000
  O   O2        1.0  0.18667  0.39589  0.93568  1.0000
  O   O3        1.0  0.68796  0.93694  0.39575  1.0000
  O   O4        1.0  0.81333  0.60411  0.06432  1.0000
  O   O5        1.0  0.62233  0.99356  0.65581  1.0000
  O   O6        1.0  0.87681  0.34340  0.00876  1.0000
  O   O7        1.0  0.37767  0.00644  0.34419  1.0000
  O   O8        1.0  0.12319  0.65660  0.99124  1.0000
  O   O9        1.0  0.56392  0.77613  0.84079  1.0000
  O   O10       1.0  0.93638  0.15875  0.22533  1.0000
  O   O11       1.0  0.43608  0.22387  0.15921  1.0000
  O   O12       1.0  0.06362  0.84124  0.77467  1.0000
  O   O13       1.0  0.54078  0.86068  0.62816  1.0000
  O   O14       1.0  0.95906  0.37195  0.14000  1.0000
  O   O15       1.0  0.45922  0.13932  0.37184  1.0000
  O   O16       1.0  0.04094  0.62804  0.86000  1.0000
  O   O17       1.0  0.13253  0.15742  0.70018  1.0000
  O   O18       1.0  0.36381  0.29901  0.84105  1.0000
  O   O19       1.0  0.86747  0.84258  0.29982  1.0000
  O   O20       1.0  0.63618  0.70099  0.15895  1.0000
