data_image0
_chemical_formula_structural       Cd2H44C44N8O8
_chemical_formula_sum              "Cd2 H44 C44 N8 O8"
_cell_length_a       5.13207
_cell_length_b       9.82459
_cell_length_c       19.759
_cell_angle_alpha    97.2275
_cell_angle_beta     90
_cell_angle_gamma    90

_space_group_name_H-M_alt    "P 1"
_space_group_IT_number       1

loop_
  _space_group_symop_operation_xyz
  'x, y, z'

loop_
  _atom_site_type_symbol
  _atom_site_label
  _atom_site_symmetry_multiplicity
  _atom_site_fract_x
  _atom_site_fract_y
  _atom_site_fract_z
  _atom_site_occupancy
  Cd  Cd1       1.0  0.49999  0.50000  0.50000  1.0000
  Cd  Cd2       1.0  0.99999  0.00001  0.50000  1.0000
  H   H1        1.0  0.87002  0.64150  0.43503  1.0000
  H   H2        1.0  0.37002  0.85850  0.56497  1.0000
  H   H3        1.0  0.12996  0.35850  0.56496  1.0000
  H   H4        1.0  0.62998  0.14150  0.43503  1.0000
  H   H5        1.0  0.79935  0.51522  0.37511  1.0000
  H   H6        1.0  0.29935  0.98479  0.62489  1.0000
  H   H7        1.0  0.20062  0.48478  0.62489  1.0000
  H   H8        1.0  0.70064  0.01521  0.37511  1.0000
  H   H9        1.0  0.96108  0.65772  0.14099  1.0000
  H   H10       1.0  0.46106  0.84229  0.85902  1.0000
  H   H11       1.0  0.03892  0.34228  0.85902  1.0000
  H   H12       1.0  0.53894  0.15770  0.14098  1.0000
  H   H13       1.0  0.65001  0.76400  0.36054  1.0000
  H   H14       1.0  0.15002  0.73601  0.63947  1.0000
  H   H15       1.0  0.34998  0.23601  0.63946  1.0000
  H   H16       1.0  0.84998  0.26399  0.36053  1.0000
  H   H17       1.0  0.33228  0.49957  0.33314  1.0000
  H   H18       1.0  0.83231  0.00044  0.66687  1.0000
  H   H19       1.0  0.66768  0.50044  0.66686  1.0000
  H   H20       1.0  0.16769  0.99955  0.33313  1.0000
  H   H21       1.0  0.21393  0.65464  0.30972  1.0000
  H   H22       1.0  0.71393  0.84538  0.69029  1.0000
  H   H23       1.0  0.78606  0.34537  0.69028  1.0000
  H   H24       1.0  0.28607  0.15461  0.30971  1.0000
  H   H25       1.0  0.85622  0.73910  0.26162  1.0000
  H   H26       1.0  0.35623  0.76090  0.73840  1.0000
  H   H27       1.0  0.14375  0.26090  0.73839  1.0000
  H   H28       1.0  0.64377  0.23909  0.26161  1.0000
  H   H29       1.0  0.77486  0.45900  0.03394  1.0000
  H   H30       1.0  0.27483  0.04101  0.96607  1.0000
  H   H31       1.0  0.22518  0.54100  0.96607  1.0000
  H   H32       1.0  0.72517  0.95898  0.03393  1.0000
  H   H33       1.0  0.42373  0.28388  0.00998  1.0000
  H   H34       1.0  0.92370  0.21614  0.99002  1.0000
  H   H35       1.0  0.57632  0.71611  0.99002  1.0000
  H   H36       1.0  0.07630  0.78386  0.00997  1.0000
  H   H37       1.0  0.10875  0.23963  0.10031  1.0000
  H   H38       1.0  0.60873  0.26038  0.89970  1.0000
  H   H39       1.0  0.89128  0.76036  0.89970  1.0000
  H   H40       1.0  0.39127  0.73962  0.10030  1.0000
  H   H41       1.0  0.13714  0.36568  0.21656  1.0000
  H   H42       1.0  0.63715  0.13432  0.78345  1.0000
  H   H43       1.0  0.86286  0.63431  0.78345  1.0000
  H   H44       1.0  0.36286  0.86567  0.21655  1.0000
  C   C1        1.0  0.33260  0.74508  0.42749  1.0000
  C   C2        1.0  0.83262  0.75494  0.57251  1.0000
  C   C3        1.0  0.66739  0.25493  0.57251  1.0000
  C   C4        1.0  0.16739  0.24506  0.42748  1.0000
  C   C5        1.0  0.54183  0.67837  0.37821  1.0000
  C   C6        1.0  0.04184  0.82163  0.62180  1.0000
  C   C7        1.0  0.45814  0.32164  0.62180  1.0000
  C   C8        1.0  0.95817  0.17836  0.37819  1.0000
  C   C9        1.0  0.39496  0.59847  0.31777  1.0000
  C   C10       1.0  0.89497  0.90154  0.68224  1.0000
  C   C11       1.0  0.60502  0.40155  0.68223  1.0000
  C   C12       1.0  0.10503  0.09845  0.31776  1.0000
  C   C13       1.0  0.75055  0.65513  0.23306  1.0000
  C   C14       1.0  0.25054  0.84488  0.76695  1.0000
  C   C15       1.0  0.24944  0.34488  0.76694  1.0000
  C   C16       1.0  0.74945  0.15511  0.23305  1.0000
  C   C17       1.0  0.54313  0.57861  0.25205  1.0000
  C   C18       1.0  0.04315  0.92140  0.74796  1.0000
  C   C19       1.0  0.45685  0.42140  0.74795  1.0000
  C   C20       1.0  0.95686  0.07858  0.25204  1.0000
  C   C21       1.0  0.47530  0.48512  0.19247  1.0000
  C   C22       1.0  0.97530  0.01488  0.80754  1.0000
  C   C23       1.0  0.52471  0.51488  0.80753  1.0000
  C   C24       1.0  0.02471  0.98510  0.19246  1.0000
  C   C25       1.0  0.65233  0.51028  0.13932  1.0000
  C   C26       1.0  0.15232  0.98973  0.86069  1.0000
  C   C27       1.0  0.34769  0.48972  0.86069  1.0000
  C   C28       1.0  0.84768  0.01027  0.13931  1.0000
  C   C29       1.0  0.63861  0.43815  0.07373  1.0000
  C   C30       1.0  0.13860  0.06186  0.92628  1.0000
  C   C31       1.0  0.36141  0.56185  0.92628  1.0000
  C   C32       1.0  0.86140  0.93814  0.07372  1.0000
  C   C33       1.0  0.44166  0.34075  0.06080  1.0000
  C   C34       1.0  0.94164  0.15927  0.93921  1.0000
  C   C35       1.0  0.55837  0.65924  0.93920  1.0000
  C   C36       1.0  0.05837  0.84074  0.06079  1.0000
  C   C37       1.0  0.26299  0.31517  0.11218  1.0000
  C   C38       1.0  0.76298  0.18483  0.88782  1.0000
  C   C39       1.0  0.73702  0.68482  0.88782  1.0000
  C   C40       1.0  0.23703  0.81516  0.11217  1.0000
  C   C41       1.0  0.27850  0.38615  0.17781  1.0000
  C   C42       1.0  0.77849  0.11386  0.82219  1.0000
  C   C43       1.0  0.72151  0.61385  0.82219  1.0000
  C   C44       1.0  0.22152  0.88613  0.17780  1.0000
  N   N1        1.0  0.71839  0.58770  0.41051  1.0000
  N   N2        1.0  0.21839  0.91231  0.58950  1.0000
  N   N3        1.0  0.28159  0.41231  0.58949  1.0000
  N   N4        1.0  0.78161  0.08769  0.41050  1.0000
  N   N5        1.0  0.81590  0.61389  0.16597  1.0000
  N   N6        1.0  0.31591  0.88610  0.83405  1.0000
  N   N7        1.0  0.18410  0.38611  0.83404  1.0000
  N   N8        1.0  0.68408  0.11388  0.16595  1.0000
  O   O1        1.0  0.23949  0.67884  0.47334  1.0000
  O   O2        1.0  0.73949  0.82116  0.52666  1.0000
  O   O3        1.0  0.76049  0.32116  0.52666  1.0000
  O   O4        1.0  0.26050  0.17885  0.47334  1.0000
  O   O5        1.0  0.25139  0.86121  0.41500  1.0000
  O   O6        1.0  0.75138  0.63879  0.58500  1.0000
  O   O7        1.0  0.74861  0.13881  0.58500  1.0000
  O   O8        1.0  0.24862  0.36121  0.41499  1.0000
