data_image0
_chemical_formula_structural       Cd2H36C48N18O10
_chemical_formula_sum              "Cd2 H36 C48 N18 O10"
_cell_length_a       8.27685
_cell_length_b       9.14601
_cell_length_c       19.64
_cell_angle_alpha    95.3894
_cell_angle_beta     99.9838
_cell_angle_gamma    106.417

_space_group_name_H-M_alt    "P 1"
_space_group_IT_number       1

loop_
  _space_group_symop_operation_xyz
  'x, y, z'

loop_
  _atom_site_type_symbol
  _atom_site_label
  _atom_site_symmetry_multiplicity
  _atom_site_fract_x
  _atom_site_fract_y
  _atom_site_fract_z
  _atom_site_occupancy
  Cd  Cd1       1.0  0.34985  0.38199  0.30336  1.0000
  Cd  Cd2       1.0  0.65014  0.61801  0.69664  1.0000
  H   H1        1.0  0.53271  0.93837  0.37817  1.0000
  H   H2        1.0  0.46729  0.06163  0.62183  1.0000
  H   H3        1.0  0.39402  0.22116  0.53120  1.0000
  H   H4        1.0  0.60598  0.77884  0.46880  1.0000
  H   H5        1.0  0.77164  0.81362  0.85820  1.0000
  H   H6        1.0  0.22835  0.18638  0.14180  1.0000
  H   H7        1.0  0.27445  0.62863  0.90259  1.0000
  H   H8        1.0  0.72555  0.37138  0.09742  1.0000
  H   H9        1.0  0.44024  0.66625  0.01899  1.0000
  H   H10       1.0  0.55976  0.33375  0.98101  1.0000
  H   H11       1.0  0.56588  0.80791  0.13859  1.0000
  H   H12       1.0  0.43412  0.19210  0.86141  1.0000
  H   H13       1.0  0.91408  0.15937  0.05637  1.0000
  H   H14       1.0  0.08592  0.84063  0.94362  1.0000
  H   H15       1.0  0.75967  0.36963  0.33152  1.0000
  H   H16       1.0  0.24033  0.63036  0.66848  1.0000
  H   H17       1.0  0.73613  0.44505  0.45002  1.0000
  H   H18       1.0  0.26387  0.55495  0.54997  1.0000
  H   H19       1.0  0.04841  0.16197  0.52607  1.0000
  H   H20       1.0  0.95159  0.83802  0.47393  1.0000
  H   H21       1.0  0.06982  0.08572  0.40497  1.0000
  H   H22       1.0  0.93018  0.91428  0.59503  1.0000
  H   H23       1.0  0.01774  0.22729  0.62755  1.0000
  H   H24       1.0  0.98226  0.77271  0.37245  1.0000
  H   H25       1.0  0.89350  0.35076  0.73351  1.0000
  H   H26       1.0  0.10650  0.64925  0.26649  1.0000
  H   H27       1.0  0.69593  0.48842  0.54672  1.0000
  H   H28       1.0  0.30407  0.51158  0.45328  1.0000
  H   H29       1.0  0.28107  0.50192  0.76928  1.0000
  H   H30       1.0  0.71893  0.49808  0.23072  1.0000
  H   H31       1.0  0.78116  0.02111  0.93573  1.0000
  H   H32       1.0  0.21885  0.97889  0.06427  1.0000
  H   H33       1.0  0.58547  0.92080  0.25158  1.0000
  H   H34       1.0  0.41453  0.07920  0.74842  1.0000
  H   H35       1.0  0.57686  0.09748  0.27589  1.0000
  H   H36       1.0  0.42314  0.90252  0.72410  1.0000
  C   C1        1.0  0.42283  0.18758  0.39582  1.0000
  C   C2        1.0  0.57717  0.81242  0.60418  1.0000
  C   C3        1.0  0.45866  0.08845  0.44921  1.0000
  C   C4        1.0  0.54135  0.91155  0.55079  1.0000
  C   C5        1.0  0.51786  0.96368  0.43153  1.0000
  C   C6        1.0  0.48215  0.03632  0.56847  1.0000
  C   C7        1.0  0.44018  0.12397  0.51800  1.0000
  C   C8        1.0  0.55982  0.87603  0.48200  1.0000
  C   C9        1.0  0.63669  0.74746  0.85208  1.0000
  C   C10       1.0  0.36330  0.25254  0.14792  1.0000
  C   C11       1.0  0.37733  0.64582  0.87404  1.0000
  C   C12       1.0  0.62267  0.35418  0.12596  1.0000
  C   C13       1.0  0.60391  0.83395  0.97008  1.0000
  C   C14       1.0  0.39609  0.16605  0.02992  1.0000
  C   C15       1.0  0.54128  0.77640  0.02704  1.0000
  C   C16       1.0  0.45872  0.22360  0.97296  1.0000
  C   C17       1.0  0.61275  0.85617  0.09455  1.0000
  C   C18       1.0  0.38725  0.14383  0.90546  1.0000
  C   C19       1.0  0.74969  0.99380  0.10576  1.0000
  C   C20       1.0  0.25031  0.00620  0.89424  1.0000
  C   C21       1.0  0.80896  0.05176  0.04771  1.0000
  C   C22       1.0  0.19104  0.94824  0.95229  1.0000
  C   C23       1.0  0.92017  0.17268  0.28676  1.0000
  C   C24       1.0  0.07983  0.82731  0.71324  1.0000
  C   C25       1.0  0.84328  0.07534  0.17506  1.0000
  C   C26       1.0  0.15672  0.92466  0.82494  1.0000
  C   C27       1.0  0.91200  0.21822  0.35931  1.0000
  C   C28       1.0  0.08800  0.78177  0.64069  1.0000
  C   C29       1.0  0.82054  0.32091  0.37348  1.0000
  C   C30       1.0  0.17946  0.67909  0.62652  1.0000
  C   C31       1.0  0.80821  0.36497  0.44142  1.0000
  C   C32       1.0  0.19179  0.63503  0.55858  1.0000
  C   C33       1.0  0.88528  0.30435  0.49646  1.0000
  C   C34       1.0  0.11471  0.69565  0.50354  1.0000
  C   C35       1.0  0.98246  0.20580  0.48345  1.0000
  C   C36       1.0  0.01754  0.79419  0.51655  1.0000
  C   C37       1.0  0.99553  0.16337  0.41509  1.0000
  C   C38       1.0  0.00446  0.83663  0.58491  1.0000
  C   C39       1.0  0.93040  0.29633  0.62597  1.0000
  C   C40       1.0  0.06960  0.70367  0.37403  1.0000
  C   C41       1.0  0.87133  0.36127  0.67843  1.0000
  C   C42       1.0  0.12867  0.63873  0.32157  1.0000
  C   C43       1.0  0.76553  0.43372  0.58268  1.0000
  C   C44       1.0  0.23447  0.56628  0.41732  1.0000
  C   C45       1.0  0.38242  0.58531  0.80811  1.0000
  C   C46       1.0  0.61758  0.41470  0.19189  1.0000
  C   C47       1.0  0.73634  0.97385  0.98037  1.0000
  C   C48       1.0  0.26367  0.02615  0.01963  1.0000
  N   N1        1.0  0.54497  0.64918  0.79543  1.0000
  N   N2        1.0  0.45503  0.35082  0.20457  1.0000
  N   N3        1.0  0.54001  0.74892  0.90175  1.0000
  N   N4        1.0  0.45999  0.25109  0.09825  1.0000
  N   N5        1.0  0.05843  0.21086  0.25823  1.0000
  N   N6        1.0  0.94157  0.78913  0.74177  1.0000
  N   N7        1.0  0.01134  0.14869  0.18896  1.0000
  N   N8        1.0  0.98866  0.85132  0.81104  1.0000
  N   N9        1.0  0.78073  0.08808  0.23504  1.0000
  N   N10       1.0  0.21928  0.91192  0.76496  1.0000
  N   N11       1.0  0.60712  0.03016  0.23792  1.0000
  N   N12       1.0  0.39288  0.96984  0.76208  1.0000
  N   N13       1.0  0.86265  0.34334  0.56510  1.0000
  N   N14       1.0  0.13735  0.65666  0.43491  1.0000
  N   N15       1.0  0.76938  0.44671  0.65077  1.0000
  N   N16       1.0  0.23062  0.55329  0.34924  1.0000
  N   N17       1.0  0.63804  0.70924  0.31635  1.0000
  N   N18       1.0  0.36196  0.29076  0.68365  1.0000
  O   O1        1.0  0.42162  0.14629  0.33179  1.0000
  O   O2        1.0  0.57837  0.85370  0.66821  1.0000
  O   O3        1.0  0.39632  0.31408  0.41659  1.0000
  O   O4        1.0  0.60368  0.68592  0.58341  1.0000
  O   O5        1.0  0.63187  0.59010  0.34651  1.0000
  O   O6        1.0  0.36812  0.40990  0.65348  1.0000
  O   O7        1.0  0.52057  0.70302  0.26404  1.0000
  O   O8        1.0  0.47943  0.29698  0.73596  1.0000
  O   O9        1.0  0.76062  0.83171  0.33878  1.0000
  O   O10       1.0  0.23938  0.16829  0.66122  1.0000
