data_image0
_chemical_formula_structural       Cd4H28C52N4O20
_chemical_formula_sum              "Cd4 H28 C52 N4 O20"
_cell_length_a       7.79088
_cell_length_b       12.9974
_cell_length_c       12.9086
_cell_angle_alpha    67.082
_cell_angle_beta     86.7227
_cell_angle_gamma    86.7169

_space_group_name_H-M_alt    "P 1"
_space_group_IT_number       1

loop_
  _space_group_symop_operation_xyz
  'x, y, z'

loop_
  _atom_site_type_symbol
  _atom_site_label
  _atom_site_symmetry_multiplicity
  _atom_site_fract_x
  _atom_site_fract_y
  _atom_site_fract_z
  _atom_site_occupancy
  Cd  Cd1       1.0  0.71388  0.02282  0.15990  1.0000
  Cd  Cd2       1.0  0.78561  0.83934  0.97533  1.0000
  Cd  Cd3       1.0  0.28612  0.97718  0.84010  1.0000
  Cd  Cd4       1.0  0.21439  0.16066  0.02467  1.0000
  H   H1        1.0  0.38575  0.14622  0.23880  1.0000
  H   H2        1.0  0.11275  0.76065  0.85216  1.0000
  H   H3        1.0  0.61426  0.85378  0.76119  1.0000
  H   H4        1.0  0.88725  0.23935  0.14784  1.0000
  H   H5        1.0  0.28507  0.20284  0.39798  1.0000
  H   H6        1.0  0.21509  0.60165  0.79683  1.0000
  H   H7        1.0  0.71493  0.79716  0.60202  1.0000
  H   H8        1.0  0.78491  0.39835  0.20316  1.0000
  H   H9        1.0  0.48876  0.17326  0.55398  1.0000
  H   H10       1.0  0.01235  0.44602  0.82738  1.0000
  H   H11       1.0  0.51124  0.82674  0.44602  1.0000
  H   H12       1.0  0.98765  0.55398  0.17263  1.0000
  H   H13       1.0  0.86312  0.03726  0.37647  1.0000
  H   H14       1.0  0.63585  0.62311  0.96202  1.0000
  H   H15       1.0  0.13688  0.96274  0.62353  1.0000
  H   H16       1.0  0.36415  0.37689  0.03798  1.0000
  H   H17       1.0  0.84845  0.28757  0.40988  1.0000
  H   H18       1.0  0.65036  0.58882  0.71204  1.0000
  H   H19       1.0  0.15155  0.71243  0.59012  1.0000
  H   H20       1.0  0.34963  0.41118  0.28796  1.0000
  H   H21       1.0  0.97741  0.43659  0.45262  1.0000
  H   H22       1.0  0.51967  0.54646  0.56268  1.0000
  H   H23       1.0  0.02259  0.56341  0.54738  1.0000
  H   H24       1.0  0.48034  0.45354  0.43732  1.0000
  H   H25       1.0  0.06862  0.39493  0.64916  1.0000
  H   H26       1.0  0.42961  0.35117  0.60420  1.0000
  H   H27       1.0  0.93139  0.60506  0.35084  1.0000
  H   H28       1.0  0.57039  0.64883  0.39580  1.0000
  C   C1        1.0  0.46911  0.13589  0.30713  1.0000
  C   C2        1.0  0.02983  0.69244  0.86287  1.0000
  C   C3        1.0  0.53089  0.86411  0.69286  1.0000
  C   C4        1.0  0.97017  0.30756  0.13713  1.0000
  C   C5        1.0  0.41534  0.16815  0.39537  1.0000
  C   C6        1.0  0.08453  0.60433  0.83132  1.0000
  C   C7        1.0  0.58466  0.83185  0.60463  1.0000
  C   C8        1.0  0.91547  0.39567  0.16868  1.0000
  C   C9        1.0  0.52703  0.15265  0.48122  1.0000
  C   C10       1.0  0.97344  0.51859  0.84746  1.0000
  C   C11       1.0  0.47297  0.84735  0.51878  1.0000
  C   C12       1.0  0.02656  0.48141  0.15254  1.0000
  C   C13       1.0  0.68946  0.10400  0.47436  1.0000
  C   C14       1.0  0.81071  0.52529  0.89614  1.0000
  C   C15       1.0  0.31054  0.89600  0.52564  1.0000
  C   C16       1.0  0.18929  0.47471  0.10386  1.0000
  C   C17       1.0  0.73594  0.07399  0.38389  1.0000
  C   C18       1.0  0.76325  0.61568  0.92535  1.0000
  C   C19       1.0  0.26406  0.92601  0.61611  1.0000
  C   C20       1.0  0.23675  0.38432  0.07465  1.0000
  C   C21       1.0  0.86595  0.16600  0.58044  1.0000
  C   C22       1.0  0.63439  0.41927  0.83429  1.0000
  C   C23       1.0  0.13404  0.83400  0.41956  1.0000
  C   C24       1.0  0.36561  0.58073  0.16570  1.0000
  C   C25       1.0  0.88646  0.27142  0.49490  1.0000
  C   C26       1.0  0.61272  0.50429  0.72837  1.0000
  C   C27       1.0  0.11354  0.72858  0.50510  1.0000
  C   C28       1.0  0.38728  0.49572  0.27163  1.0000
  C   C29       1.0  0.95828  0.35481  0.51944  1.0000
  C   C30       1.0  0.53985  0.47994  0.64472  1.0000
  C   C31       1.0  0.04171  0.64519  0.48056  1.0000
  C   C32       1.0  0.46015  0.52006  0.35527  1.0000
  C   C33       1.0  0.00856  0.33248  0.62796  1.0000
  C   C34       1.0  0.49024  0.37208  0.66700  1.0000
  C   C35       1.0  0.99144  0.66752  0.37205  1.0000
  C   C36       1.0  0.50976  0.62792  0.33300  1.0000
  C   C37       1.0  0.98870  0.22649  0.71348  1.0000
  C   C38       1.0  0.51131  0.28697  0.77344  1.0000
  C   C39       1.0  0.01131  0.77351  0.28652  1.0000
  C   C40       1.0  0.48868  0.71303  0.22656  1.0000
  C   C41       1.0  0.91600  0.14161  0.69030  1.0000
  C   C42       1.0  0.58461  0.31012  0.85867  1.0000
  C   C43       1.0  0.08400  0.85839  0.30970  1.0000
  C   C44       1.0  0.41539  0.68989  0.14133  1.0000
  C   C45       1.0  0.05611  0.20454  0.82650  1.0000
  C   C46       1.0  0.44414  0.17450  0.79567  1.0000
  C   C47       1.0  0.94389  0.79546  0.17350  1.0000
  C   C48       1.0  0.55586  0.82550  0.20433  1.0000
  C   C49       1.0  0.89010  0.02571  0.77821  1.0000
  C   C50       1.0  0.61009  0.22236  0.97505  1.0000
  C   C51       1.0  0.10991  0.97429  0.22180  1.0000
  C   C52       1.0  0.38991  0.77765  0.02495  1.0000
  N   N1        1.0  0.62667  0.09001  0.30160  1.0000
  N   N2        1.0  0.87189  0.69792  0.90858  1.0000
  N   N3        1.0  0.37333  0.90999  0.69840  1.0000
  N   N4        1.0  0.12810  0.30208  0.09142  1.0000
  O   O1        1.0  0.80465  0.07800  0.55948  1.0000
  O   O2        1.0  0.69641  0.44013  0.92277  1.0000
  O   O3        1.0  0.19534  0.92200  0.44052  1.0000
  O   O4        1.0  0.30358  0.55987  0.07723  1.0000
  O   O5        1.0  0.10507  0.28609  0.84721  1.0000
  O   O6        1.0  0.39434  0.15411  0.71364  1.0000
  O   O7        1.0  0.89493  0.71391  0.15279  1.0000
  O   O8        1.0  0.60567  0.84589  0.28636  1.0000
  O   O9        1.0  0.07225  0.10339  0.89762  1.0000
  O   O10       1.0  0.42889  0.10361  0.89745  1.0000
  O   O11       1.0  0.92775  0.89661  0.10238  1.0000
  O   O12       1.0  0.57111  0.89639  0.10255  1.0000
  O   O13       1.0  0.74504  0.00654  0.82976  1.0000
  O   O14       1.0  0.75432  0.17003  0.99397  1.0000
  O   O15       1.0  0.25496  0.99346  0.17024  1.0000
  O   O16       1.0  0.24568  0.82997  0.00603  1.0000
  O   O17       1.0  0.01098  0.95134  0.79352  1.0000
  O   O18       1.0  0.48913  0.20767  0.04971  1.0000
  O   O19       1.0  0.98902  0.04866  0.20648  1.0000
  O   O20       1.0  0.51087  0.79233  0.95029  1.0000
