data_image0
_chemical_formula_structural       ZnSiH8C8N4F6
_chemical_formula_sum              "Zn1 Si1 H8 C8 N4 F6"
_cell_length_a       7.16542
_cell_length_b       7.16548
_cell_length_c       7.67102
_cell_angle_alpha    90
_cell_angle_beta     90
_cell_angle_gamma    89.9999

_space_group_name_H-M_alt    "P 1"
_space_group_IT_number       1

loop_
  _space_group_symop_operation_xyz
  'x, y, z'

loop_
  _atom_site_type_symbol
  _atom_site_label
  _atom_site_symmetry_multiplicity
  _atom_site_fract_x
  _atom_site_fract_y
  _atom_site_fract_z
  _atom_site_occupancy
  Zn  Zn1       1.0  0.50000  0.50000  0.50000  1.0000
  Si  Si1       1.0  0.50000  0.50000  0.00000  1.0000
  H   H1        1.0  0.50000  0.17477  0.22783  1.0000
  H   H2        1.0  0.50000  0.82523  0.22783  1.0000
  H   H3        1.0  0.82523  0.50000  0.22783  1.0000
  H   H4        1.0  0.17477  0.50000  0.22783  1.0000
  H   H5        1.0  0.50000  0.17477  0.77217  1.0000
  H   H6        1.0  0.50000  0.82523  0.77217  1.0000
  H   H7        1.0  0.17477  0.50000  0.77217  1.0000
  H   H8        1.0  0.82523  0.50000  0.77217  1.0000
  C   C1        1.0  0.50000  0.09724  0.34993  1.0000
  C   C2        1.0  0.50000  0.90276  0.34994  1.0000
  C   C3        1.0  0.90276  0.50000  0.34993  1.0000
  C   C4        1.0  0.09724  0.50000  0.34993  1.0000
  C   C5        1.0  0.50000  0.09724  0.65007  1.0000
  C   C6        1.0  0.50000  0.90276  0.65007  1.0000
  C   C7        1.0  0.09724  0.50000  0.65007  1.0000
  C   C8        1.0  0.90276  0.50000  0.65007  1.0000
  N   N1        1.0  0.50000  0.19454  0.50000  1.0000
  N   N2        1.0  0.50000  0.80546  0.50000  1.0000
  N   N3        1.0  0.80546  0.50000  0.50000  1.0000
  N   N4        1.0  0.19454  0.50000  0.50000  1.0000
  F   F1        1.0  0.50000  0.50000  0.23019  1.0000
  F   F2        1.0  0.50000  0.50000  0.76981  1.0000
  F   F3        1.0  0.33275  0.33276  1.00000  1.0000
  F   F4        1.0  0.66724  0.66724  0.00000  1.0000
  F   F5        1.0  0.66724  0.33276  1.00000  1.0000
  F   F6        1.0  0.33275  0.66724  0.00000  1.0000
