data_image0
_chemical_formula_structural       Cu4H38C40N6O18
_chemical_formula_sum              "Cu4 H38 C40 N6 O18"
_cell_length_a       6.65858
_cell_length_b       10.3451
_cell_length_c       15.661
_cell_angle_alpha    105.646
_cell_angle_beta     92.5661
_cell_angle_gamma    101.812

_space_group_name_H-M_alt    "P 1"
_space_group_IT_number       1

loop_
  _space_group_symop_operation_xyz
  'x, y, z'

loop_
  _atom_site_type_symbol
  _atom_site_label
  _atom_site_symmetry_multiplicity
  _atom_site_fract_x
  _atom_site_fract_y
  _atom_site_fract_z
  _atom_site_occupancy
  Cu  Cu1       1.0  0.50839  0.12584  0.99588  1.0000
  Cu  Cu2       1.0  0.49163  0.87425  0.00412  1.0000
  Cu  Cu3       1.0  0.07438  0.12463  0.49538  1.0000
  Cu  Cu4       1.0  0.92554  0.87532  0.50461  1.0000
  H   H1        1.0  0.28094  0.63183  0.80932  1.0000
  H   H2        1.0  0.71913  0.36819  0.19069  1.0000
  H   H3        1.0  0.20987  0.08106  0.26029  1.0000
  H   H4        1.0  0.79008  0.91890  0.73970  1.0000
  H   H5        1.0  0.00969  0.95107  0.19183  1.0000
  H   H6        1.0  0.99034  0.04889  0.80814  1.0000
  H   H7        1.0  0.91571  0.17907  0.25730  1.0000
  H   H8        1.0  0.08427  0.82091  0.74271  1.0000
  H   H9        1.0  0.08780  0.25650  0.19217  1.0000
  H   H10       1.0  0.91225  0.74349  0.80785  1.0000
  H   H11       1.0  0.15255  0.25089  0.02883  1.0000
  H   H12       1.0  0.84746  0.74914  0.97117  1.0000
  H   H13       1.0  0.93198  0.36325  0.95465  1.0000
  H   H14       1.0  0.06806  0.63679  0.04534  1.0000
  H   H15       1.0  0.07802  0.48423  0.84500  1.0000
  H   H16       1.0  0.92202  0.51579  0.15498  1.0000
  H   H17       1.0  0.64589  0.36201  0.89088  1.0000
  H   H18       1.0  0.35415  0.63800  0.10913  1.0000
  H   H19       1.0  0.61777  0.65883  0.69931  1.0000
  H   H20       1.0  0.38226  0.34117  0.30068  1.0000
  H   H21       1.0  0.42321  0.75454  0.71496  1.0000
  H   H22       1.0  0.57682  0.24546  0.28503  1.0000
  H   H23       1.0  0.38537  0.73578  0.55062  1.0000
  H   H24       1.0  0.61465  0.26422  0.44939  1.0000
  H   H25       1.0  0.22104  0.58661  0.40031  1.0000
  H   H26       1.0  0.77898  0.41339  0.59970  1.0000
  H   H27       1.0  0.09278  0.33274  0.37875  1.0000
  H   H28       1.0  0.90726  0.66727  0.62125  1.0000
  H   H29       1.0  0.27936  0.36993  0.64037  1.0000
  H   H30       1.0  0.72062  0.63007  0.35963  1.0000
  H   H31       1.0  0.46863  0.95153  0.70503  1.0000
  H   H32       1.0  0.53138  0.04848  0.29501  1.0000
  H   H33       1.0  0.38196  0.09652  0.76479  1.0000
  H   H34       1.0  0.61793  0.90346  0.23520  1.0000
  H   H35       1.0  0.74992  0.16927  0.75748  1.0000
  H   H36       1.0  0.24997  0.83074  0.24252  1.0000
  H   H37       1.0  0.62354  0.24672  0.69073  1.0000
  H   H38       1.0  0.37639  0.75324  0.30922  1.0000
  C   C1        1.0  0.25516  0.02770  0.12257  1.0000
  C   C2        1.0  0.74487  0.97234  0.87743  1.0000
  C   C3        1.0  0.11319  0.05024  0.19605  1.0000
  C   C4        1.0  0.88683  0.94976  0.80394  1.0000
  C   C5        1.0  0.98958  0.15880  0.19479  1.0000
  C   C6        1.0  0.01041  0.84119  0.80522  1.0000
  C   C7        1.0  0.81451  0.11075  0.11971  1.0000
  C   C8        1.0  0.18549  0.88927  0.88029  1.0000
  C   C9        1.0  0.21310  0.30486  0.98143  1.0000
  C   C10       1.0  0.78691  0.69516  0.01857  1.0000
  C   C11       1.0  0.09103  0.36892  0.93992  1.0000
  C   C12       1.0  0.90900  0.63110  0.06008  1.0000
  C   C13       1.0  0.17438  0.43645  0.87945  1.0000
  C   C14       1.0  0.82566  0.56357  0.12055  1.0000
  C   C15       1.0  0.37994  0.43831  0.86300  1.0000
  C   C16       1.0  0.62009  0.56170  0.13700  1.0000
  C   C17       1.0  0.48889  0.36715  0.90589  1.0000
  C   C18       1.0  0.51114  0.63286  0.09411  1.0000
  C   C19       1.0  0.48590  0.50641  0.79875  1.0000
  C   C20       1.0  0.51415  0.49359  0.20125  1.0000
  C   C21       1.0  0.45039  0.64996  0.69981  1.0000
  C   C22       1.0  0.54964  0.35005  0.30019  1.0000
  C   C23       1.0  0.34445  0.56520  0.60848  1.0000
  C   C24       1.0  0.65557  0.43482  0.39153  1.0000
  C   C25       1.0  0.32868  0.62526  0.53918  1.0000
  C   C26       1.0  0.67134  0.37473  0.46082  1.0000
  C   C27       1.0  0.23792  0.54231  0.45513  1.0000
  C   C28       1.0  0.76210  0.45771  0.54487  1.0000
  C   C29       1.0  0.16735  0.40168  0.44287  1.0000
  C   C30       1.0  0.83266  0.59833  0.55713  1.0000
  C   C31       1.0  0.26962  0.42312  0.58955  1.0000
  C   C32       1.0  0.73038  0.57688  0.41045  1.0000
  C   C33       1.0  0.27927  0.02859  0.62637  1.0000
  C   C34       1.0  0.72065  0.97134  0.37363  1.0000
  C   C35       1.0  0.44496  0.05219  0.70243  1.0000
  C   C36       1.0  0.55498  0.94779  0.29757  1.0000
  C   C37       1.0  0.64703  0.14731  0.69576  1.0000
  C   C38       1.0  0.35292  0.85270  0.30423  1.0000
  C   C39       1.0  0.76498  0.08710  0.61947  1.0000
  C   C40       1.0  0.23496  0.91287  0.38053  1.0000
  N   N1        1.0  0.40909  0.30230  0.96426  1.0000
  N   N2        1.0  0.59094  0.69771  0.03574  1.0000
  N   N3        1.0  0.38448  0.59095  0.77062  1.0000
  N   N4        1.0  0.61558  0.40906  0.22939  1.0000
  N   N5        1.0  0.18451  0.34247  0.50848  1.0000
  N   N6        1.0  0.81549  0.65754  0.49152  1.0000
  O   O1        1.0  0.75552  0.20216  0.08999  1.0000
  O   O2        1.0  0.24454  0.79787  0.91002  1.0000
  O   O3        1.0  0.73569  0.98242  0.09423  1.0000
  O   O4        1.0  0.26428  0.01760  0.90576  1.0000
  O   O5        1.0  0.32421  0.13036  0.09362  1.0000
  O   O6        1.0  0.67580  0.86970  0.90641  1.0000
  O   O7        1.0  0.29804  0.90941  0.09736  1.0000
  O   O8        1.0  0.70201  0.09063  0.90264  1.0000
  O   O9        1.0  0.74634  0.95666  0.59560  1.0000
  O   O10       1.0  0.25357  0.04331  0.40441  1.0000
  O   O11       1.0  0.14840  0.91322  0.60467  1.0000
  O   O12       1.0  0.85155  0.08670  0.39535  1.0000
  O   O13       1.0  0.87926  0.17339  0.58777  1.0000
  O   O14       1.0  0.12070  0.82656  0.41222  1.0000
  O   O15       1.0  0.28292  0.12697  0.59190  1.0000
  O   O16       1.0  0.71696  0.87294  0.40808  1.0000
  O   O17       1.0  0.65062  0.48160  0.77127  1.0000
  O   O18       1.0  0.34941  0.51839  0.22873  1.0000
