data_image0
_chemical_formula_structural       Cr2Cd3H40C24N20
_chemical_formula_sum              "Cr2 Cd3 H40 C24 N20"
_cell_length_a       7.63019
_cell_length_b       7.80005
_cell_length_c       15.9719
_cell_angle_alpha    95.7379
_cell_angle_beta     96.1461
_cell_angle_gamma    91.4206

_space_group_name_H-M_alt    "P 1"
_space_group_IT_number       1

loop_
  _space_group_symop_operation_xyz
  'x, y, z'

loop_
  _atom_site_type_symbol
  _atom_site_label
  _atom_site_symmetry_multiplicity
  _atom_site_fract_x
  _atom_site_fract_y
  _atom_site_fract_z
  _atom_site_occupancy
  Cr  Cr1       1.0  0.00000  0.00001  0.50000  1.0000
  Cr  Cr2       1.0  0.50000  0.50000  0.00000  1.0000
  Cd  Cd1       1.0  0.41552  0.64102  0.33003  1.0000
  Cd  Cd2       1.0  0.58448  0.35897  0.66998  1.0000
  Cd  Cd3       1.0  1.00000  0.00000  1.00000  1.0000
  H   H1        1.0  0.04009  0.63150  0.32757  1.0000
  H   H2        1.0  0.95991  0.36850  0.67243  1.0000
  H   H3        1.0  0.10628  0.43283  0.31919  1.0000
  H   H4        1.0  0.89372  0.56717  0.68080  1.0000
  H   H5        1.0  0.89753  0.48404  0.19865  1.0000
  H   H6        1.0  0.10247  0.51596  0.80135  1.0000
  H   H7        1.0  0.10594  0.41145  0.17369  1.0000
  H   H8        1.0  0.89406  0.58855  0.82630  1.0000
  H   H9        1.0  0.14634  0.01949  0.17036  1.0000
  H   H10       1.0  0.85366  0.98051  0.82964  1.0000
  H   H11       1.0  0.94772  0.08992  0.16874  1.0000
  H   H12       1.0  0.05229  0.91008  0.83126  1.0000
  H   H13       1.0  0.20810  0.71351  0.16419  1.0000
  H   H14       1.0  0.79190  0.28649  0.83581  1.0000
  H   H15       1.0  0.03050  0.64055  0.08862  1.0000
  H   H16       1.0  0.96949  0.35945  0.91138  1.0000
  H   H17       1.0  0.55434  0.38789  0.43304  1.0000
  H   H18       1.0  0.44566  0.61211  0.56696  1.0000
  H   H19       1.0  0.38604  0.29416  0.37140  1.0000
  H   H20       1.0  0.61396  0.70583  0.62860  1.0000
  H   H21       1.0  0.82047  0.80486  0.16388  1.0000
  H   H22       1.0  0.17952  0.19514  0.83612  1.0000
  H   H23       1.0  0.97378  0.85548  0.25505  1.0000
  H   H24       1.0  0.02622  0.14452  0.74495  1.0000
  H   H25       1.0  0.70511  0.19881  0.35348  1.0000
  H   H26       1.0  0.29489  0.80118  0.64652  1.0000
  H   H27       1.0  0.71216  0.38724  0.30167  1.0000
  H   H28       1.0  0.28784  0.61276  0.69833  1.0000
  H   H29       1.0  0.30041  0.99500  0.31693  1.0000
  H   H30       1.0  0.69959  0.00500  0.68307  1.0000
  H   H31       1.0  0.49556  0.98474  0.36946  1.0000
  H   H32       1.0  0.50444  0.01525  0.63054  1.0000
  H   H33       1.0  0.39854  0.24352  0.22147  1.0000
  H   H34       1.0  0.60146  0.75648  0.77853  1.0000
  H   H35       1.0  0.60072  0.20589  0.18255  1.0000
  H   H36       1.0  0.39928  0.79411  0.81745  1.0000
  H   H37       1.0  0.43223  0.93190  0.18279  1.0000
  H   H38       1.0  0.56777  0.06810  0.81721  1.0000
  H   H39       1.0  0.63639  0.93511  0.24495  1.0000
  H   H40       1.0  0.36361  0.06489  0.75505  1.0000
  C   C1        1.0  0.03931  0.52045  0.20384  1.0000
  C   C2        1.0  0.96069  0.47955  0.79616  1.0000
  C   C3        1.0  0.06645  0.67715  0.15658  1.0000
  C   C4        1.0  0.93355  0.32285  0.84342  1.0000
  C   C5        1.0  0.96101  0.83119  0.18534  1.0000
  C   C6        1.0  0.03899  0.16882  0.81466  1.0000
  C   C7        1.0  0.62236  0.28612  0.31743  1.0000
  C   C8        1.0  0.37764  0.71387  0.68257  1.0000
  C   C9        1.0  0.52760  0.18733  0.23686  1.0000
  C   C10       1.0  0.47240  0.81267  0.76314  1.0000
  C   C11       1.0  0.82398  0.82904  0.42954  1.0000
  C   C12       1.0  0.17602  0.17097  0.57046  1.0000
  C   C13       1.0  0.50649  0.99303  0.24148  1.0000
  C   C14       1.0  0.49351  0.00696  0.75852  1.0000
  C   C15       1.0  0.19624  0.83354  0.48126  1.0000
  C   C16       1.0  0.80376  0.16646  0.51873  1.0000
  C   C17       1.0  0.52384  0.56030  0.12672  1.0000
  C   C18       1.0  0.47616  0.43970  0.87328  1.0000
  C   C19       1.0  0.05728  0.11482  0.39699  1.0000
  C   C20       1.0  0.94273  0.88520  0.60301  1.0000
  C   C21       1.0  0.30628  0.33123  0.01724  1.0000
  C   C22       1.0  0.69371  0.66877  0.98276  1.0000
  C   C23       1.0  0.67142  0.30744  0.01430  1.0000
  C   C24       1.0  0.32857  0.69256  0.98570  1.0000
  N   N1        1.0  0.11474  0.54862  0.29378  1.0000
  N   N2        1.0  0.88526  0.45139  0.70622  1.0000
  N   N3        1.0  0.01788  0.98678  0.14834  1.0000
  N   N4        1.0  0.98212  0.01321  0.85166  1.0000
  N   N5        1.0  0.49677  0.37149  0.37151  1.0000
  N   N6        1.0  0.50324  0.62850  0.62850  1.0000
  N   N7        1.0  0.71964  0.72934  0.39147  1.0000
  N   N8        1.0  0.28037  0.27067  0.60853  1.0000
  N   N9        1.0  0.42090  0.94042  0.31408  1.0000
  N   N10       1.0  0.57910  0.05958  0.68592  1.0000
  N   N11       1.0  0.30794  0.73752  0.46621  1.0000
  N   N12       1.0  0.69206  0.26248  0.53379  1.0000
  N   N13       1.0  0.52597  0.58843  0.20032  1.0000
  N   N14       1.0  0.47403  0.41157  0.79968  1.0000
  N   N15       1.0  0.10091  0.18239  0.33949  1.0000
  N   N16       1.0  0.89910  0.81762  0.66051  1.0000
  N   N17       1.0  0.19913  0.23112  0.03140  1.0000
  N   N18       1.0  0.80086  0.76888  0.96860  1.0000
  N   N19       1.0  0.76802  0.19391  0.02155  1.0000
  N   N20       1.0  0.23197  0.80609  0.97844  1.0000
