data_image0
_chemical_formula_structural       Nd6P2H38C26N2O48
_chemical_formula_sum              "Nd6 P2 H38 C26 N2 O48"
_cell_length_a       10.8919
_cell_length_b       10.7797
_cell_length_c       11.7625
_cell_angle_alpha    90
_cell_angle_beta     90
_cell_angle_gamma    106.314

_space_group_name_H-M_alt    "P 1"
_space_group_IT_number       1

loop_
  _space_group_symop_operation_xyz
  'x, y, z'

loop_
  _atom_site_type_symbol
  _atom_site_label
  _atom_site_symmetry_multiplicity
  _atom_site_fract_x
  _atom_site_fract_y
  _atom_site_fract_z
  _atom_site_occupancy
  Nd  Nd1       1.0  0.03174  0.69420  0.10489  1.0000
  Nd  Nd2       1.0  0.96825  0.30580  0.60488  1.0000
  Nd  Nd3       1.0  0.81035  0.69292  0.60640  1.0000
  Nd  Nd4       1.0  0.18965  0.30708  0.10639  1.0000
  Nd  Nd5       1.0  0.57817  0.60976  0.25719  1.0000
  Nd  Nd6       1.0  0.42183  0.39024  0.75719  1.0000
  P   P1        1.0  0.47936  0.66964  0.55854  1.0000
  P   P2        1.0  0.52065  0.33036  0.05853  1.0000
  H   H1        1.0  0.92425  0.41295  0.03360  1.0000
  H   H2        1.0  0.07575  0.58705  0.53360  1.0000
  H   H3        1.0  0.91044  0.42342  0.16054  1.0000
  H   H4        1.0  0.08956  0.57658  0.66054  1.0000
  H   H5        1.0  0.39502  0.36399  0.34441  1.0000
  H   H6        1.0  0.60498  0.63601  0.84441  1.0000
  H   H7        1.0  0.51331  0.31067  0.33864  1.0000
  H   H8        1.0  0.48670  0.68933  0.83864  1.0000
  H   H9        1.0  0.56415  0.67044  0.00651  1.0000
  H   H10       1.0  0.43585  0.32957  0.50651  1.0000
  H   H11       1.0  0.70793  0.71773  0.04005  1.0000
  H   H12       1.0  0.29207  0.28227  0.54006  1.0000
  H   H13       1.0  0.80136  0.86401  0.23363  1.0000
  H   H14       1.0  0.19864  0.13599  0.73362  1.0000
  H   H15       1.0  0.76377  0.86658  0.35961  1.0000
  H   H16       1.0  0.23623  0.13341  0.85960  1.0000
  H   H17       1.0  0.42878  0.82850  0.38663  1.0000
  H   H18       1.0  0.57123  0.17150  0.88663  1.0000
  H   H19       1.0  0.28359  0.73165  0.54359  1.0000
  H   H20       1.0  0.71642  0.26835  0.04359  1.0000
  H   H21       1.0  0.39196  0.84171  0.63614  1.0000
  H   H22       1.0  0.60804  0.15830  0.13614  1.0000
  H   H23       1.0  0.31683  0.00704  0.51567  1.0000
  H   H24       1.0  0.68318  0.99296  0.01568  1.0000
  H   H25       1.0  0.23363  0.88407  0.41745  1.0000
  H   H26       1.0  0.76638  0.11594  0.91746  1.0000
  H   H27       1.0  0.36818  0.99308  0.25870  1.0000
  H   H28       1.0  0.63183  0.00692  0.75870  1.0000
  H   H29       1.0  0.30370  0.10762  0.32847  1.0000
  H   H30       1.0  0.69630  0.89238  0.82848  1.0000
  H   H31       1.0  0.54289  0.03127  0.55588  1.0000
  H   H32       1.0  0.45711  0.96874  0.05589  1.0000
  H   H33       1.0  0.61968  0.92136  0.49452  1.0000
  H   H34       1.0  0.38033  0.07865  0.99452  1.0000
  H   H35       1.0  0.67952  0.13544  0.39248  1.0000
  H   H36       1.0  0.32048  0.86456  0.89248  1.0000
  H   H37       1.0  0.59625  0.00694  0.30084  1.0000
  H   H38       1.0  0.40376  0.99307  0.80084  1.0000
  C   C1        1.0  0.38381  0.78699  0.55650  1.0000
  C   C2        1.0  0.61619  0.21301  0.05650  1.0000
  C   C3        1.0  0.32540  0.95492  0.43715  1.0000
  C   C4        1.0  0.67460  0.04509  0.93715  1.0000
  C   C5        1.0  0.36947  0.04767  0.33795  1.0000
  C   C6        1.0  0.63053  0.95233  0.83796  1.0000
  C   C7        1.0  0.55079  0.97644  0.47892  1.0000
  C   C8        1.0  0.44922  0.02356  0.97892  1.0000
  C   C9        1.0  0.58716  0.06429  0.37643  1.0000
  C   C10       1.0  0.41284  0.93571  0.87643  1.0000
  C   C11       1.0  0.98449  0.66794  0.37975  1.0000
  C   C12       1.0  0.01549  0.33205  0.87973  1.0000
  C   C13       1.0  0.84640  0.63359  0.33540  1.0000
  C   C14       1.0  0.15358  0.36641  0.83539  1.0000
  C   C15       1.0  0.11194  0.99951  0.02938  1.0000
  C   C16       1.0  0.88805  0.00046  0.52939  1.0000
  C   C17       1.0  0.04874  0.99844  0.14808  1.0000
  C   C18       1.0  0.95125  0.00154  0.64809  1.0000
  C   C19       1.0  0.29103  0.59518  0.14403  1.0000
  C   C20       1.0  0.70897  0.40482  0.64402  1.0000
  C   C21       1.0  0.33547  0.73774  0.18082  1.0000
  C   C22       1.0  0.66453  0.26227  0.68081  1.0000
  C   C23       1.0  0.85264  0.68485  0.88303  1.0000
  C   C24       1.0  0.14736  0.31515  0.38303  1.0000
  C   C25       1.0  0.97417  0.65372  0.83683  1.0000
  C   C26       1.0  0.02583  0.34628  0.33684  1.0000
  N   N1        1.0  0.42183  0.88132  0.46009  1.0000
  N   N2        1.0  0.57817  0.11868  0.96009  1.0000
  O   O1        1.0  0.40488  0.55970  0.63419  1.0000
  O   O2        1.0  0.59512  0.44030  0.13419  1.0000
  O   O3        1.0  0.61297  0.73917  0.60588  1.0000
  O   O4        1.0  0.38703  0.26082  0.10587  1.0000
  O   O5        1.0  0.48461  0.63781  0.43174  1.0000
  O   O6        1.0  0.51539  0.36220  0.93174  1.0000
  O   O7        1.0  0.49471  0.13427  0.35663  1.0000
  O   O8        1.0  0.50529  0.86573  0.85663  1.0000
  O   O9        1.0  0.99999  0.69785  0.48425  1.0000
  O   O10       1.0  0.00000  0.30215  0.98425  1.0000
  O   O11       1.0  0.07116  0.66438  0.31009  1.0000
  O   O12       1.0  0.92883  0.33560  0.81009  1.0000
  O   O13       1.0  0.75475  0.61097  0.40708  1.0000
  O   O14       1.0  0.24524  0.38902  0.90706  1.0000
  O   O15       1.0  0.82876  0.63297  0.22929  1.0000
  O   O16       1.0  0.17122  0.36702  0.72929  1.0000
  O   O17       1.0  0.11296  0.89328  0.98647  1.0000
  O   O18       1.0  0.88704  0.10673  0.48647  1.0000
  O   O19       1.0  0.16066  0.11113  0.98594  1.0000
  O   O20       1.0  0.83934  0.88887  0.48595  1.0000
  O   O21       1.0  0.98694  0.88878  0.18731  1.0000
  O   O22       1.0  0.01304  0.11123  0.68732  1.0000
  O   O23       1.0  0.06465  0.10592  0.19675  1.0000
  O   O24       1.0  0.93535  0.89409  0.69676  1.0000
  O   O25       1.0  0.36496  0.52434  0.16059  1.0000
  O   O26       1.0  0.63504  0.47566  0.66059  1.0000
  O   O27       1.0  0.18047  0.55162  0.10116  1.0000
  O   O28       1.0  0.81953  0.44838  0.60115  1.0000
  O   O29       1.0  0.44003  0.77187  0.23507  1.0000
  O   O30       1.0  0.55998  0.22813  0.73507  1.0000
  O   O31       1.0  0.26251  0.80609  0.15500  1.0000
  O   O32       1.0  0.73748  0.19391  0.65499  1.0000
  O   O33       1.0  0.76258  0.67841  0.81290  1.0000
  O   O34       1.0  0.23742  0.32158  0.31289  1.0000
  O   O35       1.0  0.85020  0.71244  0.98725  1.0000
  O   O36       1.0  0.14980  0.28756  0.48724  1.0000
  O   O37       1.0  0.98373  0.65063  0.72994  1.0000
  O   O38       1.0  0.01628  0.34937  0.22992  1.0000
  O   O39       1.0  0.05173  0.63098  0.90806  1.0000
  O   O40       1.0  0.94828  0.36902  0.40804  1.0000
  O   O41       1.0  0.89447  0.46641  0.08960  1.0000
  O   O42       1.0  0.10553  0.53359  0.58960  1.0000
  O   O43       1.0  0.48839  0.38789  0.36283  1.0000
  O   O44       1.0  0.51161  0.61211  0.86283  1.0000
  O   O45       1.0  0.62104  0.71668  0.06814  1.0000
  O   O46       1.0  0.37897  0.28333  0.56814  1.0000
  O   O47       1.0  0.72520  0.84233  0.28259  1.0000
  O   O48       1.0  0.27480  0.15767  0.78259  1.0000
