data_image0
_chemical_formula_structural       Sm6P2H38C26N2O48
_chemical_formula_sum              "Sm6 P2 H38 C26 N2 O48"
_cell_length_a       10.8255
_cell_length_b       10.7032
_cell_length_c       11.648
_cell_angle_alpha    90
_cell_angle_beta     90
_cell_angle_gamma    106.438

_space_group_name_H-M_alt    "P 1"
_space_group_IT_number       1

loop_
  _space_group_symop_operation_xyz
  'x, y, z'

loop_
  _atom_site_type_symbol
  _atom_site_label
  _atom_site_symmetry_multiplicity
  _atom_site_fract_x
  _atom_site_fract_y
  _atom_site_fract_z
  _atom_site_occupancy
  Sm  Sm1       1.0  0.03074  0.69460  0.10408  1.0000
  Sm  Sm2       1.0  0.96927  0.30541  0.60408  1.0000
  Sm  Sm3       1.0  0.81086  0.69274  0.60561  1.0000
  Sm  Sm4       1.0  0.18914  0.30727  0.10561  1.0000
  Sm  Sm5       1.0  0.57546  0.61056  0.25676  1.0000
  Sm  Sm6       1.0  0.42454  0.38944  0.75677  1.0000
  P   P1        1.0  0.47976  0.66934  0.55832  1.0000
  P   P2        1.0  0.52024  0.33067  0.05832  1.0000
  H   H1        1.0  0.92523  0.41598  0.03168  1.0000
  H   H2        1.0  0.07477  0.58402  0.53168  1.0000
  H   H3        1.0  0.91057  0.42376  0.15979  1.0000
  H   H4        1.0  0.08942  0.57624  0.65978  1.0000
  H   H5        1.0  0.39527  0.36752  0.34486  1.0000
  H   H6        1.0  0.60473  0.63248  0.84486  1.0000
  H   H7        1.0  0.51412  0.31405  0.33758  1.0000
  H   H8        1.0  0.48588  0.68594  0.83758  1.0000
  H   H9        1.0  0.56275  0.66982  0.00725  1.0000
  H   H10       1.0  0.43724  0.33018  0.50725  1.0000
  H   H11       1.0  0.70761  0.71597  0.04096  1.0000
  H   H12       1.0  0.29239  0.28403  0.54096  1.0000
  H   H13       1.0  0.79198  0.86375  0.23048  1.0000
  H   H14       1.0  0.20801  0.13625  0.73049  1.0000
  H   H15       1.0  0.76174  0.86548  0.35976  1.0000
  H   H16       1.0  0.23826  0.13452  0.85976  1.0000
  H   H17       1.0  0.42810  0.82932  0.38770  1.0000
  H   H18       1.0  0.57190  0.17068  0.88770  1.0000
  H   H19       1.0  0.28319  0.73244  0.54786  1.0000
  H   H20       1.0  0.71681  0.26755  0.04786  1.0000
  H   H21       1.0  0.39472  0.84321  0.63989  1.0000
  H   H22       1.0  0.60528  0.15679  0.13989  1.0000
  H   H23       1.0  0.31627  0.00953  0.51822  1.0000
  H   H24       1.0  0.68373  0.99047  0.01822  1.0000
  H   H25       1.0  0.23140  0.88479  0.42007  1.0000
  H   H26       1.0  0.76860  0.11520  0.92007  1.0000
  H   H27       1.0  0.36502  0.99417  0.25846  1.0000
  H   H28       1.0  0.63498  0.00583  0.75846  1.0000
  H   H29       1.0  0.30087  0.10968  0.32922  1.0000
  H   H30       1.0  0.69912  0.89032  0.82922  1.0000
  H   H31       1.0  0.54309  0.03534  0.55728  1.0000
  H   H32       1.0  0.45691  0.96467  0.05728  1.0000
  H   H33       1.0  0.62071  0.92473  0.49587  1.0000
  H   H34       1.0  0.37929  0.07527  0.99587  1.0000
  H   H35       1.0  0.67988  0.13988  0.39152  1.0000
  H   H36       1.0  0.32012  0.86012  0.89152  1.0000
  H   H37       1.0  0.59588  0.00926  0.29994  1.0000
  H   H38       1.0  0.40412  0.99074  0.79994  1.0000
  C   C1        1.0  0.38444  0.78813  0.55936  1.0000
  C   C2        1.0  0.61556  0.21187  0.05936  1.0000
  C   C3        1.0  0.32398  0.95648  0.43903  1.0000
  C   C4        1.0  0.67602  0.04352  0.93902  1.0000
  C   C5        1.0  0.36716  0.04952  0.33838  1.0000
  C   C6        1.0  0.63284  0.95047  0.83838  1.0000
  C   C7        1.0  0.55113  0.97966  0.47992  1.0000
  C   C8        1.0  0.44887  0.02034  0.97992  1.0000
  C   C9        1.0  0.58694  0.06763  0.37593  1.0000
  C   C10       1.0  0.41306  0.93237  0.87593  1.0000
  C   C11       1.0  0.98196  0.66683  0.37821  1.0000
  C   C12       1.0  0.01803  0.33316  0.87822  1.0000
  C   C13       1.0  0.84332  0.63451  0.33393  1.0000
  C   C14       1.0  0.15667  0.36549  0.83394  1.0000
  C   C15       1.0  0.11190  0.99999  0.02810  1.0000
  C   C16       1.0  0.88812  0.00002  0.52809  1.0000
  C   C17       1.0  0.05280  0.99856  0.14956  1.0000
  C   C18       1.0  0.94721  0.00144  0.64955  1.0000
  C   C19       1.0  0.28879  0.59466  0.14288  1.0000
  C   C20       1.0  0.71122  0.40534  0.64288  1.0000
  C   C21       1.0  0.33316  0.73819  0.17962  1.0000
  C   C22       1.0  0.66685  0.26181  0.67961  1.0000
  C   C23       1.0  0.85316  0.68467  0.88236  1.0000
  C   C24       1.0  0.14684  0.31534  0.38236  1.0000
  C   C25       1.0  0.97622  0.65593  0.83583  1.0000
  C   C26       1.0  0.02378  0.34407  0.33583  1.0000
  N   N1        1.0  0.42143  0.88300  0.46165  1.0000
  N   N2        1.0  0.57857  0.11700  0.96165  1.0000
  O   O1        1.0  0.40613  0.55801  0.63487  1.0000
  O   O2        1.0  0.59387  0.44199  0.13486  1.0000
  O   O3        1.0  0.61550  0.73859  0.60411  1.0000
  O   O4        1.0  0.38450  0.26141  0.10411  1.0000
  O   O5        1.0  0.48167  0.63859  0.42970  1.0000
  O   O6        1.0  0.51833  0.36141  0.92970  1.0000
  O   O7        1.0  0.49345  0.13728  0.35597  1.0000
  O   O8        1.0  0.50655  0.86272  0.85596  1.0000
  O   O9        1.0  0.99848  0.69695  0.48369  1.0000
  O   O10       1.0  0.00151  0.30303  0.98369  1.0000
  O   O11       1.0  0.06829  0.66131  0.30761  1.0000
  O   O12       1.0  0.93171  0.33868  0.80762  1.0000
  O   O13       1.0  0.75134  0.61180  0.40669  1.0000
  O   O14       1.0  0.24865  0.38820  0.90669  1.0000
  O   O15       1.0  0.82549  0.63571  0.22694  1.0000
  O   O16       1.0  0.17450  0.36429  0.72694  1.0000
  O   O17       1.0  0.11173  0.89295  0.98420  1.0000
  O   O18       1.0  0.88829  0.10706  0.48418  1.0000
  O   O19       1.0  0.15899  0.11269  0.98386  1.0000
  O   O20       1.0  0.84103  0.88731  0.48386  1.0000
  O   O21       1.0  0.99185  0.88808  0.19004  1.0000
  O   O22       1.0  0.00815  0.11193  0.69003  1.0000
  O   O23       1.0  0.07108  0.10698  0.19908  1.0000
  O   O24       1.0  0.92892  0.89302  0.69908  1.0000
  O   O25       1.0  0.36389  0.52410  0.15928  1.0000
  O   O26       1.0  0.63611  0.47591  0.65928  1.0000
  O   O27       1.0  0.17723  0.54984  0.10035  1.0000
  O   O28       1.0  0.82277  0.45016  0.60034  1.0000
  O   O29       1.0  0.43888  0.77348  0.23349  1.0000
  O   O30       1.0  0.56112  0.22652  0.73349  1.0000
  O   O31       1.0  0.25902  0.80633  0.15381  1.0000
  O   O32       1.0  0.74098  0.19367  0.65380  1.0000
  O   O33       1.0  0.76208  0.67585  0.81157  1.0000
  O   O34       1.0  0.23792  0.32416  0.31156  1.0000
  O   O35       1.0  0.85045  0.71251  0.98761  1.0000
  O   O36       1.0  0.14955  0.28750  0.48761  1.0000
  O   O37       1.0  0.98638  0.65432  0.72787  1.0000
  O   O38       1.0  0.01362  0.34568  0.22787  1.0000
  O   O39       1.0  0.05401  0.63298  0.90794  1.0000
  O   O40       1.0  0.94599  0.36703  0.40793  1.0000
  O   O41       1.0  0.89475  0.46857  0.08890  1.0000
  O   O42       1.0  0.10525  0.53143  0.58890  1.0000
  O   O43       1.0  0.48948  0.39171  0.36289  1.0000
  O   O44       1.0  0.51052  0.60828  0.86290  1.0000
  O   O45       1.0  0.62052  0.71667  0.06911  1.0000
  O   O46       1.0  0.37948  0.28333  0.56911  1.0000
  O   O47       1.0  0.71856  0.84179  0.28329  1.0000
  O   O48       1.0  0.28143  0.15820  0.78329  1.0000
