data_image0
_chemical_formula_structural       Pr6P2H38C26N2O48
_chemical_formula_sum              "Pr6 P2 H38 C26 N2 O48"
_cell_length_a       11.0171
_cell_length_b       10.8514
_cell_length_c       11.8196
_cell_angle_alpha    90
_cell_angle_beta     90
_cell_angle_gamma    106.376

_space_group_name_H-M_alt    "P 1"
_space_group_IT_number       1

loop_
  _space_group_symop_operation_xyz
  'x, y, z'

loop_
  _atom_site_type_symbol
  _atom_site_label
  _atom_site_symmetry_multiplicity
  _atom_site_fract_x
  _atom_site_fract_y
  _atom_site_fract_z
  _atom_site_occupancy
  Pr  Pr1       1.0  0.03017  0.69820  0.10233  1.0000
  Pr  Pr2       1.0  0.96983  0.30179  0.60233  1.0000
  Pr  Pr3       1.0  0.80136  0.68670  0.60402  1.0000
  Pr  Pr4       1.0  0.19864  0.31330  0.10401  1.0000
  Pr  Pr5       1.0  0.58002  0.62270  0.24433  1.0000
  Pr  Pr6       1.0  0.41998  0.37730  0.74432  1.0000
  P   P1        1.0  0.47083  0.65653  0.54592  1.0000
  P   P2        1.0  0.52917  0.34348  0.04591  1.0000
  H   H1        1.0  0.92953  0.41741  0.03500  1.0000
  H   H2        1.0  0.07046  0.58259  0.53500  1.0000
  H   H3        1.0  0.92211  0.42385  0.16206  1.0000
  H   H4        1.0  0.07790  0.57614  0.66206  1.0000
  H   H5        1.0  0.40903  0.38370  0.35003  1.0000
  H   H6        1.0  0.59097  0.61630  0.85003  1.0000
  H   H7        1.0  0.51402  0.32818  0.30597  1.0000
  H   H8        1.0  0.48597  0.67181  0.80597  1.0000
  H   H9        1.0  0.58800  0.77614  0.00959  1.0000
  H   H10       1.0  0.41199  0.22387  0.50959  1.0000
  H   H11       1.0  0.71615  0.73779  0.02919  1.0000
  H   H12       1.0  0.28384  0.26221  0.52919  1.0000
  H   H13       1.0  0.77097  0.88650  0.22979  1.0000
  H   H14       1.0  0.22902  0.11350  0.72979  1.0000
  H   H15       1.0  0.76465  0.87316  0.36240  1.0000
  H   H16       1.0  0.23535  0.12684  0.86240  1.0000
  H   H17       1.0  0.42635  0.82236  0.38833  1.0000
  H   H18       1.0  0.57365  0.17765  0.88833  1.0000
  H   H19       1.0  0.27425  0.71327  0.53696  1.0000
  H   H20       1.0  0.72575  0.28673  0.03696  1.0000
  H   H21       1.0  0.37764  0.81842  0.63429  1.0000
  H   H22       1.0  0.62236  0.18159  0.13429  1.0000
  H   H23       1.0  0.28723  0.97402  0.51732  1.0000
  H   H24       1.0  0.71277  0.02598  0.01732  1.0000
  H   H25       1.0  0.22480  0.85929  0.40753  1.0000
  H   H26       1.0  0.77520  0.14072  0.90753  1.0000
  H   H27       1.0  0.36638  0.99577  0.26612  1.0000
  H   H28       1.0  0.63363  0.00423  0.76612  1.0000
  H   H29       1.0  0.28121  0.08999  0.33763  1.0000
  H   H30       1.0  0.71879  0.91001  0.83763  1.0000
  H   H31       1.0  0.51753  0.01299  0.57072  1.0000
  H   H32       1.0  0.48247  0.98701  0.07072  1.0000
  H   H33       1.0  0.60540  0.91925  0.50171  1.0000
  H   H34       1.0  0.39461  0.08076  0.00171  1.0000
  H   H35       1.0  0.65392  0.14294  0.42002  1.0000
  H   H36       1.0  0.34608  0.85706  0.92002  1.0000
  H   H37       1.0  0.58334  0.02354  0.31702  1.0000
  H   H38       1.0  0.41666  0.97646  0.81702  1.0000
  C   C1        1.0  0.37247  0.76920  0.55255  1.0000
  C   C2        1.0  0.62753  0.23080  0.05255  1.0000
  C   C3        1.0  0.30860  0.93375  0.43697  1.0000
  C   C4        1.0  0.69140  0.06625  0.93697  1.0000
  C   C5        1.0  0.35290  0.03825  0.34811  1.0000
  C   C6        1.0  0.64710  0.96176  0.84811  1.0000
  C   C7        1.0  0.53267  0.96928  0.49007  1.0000
  C   C8        1.0  0.46733  0.03072  0.99007  1.0000
  C   C9        1.0  0.56703  0.06895  0.39694  1.0000
  C   C10       1.0  0.43297  0.93105  0.89694  1.0000
  C   C11       1.0  0.97875  0.66640  0.37707  1.0000
  C   C12       1.0  0.02124  0.33360  0.87707  1.0000
  C   C13       1.0  0.84355  0.64112  0.33041  1.0000
  C   C14       1.0  0.15644  0.35888  0.83040  1.0000
  C   C15       1.0  0.11522  0.00366  0.02876  1.0000
  C   C16       1.0  0.88479  0.99634  0.52876  1.0000
  C   C17       1.0  0.06417  0.00391  0.15161  1.0000
  C   C18       1.0  0.93584  0.99609  0.65161  1.0000
  C   C19       1.0  0.29170  0.60315  0.13655  1.0000
  C   C20       1.0  0.70830  0.39685  0.63655  1.0000
  C   C21       1.0  0.33530  0.74557  0.17218  1.0000
  C   C22       1.0  0.66471  0.25442  0.67218  1.0000
  C   C23       1.0  0.84540  0.67837  0.88095  1.0000
  C   C24       1.0  0.15460  0.32163  0.38095  1.0000
  C   C25       1.0  0.96690  0.65139  0.83419  1.0000
  C   C26       1.0  0.03309  0.34861  0.33419  1.0000
  N   N1        1.0  0.41060  0.86969  0.46162  1.0000
  N   N2        1.0  0.58941  0.13032  0.96162  1.0000
  O   O1        1.0  0.39890  0.53794  0.61156  1.0000
  O   O2        1.0  0.60110  0.46207  0.11155  1.0000
  O   O3        1.0  0.60032  0.72560  0.59835  1.0000
  O   O4        1.0  0.39968  0.27440  0.09835  1.0000
  O   O5        1.0  0.47816  0.63969  0.41744  1.0000
  O   O6        1.0  0.52184  0.36031  0.91744  1.0000
  O   O7        1.0  0.46867  0.13142  0.38190  1.0000
  O   O8        1.0  0.53133  0.86859  0.88190  1.0000
  O   O9        1.0  0.99189  0.68958  0.48238  1.0000
  O   O10       1.0  0.00811  0.31042  0.98238  1.0000
  O   O11       1.0  0.06521  0.66263  0.30857  1.0000
  O   O12       1.0  0.93479  0.33736  0.80857  1.0000
  O   O13       1.0  0.75152  0.61786  0.40003  1.0000
  O   O14       1.0  0.24848  0.38214  0.90003  1.0000
  O   O15       1.0  0.82859  0.64702  0.22466  1.0000
  O   O16       1.0  0.17140  0.35299  0.72466  1.0000
  O   O17       1.0  0.10824  0.89768  0.98284  1.0000
  O   O18       1.0  0.89175  0.10231  0.48284  1.0000
  O   O19       1.0  0.16349  0.11447  0.98500  1.0000
  O   O20       1.0  0.83650  0.88552  0.48500  1.0000
  O   O21       1.0  0.00485  0.89632  0.19326  1.0000
  O   O22       1.0  0.99517  0.10368  0.69325  1.0000
  O   O23       1.0  0.08759  0.11155  0.20072  1.0000
  O   O24       1.0  0.91243  0.88845  0.70072  1.0000
  O   O25       1.0  0.36674  0.53457  0.15148  1.0000
  O   O26       1.0  0.63326  0.46543  0.65149  1.0000
  O   O27       1.0  0.18153  0.55819  0.09616  1.0000
  O   O28       1.0  0.81847  0.44181  0.59616  1.0000
  O   O29       1.0  0.44184  0.78264  0.22097  1.0000
  O   O30       1.0  0.55816  0.21736  0.72097  1.0000
  O   O31       1.0  0.26042  0.81173  0.15052  1.0000
  O   O32       1.0  0.73957  0.18827  0.65052  1.0000
  O   O33       1.0  0.75352  0.66644  0.81353  1.0000
  O   O34       1.0  0.24649  0.33357  0.31353  1.0000
  O   O35       1.0  0.84594  0.70981  0.98415  1.0000
  O   O36       1.0  0.15406  0.29019  0.48414  1.0000
  O   O37       1.0  0.97563  0.64876  0.72755  1.0000
  O   O38       1.0  0.02437  0.35123  0.22754  1.0000
  O   O39       1.0  0.04590  0.63216  0.90420  1.0000
  O   O40       1.0  0.95409  0.36783  0.40420  1.0000
  O   O41       1.0  0.89913  0.46642  0.09386  1.0000
  O   O42       1.0  0.10087  0.53358  0.59386  1.0000
  O   O43       1.0  0.50237  0.40435  0.34318  1.0000
  O   O44       1.0  0.49763  0.59565  0.84318  1.0000
  O   O45       1.0  0.64460  0.76061  0.06863  1.0000
  O   O46       1.0  0.35540  0.23939  0.56863  1.0000
  O   O47       1.0  0.71211  0.85401  0.29155  1.0000
  O   O48       1.0  0.28789  0.14599  0.79155  1.0000
