data_image0
_chemical_formula_structural       CaH10C10N8
_chemical_formula_sum              "Ca1 H10 C10 N8"
_cell_length_a       7.05951
_cell_length_b       7.05951
_cell_length_c       8.82632
_cell_angle_alpha    113.588
_cell_angle_beta     113.589
_cell_angle_gamma    90.0127

_space_group_name_H-M_alt    "P 1"
_space_group_IT_number       1

loop_
  _space_group_symop_operation_xyz
  'x, y, z'

loop_
  _atom_site_type_symbol
  _atom_site_label
  _atom_site_symmetry_multiplicity
  _atom_site_fract_x
  _atom_site_fract_y
  _atom_site_fract_z
  _atom_site_occupancy
  Ca  Ca1       1.0  0.00003  0.00000  0.00000  1.0000
  H   H1        1.0  0.38822  0.38820  0.36178  1.0000
  H   H2        1.0  0.61168  0.02662  0.63828  1.0000
  H   H3        1.0  0.97315  0.97312  0.36162  1.0000
  H   H4        1.0  0.02661  0.61170  0.63828  1.0000
  H   H5        1.0  0.57025  0.57028  0.70785  1.0000
  H   H6        1.0  0.42990  0.86263  0.29223  1.0000
  H   H7        1.0  0.13736  0.13738  0.70771  1.0000
  H   H8        1.0  0.86261  0.42992  0.29221  1.0000
  H   H9        1.0  0.44033  0.44040  0.88092  1.0000
  H   H10       1.0  0.55980  0.55983  0.11908  1.0000
  C   C1        1.0  0.33775  0.33774  0.44394  1.0000
  C   C2        1.0  0.66219  0.89402  0.55611  1.0000
  C   C3        1.0  0.10582  0.10581  0.44383  1.0000
  C   C4        1.0  0.89401  0.66220  0.55611  1.0000
  C   C5        1.0  0.43845  0.43846  0.63547  1.0000
  C   C6        1.0  0.56163  0.80322  0.36459  1.0000
  C   C7        1.0  0.19676  0.19678  0.63535  1.0000
  C   C8        1.0  0.80321  0.56165  0.36459  1.0000
  C   C9        1.0  0.36572  0.36575  0.73164  1.0000
  C   C10       1.0  0.63437  0.63439  0.26836  1.0000
  N   N1        1.0  0.33319  0.00015  0.00022  1.0000
  N   N2        1.0  0.00019  0.33318  0.00027  1.0000
  N   N3        1.0  0.66689  0.99992  0.99979  1.0000
  N   N4        1.0  0.99998  0.66683  0.99973  1.0000
  N   N5        1.0  0.50006  0.00003  0.00001  1.0000
  N   N6        1.0  0.00009  0.50001  0.00000  1.0000
  N   N7        1.0  0.17434  0.17431  0.34899  1.0000
  N   N8        1.0  0.82553  0.82554  0.65102  1.0000
