data_image0
_chemical_formula_structural       Zn4H28C40N12O20
_chemical_formula_sum              "Zn4 H28 C40 N12 O20"
_cell_length_a       7.49507
_cell_length_b       11.4486
_cell_length_c       12.8858
_cell_angle_alpha    90
_cell_angle_beta     105.592
_cell_angle_gamma    90

_space_group_name_H-M_alt    "P 1"
_space_group_IT_number       1

loop_
  _space_group_symop_operation_xyz
  'x, y, z'

loop_
  _atom_site_type_symbol
  _atom_site_label
  _atom_site_symmetry_multiplicity
  _atom_site_fract_x
  _atom_site_fract_y
  _atom_site_fract_z
  _atom_site_occupancy
  Zn  Zn1       1.0  0.63305  0.72404  0.31660  1.0000
  Zn  Zn2       1.0  0.86695  0.22404  0.18340  1.0000
  Zn  Zn3       1.0  0.36695  0.27596  0.68340  1.0000
  Zn  Zn4       1.0  0.13305  0.77596  0.81659  1.0000
  H   H1        1.0  0.21038  0.93900  0.46604  1.0000
  H   H2        1.0  0.28962  0.43900  0.03396  1.0000
  H   H3        1.0  0.78962  0.06100  0.53396  1.0000
  H   H4        1.0  0.71038  0.56100  0.96604  1.0000
  H   H5        1.0  0.47376  0.69449  0.56199  1.0000
  H   H6        1.0  0.02624  0.19449  0.93801  1.0000
  H   H7        1.0  0.52624  0.30551  0.43801  1.0000
  H   H8        1.0  0.97376  0.80551  0.06199  1.0000
  H   H9        1.0  0.97175  0.48656  0.67337  1.0000
  H   H10       1.0  0.52825  0.98656  0.82663  1.0000
  H   H11       1.0  0.02826  0.51344  0.32663  1.0000
  H   H12       1.0  0.47175  0.01344  0.17337  1.0000
  H   H13       1.0  0.77624  0.32735  0.71192  1.0000
  H   H14       1.0  0.72376  0.82735  0.78808  1.0000
  H   H15       1.0  0.22376  0.67265  0.28808  1.0000
  H   H16       1.0  0.27624  0.17265  0.21192  1.0000
  H   H17       1.0  0.29907  0.52669  0.61189  1.0000
  H   H18       1.0  0.20093  0.02669  0.88810  1.0000
  H   H19       1.0  0.70093  0.47331  0.38810  1.0000
  H   H20       1.0  0.79907  0.97331  0.11189  1.0000
  H   H21       1.0  0.56102  0.93141  0.39014  1.0000
  H   H22       1.0  0.93898  0.43141  0.10986  1.0000
  H   H23       1.0  0.43898  0.06859  0.60986  1.0000
  H   H24       1.0  0.06102  0.56859  0.89014  1.0000
  H   H25       1.0  0.35899  0.87739  0.34918  1.0000
  H   H26       1.0  0.14101  0.37739  0.15082  1.0000
  H   H27       1.0  0.64102  0.12261  0.65082  1.0000
  H   H28       1.0  0.85898  0.62261  0.84918  1.0000
  C   C1        1.0  0.98362  0.86118  0.37987  1.0000
  C   C2        1.0  0.51637  0.36118  0.12013  1.0000
  C   C3        1.0  0.01637  0.13882  0.62013  1.0000
  C   C4        1.0  0.48362  0.63882  0.87987  1.0000
  C   C5        1.0  0.96985  0.80615  0.47967  1.0000
  C   C6        1.0  0.53014  0.30616  0.02033  1.0000
  C   C7        1.0  0.03014  0.19384  0.52033  1.0000
  C   C8        1.0  0.46986  0.69385  0.97967  1.0000
  C   C9        1.0  0.85027  0.69477  0.57894  1.0000
  C   C10       1.0  0.64973  0.19477  0.92106  1.0000
  C   C11       1.0  0.14973  0.30523  0.42106  1.0000
  C   C12       1.0  0.35027  0.80523  0.07894  1.0000
  C   C13       1.0  0.73688  0.60335  0.61070  1.0000
  C   C14       1.0  0.76312  0.10335  0.88930  1.0000
  C   C15       1.0  0.26312  0.39665  0.38930  1.0000
  C   C16       1.0  0.23688  0.89665  0.11070  1.0000
  C   C17       1.0  0.54559  0.61444  0.59488  1.0000
  C   C18       1.0  0.95441  0.11444  0.90512  1.0000
  C   C19       1.0  0.45442  0.38556  0.40512  1.0000
  C   C20       1.0  0.04559  0.88556  0.09488  1.0000
  C   C21       1.0  0.82249  0.49929  0.65593  1.0000
  C   C22       1.0  0.67751  0.99930  0.84407  1.0000
  C   C23       1.0  0.17751  0.50070  0.34407  1.0000
  C   C24       1.0  0.32249  0.00071  0.15593  1.0000
  C   C25       1.0  0.07490  0.81658  0.58680  1.0000
  C   C26       1.0  0.42510  0.31658  0.91320  1.0000
  C   C27       1.0  0.92510  0.18342  0.41320  1.0000
  C   C28       1.0  0.57490  0.68342  0.08680  1.0000
  C   C29       1.0  0.23337  0.89203  0.63804  1.0000
  C   C30       1.0  0.26663  0.39203  0.86196  1.0000
  C   C31       1.0  0.76663  0.10797  0.36196  1.0000
  C   C32       1.0  0.73338  0.60797  0.13804  1.0000
  C   C33       1.0  0.71358  0.40993  0.67847  1.0000
  C   C34       1.0  0.78642  0.90993  0.82153  1.0000
  C   C35       1.0  0.28642  0.59007  0.32154  1.0000
  C   C36       1.0  0.21358  0.09007  0.17847  1.0000
  C   C37       1.0  0.44749  0.52089  0.62143  1.0000
  C   C38       1.0  0.05251  0.02089  0.87858  1.0000
  C   C39       1.0  0.55251  0.47910  0.37857  1.0000
  C   C40       1.0  0.94749  0.97910  0.12143  1.0000
  N   N1        1.0  0.82740  0.72975  0.47568  1.0000
  N   N2        1.0  0.67259  0.22975  0.02432  1.0000
  N   N3        1.0  0.17260  0.27025  0.52432  1.0000
  N   N4        1.0  0.32741  0.77025  0.97568  1.0000
  N   N5        1.0  0.99857  0.74567  0.64865  1.0000
  N   N6        1.0  0.50143  0.24567  0.85135  1.0000
  N   N7        1.0  0.00143  0.25433  0.35135  1.0000
  N   N8        1.0  0.49857  0.75433  0.14865  1.0000
  N   N9        1.0  0.52861  0.41919  0.65987  1.0000
  N   N10       1.0  0.97139  0.91919  0.84013  1.0000
  N   N11       1.0  0.47139  0.58081  0.34013  1.0000
  N   N12       1.0  0.02861  0.08081  0.15987  1.0000
  O   O1        1.0  0.13014  0.92766  0.38334  1.0000
  O   O2        1.0  0.36986  0.42766  0.11666  1.0000
  O   O3        1.0  0.86986  0.07234  0.61666  1.0000
  O   O4        1.0  0.63014  0.57234  0.88334  1.0000
  O   O5        1.0  0.86074  0.84496  0.29453  1.0000
  O   O6        1.0  0.63925  0.34497  0.20547  1.0000
  O   O7        1.0  0.13926  0.15503  0.70547  1.0000
  O   O8        1.0  0.36074  0.65503  0.79453  1.0000
  O   O9        1.0  0.28932  0.89396  0.73941  1.0000
  O   O10       1.0  0.21068  0.39396  0.76059  1.0000
  O   O11       1.0  0.71067  0.10604  0.26059  1.0000
  O   O12       1.0  0.78932  0.60604  0.23941  1.0000
  O   O13       1.0  0.30502  0.95337  0.57502  1.0000
  O   O14       1.0  0.19498  0.45338  0.92498  1.0000
  O   O15       1.0  0.69498  0.04662  0.42498  1.0000
  O   O16       1.0  0.80503  0.54663  0.07502  1.0000
  O   O17       1.0  0.48950  0.85608  0.37740  1.0000
  O   O18       1.0  0.01051  0.35608  0.12260  1.0000
  O   O19       1.0  0.51051  0.14392  0.62260  1.0000
  O   O20       1.0  0.98949  0.64392  0.87740  1.0000
