data_image0
_chemical_formula_structural       Dy2H12C18O14
_chemical_formula_sum              "Dy2 H12 C18 O14"
_cell_length_a       7.04605
_cell_length_b       7.59835
_cell_length_c       10.2365
_cell_angle_alpha    75.7939
_cell_angle_beta     71.4202
_cell_angle_gamma    88.383

_space_group_name_H-M_alt    "P 1"
_space_group_IT_number       1

loop_
  _space_group_symop_operation_xyz
  'x, y, z'

loop_
  _atom_site_type_symbol
  _atom_site_label
  _atom_site_symmetry_multiplicity
  _atom_site_fract_x
  _atom_site_fract_y
  _atom_site_fract_z
  _atom_site_occupancy
  Dy  Dy1       1.0  0.31132  0.21547  0.01691  1.0000
  Dy  Dy2       1.0  0.68868  0.78453  0.98309  1.0000
  H   H1        1.0  0.17588  0.13424  0.59894  1.0000
  H   H2        1.0  0.82412  0.86576  0.40106  1.0000
  H   H3        1.0  0.71346  0.88688  0.65160  1.0000
  H   H4        1.0  0.28654  0.11312  0.34840  1.0000
  H   H5        1.0  0.69428  0.29340  0.58995  1.0000
  H   H6        1.0  0.30572  0.70660  0.41005  1.0000
  H   H7        1.0  0.05930  0.69487  0.64858  1.0000
  H   H8        1.0  0.94070  0.30513  0.35142  1.0000
  H   H9        1.0  0.99966  0.91329  0.16791  1.0000
  H   H10       1.0  0.00034  0.08671  0.83209  1.0000
  H   H11       1.0  0.21842  0.84046  0.16720  1.0000
  H   H12       1.0  0.78158  0.15954  0.83280  1.0000
  C   C1        1.0  0.37557  0.03290  0.79004  1.0000
  C   C2        1.0  0.62443  0.96710  0.20996  1.0000
  C   C3        1.0  0.43699  0.01042  0.64215  1.0000
  C   C4        1.0  0.56301  0.98958  0.35786  1.0000
  C   C5        1.0  0.31750  0.07512  0.55572  1.0000
  C   C6        1.0  0.68249  0.92488  0.44428  1.0000
  C   C7        1.0  0.62023  0.93597  0.58512  1.0000
  C   C8        1.0  0.37977  0.06403  0.41489  1.0000
  C   C9        1.0  0.71469  0.48241  0.77831  1.0000
  C   C10       1.0  0.28531  0.51759  0.22169  1.0000
  C   C11       1.0  0.86134  0.49299  0.63394  1.0000
  C   C12       1.0  0.13866  0.50701  0.36606  1.0000
  C   C13       1.0  0.82909  0.38280  0.55046  1.0000
  C   C14       1.0  0.17092  0.61721  0.44954  1.0000
  C   C15       1.0  0.03310  0.61089  0.58287  1.0000
  C   C16       1.0  0.96690  0.38911  0.41713  1.0000
  C   C17       1.0  0.91815  0.43287  0.05950  1.0000
  C   C18       1.0  0.08185  0.56713  0.94050  1.0000
  O   O1        1.0  0.47079  0.96239  0.87588  1.0000
  O   O2        1.0  0.52921  0.03761  0.12412  1.0000
  O   O3        1.0  0.23341  0.13786  0.82840  1.0000
  O   O4        1.0  0.76659  0.86214  0.17160  1.0000
  O   O5        1.0  0.62008  0.32869  0.84767  1.0000
  O   O6        1.0  0.37992  0.67131  0.15233  1.0000
  O   O7        1.0  0.69397  0.62204  0.82634  1.0000
  O   O8        1.0  0.30602  0.37796  0.17366  1.0000
  O   O9        1.0  0.96925  0.27200  0.09872  1.0000
  O   O10       1.0  0.03074  0.72801  0.90128  1.0000
  O   O11       1.0  0.74900  0.49499  0.10725  1.0000
  O   O12       1.0  0.25100  0.50501  0.89274  1.0000
  O   O13       1.0  0.13656  0.94929  0.16386  1.0000
  O   O14       1.0  0.86344  0.05071  0.83614  1.0000
