data_image0
_chemical_formula_structural       Co2H20C20N8O8
_chemical_formula_sum              "Co2 H20 C20 N8 O8"
_cell_length_a       5.0266
_cell_length_b       8.22583
_cell_length_c       12.1182
_cell_angle_alpha    92.2307
_cell_angle_beta     90.0002
_cell_angle_gamma    89.9997

_space_group_name_H-M_alt    "P 1"
_space_group_IT_number       1

loop_
  _space_group_symop_operation_xyz
  'x, y, z'

loop_
  _atom_site_type_symbol
  _atom_site_label
  _atom_site_symmetry_multiplicity
  _atom_site_fract_x
  _atom_site_fract_y
  _atom_site_fract_z
  _atom_site_occupancy
  Co  Co1       1.0  0.50000  0.99999  1.00000  1.0000
  Co  Co2       1.0  0.00000  0.50000  0.50000  1.0000
  H   H1        1.0  0.27851  0.73363  0.31635  1.0000
  H   H2        1.0  0.77850  0.76637  0.18365  1.0000
  H   H3        1.0  0.72150  0.26637  0.68365  1.0000
  H   H4        1.0  0.22150  0.23363  0.81634  1.0000
  H   H5        1.0  0.57032  0.79824  0.49742  1.0000
  H   H6        1.0  0.07030  0.70175  0.00258  1.0000
  H   H7        1.0  0.42970  0.20176  0.50259  1.0000
  H   H8        1.0  0.92968  0.29824  0.99743  1.0000
  H   H9        1.0  0.69558  0.08936  0.39291  1.0000
  H   H10       1.0  0.19557  0.41064  0.10709  1.0000
  H   H11       1.0  0.30442  0.91064  0.60708  1.0000
  H   H12       1.0  0.80442  0.58936  0.89293  1.0000
  H   H13       1.0  0.35908  0.01512  0.24875  1.0000
  H   H14       1.0  0.85907  0.48488  0.25125  1.0000
  H   H15       1.0  0.64092  0.98488  0.75124  1.0000
  H   H16       1.0  0.14093  0.51513  0.74876  1.0000
  H   H17       1.0  0.15694  0.17590  0.30416  1.0000
  H   H18       1.0  0.65695  0.32410  0.19583  1.0000
  H   H19       1.0  0.84306  0.82410  0.69582  1.0000
  H   H20       1.0  0.34307  0.67591  0.80417  1.0000
  C   C1        1.0  0.10077  0.78770  0.35207  1.0000
  C   C2        1.0  0.60077  0.71230  0.14793  1.0000
  C   C3        1.0  0.89923  0.21230  0.64793  1.0000
  C   C4        1.0  0.39923  0.28771  0.85207  1.0000
  C   C5        1.0  0.73534  0.83002  0.44511  1.0000
  C   C6        1.0  0.23534  0.66998  0.05489  1.0000
  C   C7        1.0  0.26466  0.16998  0.55489  1.0000
  C   C8        1.0  0.76465  0.33002  0.94511  1.0000
  C   C9        1.0  0.78959  0.97099  0.39214  1.0000
  C   C10       1.0  0.28958  0.52901  0.10786  1.0000
  C   C11       1.0  0.21041  0.02901  0.60785  1.0000
  C   C12       1.0  0.71041  0.47099  0.89215  1.0000
  C   C13       1.0  0.01757  0.07441  0.14994  1.0000
  C   C14       1.0  0.51757  0.42558  0.35006  1.0000
  C   C15       1.0  0.98243  0.92558  0.85005  1.0000
  C   C16       1.0  0.48244  0.57442  0.64995  1.0000
  C   C17       1.0  0.15298  0.05461  0.26225  1.0000
  C   C18       1.0  0.65298  0.44539  0.23775  1.0000
  C   C19       1.0  0.84702  0.94539  0.73774  1.0000
  C   C20       1.0  0.34703  0.55462  0.76226  1.0000
  N   N1        1.0  0.93166  0.71649  0.42002  1.0000
  N   N2        1.0  0.43165  0.78351  0.07998  1.0000
  N   N3        1.0  0.06836  0.28352  0.57998  1.0000
  N   N4        1.0  0.56835  0.21649  0.92002  1.0000
  N   N5        1.0  0.02121  0.94215  0.33358  1.0000
  N   N6        1.0  0.52120  0.55785  0.16642  1.0000
  N   N7        1.0  0.97879  0.05785  0.66641  1.0000
  N   N8        1.0  0.47880  0.44215  0.83359  1.0000
  O   O1        1.0  0.16929  0.11813  0.07226  1.0000
  O   O2        1.0  0.66929  0.38187  0.42774  1.0000
  O   O3        1.0  0.83071  0.88186  0.92773  1.0000
  O   O4        1.0  0.33071  0.61814  0.57227  1.0000
  O   O5        1.0  0.76757  0.05721  0.14377  1.0000
  O   O6        1.0  0.26758  0.44278  0.35623  1.0000
  O   O7        1.0  0.23242  0.94278  0.85622  1.0000
  O   O8        1.0  0.73243  0.55722  0.64377  1.0000
