data_image0
_chemical_formula_structural       H14PbC12Br2N2
_chemical_formula_sum              "H14 Pb1 C12 Br2 N2"
_cell_length_a       4.27652
_cell_length_b       9.5457
_cell_length_c       10.1242
_cell_angle_alpha    64.3261
_cell_angle_beta     88.6809
_cell_angle_gamma    89.737

_space_group_name_H-M_alt    "P 1"
_space_group_IT_number       1

loop_
  _space_group_symop_operation_xyz
  'x, y, z'

loop_
  _atom_site_type_symbol
  _atom_site_label
  _atom_site_symmetry_multiplicity
  _atom_site_fract_x
  _atom_site_fract_y
  _atom_site_fract_z
  _atom_site_occupancy
  H   H1        1.0  0.69639  0.70847  0.31759  1.0000
  H   H2        1.0  0.30362  0.29153  0.68241  1.0000
  H   H3        1.0  0.66767  0.42099  0.47590  1.0000
  H   H4        1.0  0.33234  0.57901  0.52410  1.0000
  H   H5        1.0  0.25905  0.35771  0.15640  1.0000
  H   H6        1.0  0.74096  0.64228  0.84360  1.0000
  H   H7        1.0  0.27093  0.64832  0.01223  1.0000
  H   H8        1.0  0.72907  0.35167  0.98777  1.0000
  H   H9        1.0  0.11759  0.13286  0.38060  1.0000
  H   H10       1.0  0.88240  0.86713  0.61940  1.0000
  H   H11       1.0  0.98196  0.16163  0.53576  1.0000
  H   H12       1.0  0.01803  0.83837  0.46424  1.0000
  H   H13       1.0  0.71317  0.14809  0.41180  1.0000
  H   H14       1.0  0.28681  0.85191  0.58821  1.0000
  Pb  Pb1       1.0  0.00004  0.00001  0.99998  1.0000
  C   C1        1.0  0.81910  0.62611  0.28644  1.0000
  C   C2        1.0  0.18089  0.37390  0.71354  1.0000
  C   C3        1.0  0.80253  0.46682  0.37319  1.0000
  C   C4        1.0  0.19747  0.53317  0.62682  1.0000
  C   C5        1.0  0.96094  0.36494  0.32881  1.0000
  C   C6        1.0  0.03907  0.63506  0.67119  1.0000
  C   C7        1.0  0.13115  0.43181  0.19592  1.0000
  C   C8        1.0  0.86885  0.56819  0.80408  1.0000
  C   C9        1.0  0.13788  0.59267  0.11561  1.0000
  C   C10       1.0  0.86212  0.40733  0.88438  1.0000
  C   C11       1.0  0.94559  0.19299  0.41924  1.0000
  C   C12       1.0  0.05440  0.80702  0.58076  1.0000
  Br  Br1       1.0  0.49098  0.03250  0.19704  1.0000
  Br  Br2       1.0  0.50900  0.96751  0.80296  1.0000
  N   N1        1.0  0.98490  0.68901  0.15945  1.0000
  N   N2        1.0  0.01512  0.31099  0.84055  1.0000
