data_image0
_chemical_formula_structural       H28Pb2C24Br4N4
_chemical_formula_sum              "H28 Pb2 C24 Br4 N4"
_cell_length_a       7.98414
_cell_length_b       9.88215
_cell_length_c       9.8821
_cell_angle_alpha    86.9578
_cell_angle_beta     87.1547
_cell_angle_gamma    87.1541

_space_group_name_H-M_alt    "P 1"
_space_group_IT_number       1

loop_
  _space_group_symop_operation_xyz
  'x, y, z'

loop_
  _atom_site_type_symbol
  _atom_site_label
  _atom_site_symmetry_multiplicity
  _atom_site_fract_x
  _atom_site_fract_y
  _atom_site_fract_z
  _atom_site_occupancy
  H   H1        1.0  0.62372  0.13622  0.75178  1.0000
  H   H2        1.0  0.87628  0.24823  0.86378  1.0000
  H   H3        1.0  0.37628  0.86378  0.24823  1.0000
  H   H4        1.0  0.12372  0.75177  0.13622  1.0000
  H   H5        1.0  0.55129  0.22929  0.32629  1.0000
  H   H6        1.0  0.94871  0.67371  0.77069  1.0000
  H   H7        1.0  0.44871  0.77070  0.67371  1.0000
  H   H8        1.0  0.05128  0.32629  0.22929  1.0000
  H   H9        1.0  0.24758  0.18681  0.37185  1.0000
  H   H10       1.0  0.25241  0.62816  0.81318  1.0000
  H   H11       1.0  0.75241  0.81319  0.62816  1.0000
  H   H12       1.0  0.74758  0.37185  0.18680  1.0000
  H   H13       1.0  0.14518  0.12364  0.60992  1.0000
  H   H14       1.0  0.35482  0.39009  0.87636  1.0000
  H   H15       1.0  0.85482  0.87636  0.39009  1.0000
  H   H16       1.0  0.64518  0.60992  0.12364  1.0000
  H   H17       1.0  0.86345  0.19344  0.60819  1.0000
  H   H18       1.0  0.63655  0.39181  0.80655  1.0000
  H   H19       1.0  0.13655  0.80656  0.39181  1.0000
  H   H20       1.0  0.36345  0.60819  0.19344  1.0000
  H   H21       1.0  0.85532  0.15142  0.43578  1.0000
  H   H22       1.0  0.64467  0.56422  0.84857  1.0000
  H   H23       1.0  0.14467  0.84857  0.56421  1.0000
  H   H24       1.0  0.35532  0.43578  0.15142  1.0000
  H   H25       1.0  0.81534  0.32126  0.47998  1.0000
  H   H26       1.0  0.68465  0.52003  0.67873  1.0000
  H   H27       1.0  0.18466  0.67873  0.52002  1.0000
  H   H28       1.0  0.31534  0.47997  0.32127  1.0000
  Pb  Pb1       1.0  0.25000  0.06923  0.93079  1.0000
  Pb  Pb2       1.0  0.75000  0.93078  0.06923  1.0000
  C   C1        1.0  0.54423  0.15117  0.66478  1.0000
  C   C2        1.0  0.95576  0.33524  0.84882  1.0000
  C   C3        1.0  0.45577  0.84882  0.33523  1.0000
  C   C4        1.0  0.04423  0.66477  0.15117  1.0000
  C   C5        1.0  0.61341  0.18995  0.53647  1.0000
  C   C6        1.0  0.88659  0.46354  0.81004  1.0000
  C   C7        1.0  0.38659  0.81005  0.46354  1.0000
  C   C8        1.0  0.11341  0.53646  0.18995  1.0000
  C   C9        1.0  0.50397  0.20317  0.42948  1.0000
  C   C10       1.0  0.99603  0.57053  0.79681  1.0000
  C   C11       1.0  0.49603  0.79682  0.57053  1.0000
  C   C12       1.0  0.00397  0.42948  0.20317  1.0000
  C   C13       1.0  0.33431  0.18000  0.45395  1.0000
  C   C14       1.0  0.16570  0.54605  0.81999  1.0000
  C   C15       1.0  0.66569  0.82000  0.54606  1.0000
  C   C16       1.0  0.83430  0.45395  0.18000  1.0000
  C   C17       1.0  0.27669  0.14381  0.58546  1.0000
  C   C18       1.0  0.22332  0.41455  0.85619  1.0000
  C   C19       1.0  0.72331  0.85619  0.41455  1.0000
  C   C20       1.0  0.77668  0.58546  0.14381  1.0000
  C   C21       1.0  0.79662  0.21523  0.51470  1.0000
  C   C22       1.0  0.70337  0.48530  0.78476  1.0000
  C   C23       1.0  0.20338  0.78476  0.48530  1.0000
  C   C24       1.0  0.29662  0.51470  0.21523  1.0000
  Br  Br1       1.0  0.96165  0.95430  0.79528  1.0000
  Br  Br2       1.0  0.53838  0.20474  0.04568  1.0000
  Br  Br3       1.0  0.03838  0.04567  0.20475  1.0000
  Br  Br4       1.0  0.46162  0.79527  0.95432  1.0000
  N   N1        1.0  0.38039  0.12916  0.68883  1.0000
  N   N2        1.0  0.11961  0.31119  0.87083  1.0000
  N   N3        1.0  0.61961  0.87083  0.31118  1.0000
  N   N4        1.0  0.88039  0.68882  0.12917  1.0000
