data_image0
_chemical_formula_structural       H28Pb2C24N4Cl4
_chemical_formula_sum              "H28 Pb2 C24 N4 Cl4"
_cell_length_a       7.92751
_cell_length_b       9.62833
_cell_length_c       9.6282
_cell_angle_alpha    86.7576
_cell_angle_beta     88.1305
_cell_angle_gamma    88.1278

_space_group_name_H-M_alt    "P 1"
_space_group_IT_number       1

loop_
  _space_group_symop_operation_xyz
  'x, y, z'

loop_
  _atom_site_type_symbol
  _atom_site_label
  _atom_site_symmetry_multiplicity
  _atom_site_fract_x
  _atom_site_fract_y
  _atom_site_fract_z
  _atom_site_occupancy
  H   H1        1.0  0.62376  0.13462  0.75557  1.0000
  H   H2        1.0  0.87625  0.24443  0.86537  1.0000
  H   H3        1.0  0.37624  0.86538  0.24445  1.0000
  H   H4        1.0  0.12377  0.75557  0.13464  1.0000
  H   H5        1.0  0.54305  0.22931  0.31889  1.0000
  H   H6        1.0  0.95693  0.68112  0.77070  1.0000
  H   H7        1.0  0.45694  0.77070  0.68112  1.0000
  H   H8        1.0  0.04305  0.31889  0.22931  1.0000
  H   H9        1.0  0.23824  0.18225  0.36602  1.0000
  H   H10       1.0  0.26176  0.63400  0.81773  1.0000
  H   H11       1.0  0.76175  0.81776  0.63400  1.0000
  H   H12       1.0  0.73825  0.36601  0.18224  1.0000
  H   H13       1.0  0.13903  0.11889  0.61061  1.0000
  H   H14       1.0  0.36097  0.38939  0.88106  1.0000
  H   H15       1.0  0.86097  0.88111  0.38940  1.0000
  H   H16       1.0  0.63906  0.61062  0.11889  1.0000
  H   H17       1.0  0.86300  0.19017  0.60834  1.0000
  H   H18       1.0  0.63701  0.39165  0.80985  1.0000
  H   H19       1.0  0.13700  0.80983  0.39167  1.0000
  H   H20       1.0  0.36302  0.60833  0.19016  1.0000
  H   H21       1.0  0.85022  0.15389  0.42973  1.0000
  H   H22       1.0  0.64977  0.57025  0.84612  1.0000
  H   H23       1.0  0.14978  0.84611  0.57028  1.0000
  H   H24       1.0  0.35024  0.42972  0.15388  1.0000
  H   H25       1.0  0.81513  0.32613  0.48095  1.0000
  H   H26       1.0  0.68483  0.51904  0.67388  1.0000
  H   H27       1.0  0.18486  0.67387  0.51906  1.0000
  H   H28       1.0  0.31515  0.48095  0.32612  1.0000
  Pb  Pb1       1.0  0.24999  0.06199  0.93799  1.0000
  Pb  Pb2       1.0  0.75000  0.93801  0.06200  1.0000
  C   C1        1.0  0.54213  0.14976  0.66641  1.0000
  C   C2        1.0  0.95787  0.33360  0.85021  1.0000
  C   C3        1.0  0.45786  0.85023  0.33360  1.0000
  C   C4        1.0  0.04214  0.66641  0.14978  1.0000
  C   C5        1.0  0.60975  0.19015  0.53472  1.0000
  C   C6        1.0  0.89025  0.46527  0.80986  1.0000
  C   C7        1.0  0.39026  0.80986  0.46529  1.0000
  C   C8        1.0  0.10976  0.53472  0.19015  1.0000
  C   C9        1.0  0.49741  0.20292  0.42500  1.0000
  C   C10       1.0  0.00257  0.57501  0.79709  1.0000
  C   C11       1.0  0.50260  0.79708  0.57501  1.0000
  C   C12       1.0  0.99742  0.42500  0.20291  1.0000
  C   C13       1.0  0.32689  0.17762  0.45039  1.0000
  C   C14       1.0  0.17309  0.54961  0.82234  1.0000
  C   C15       1.0  0.67311  0.82238  0.54961  1.0000
  C   C16       1.0  0.82690  0.45040  0.17762  1.0000
  C   C17       1.0  0.27107  0.14062  0.58547  1.0000
  C   C18       1.0  0.22892  0.41455  0.85935  1.0000
  C   C19       1.0  0.72893  0.85938  0.41455  1.0000
  C   C20       1.0  0.77108  0.58546  0.14063  1.0000
  C   C21       1.0  0.79446  0.21633  0.51285  1.0000
  C   C22       1.0  0.70553  0.48714  0.78367  1.0000
  C   C23       1.0  0.20554  0.78367  0.48716  1.0000
  C   C24       1.0  0.29446  0.51284  0.21632  1.0000
  N   N1        1.0  0.37749  0.12634  0.69150  1.0000
  N   N2        1.0  0.12252  0.30850  0.87363  1.0000
  N   N3        1.0  0.62251  0.87366  0.30851  1.0000
  N   N4        1.0  0.87750  0.69150  0.12635  1.0000
  Cl  Cl1       1.0  0.96893  0.95698  0.79907  1.0000
  Cl  Cl2       1.0  0.53104  0.20092  0.04302  1.0000
  Cl  Cl3       1.0  0.03104  0.04303  0.20092  1.0000
  Cl  Cl4       1.0  0.46894  0.79906  0.95698  1.0000
