data_image0
_chemical_formula_structural       H14PbC12I2N2
_chemical_formula_sum              "H14 Pb1 C12 I2 N2"
_cell_length_a       4.42972
_cell_length_b       9.54251
_cell_length_c       10.4735
_cell_angle_alpha    115.469
_cell_angle_beta     89.9063
_cell_angle_gamma    94.3267

_space_group_name_H-M_alt    "P 1"
_space_group_IT_number       1

loop_
  _space_group_symop_operation_xyz
  'x, y, z'

loop_
  _atom_site_type_symbol
  _atom_site_label
  _atom_site_symmetry_multiplicity
  _atom_site_fract_x
  _atom_site_fract_y
  _atom_site_fract_z
  _atom_site_occupancy
  H   H1        1.0  0.23921  0.65234  0.98513  1.0000
  H   H2        1.0  0.76059  0.34770  0.01491  1.0000
  H   H3        1.0  0.25721  0.36616  0.83365  1.0000
  H   H4        1.0  0.74284  0.63389  0.16638  1.0000
  H   H5        1.0  0.68679  0.41709  0.52579  1.0000
  H   H6        1.0  0.31331  0.58288  0.47418  1.0000
  H   H7        1.0  0.68749  0.70041  0.69056  1.0000
  H   H8        1.0  0.31230  0.29954  0.30945  1.0000
  H   H9        1.0  0.10709  0.18204  0.47309  1.0000
  H   H10       1.0  0.89271  0.81793  0.52686  1.0000
  H   H11       1.0  0.09831  0.13751  0.62167  1.0000
  H   H12       1.0  0.90194  0.86253  0.37832  1.0000
  H   H13       1.0  0.75659  0.14112  0.53385  1.0000
  H   H14       1.0  0.24343  0.85888  0.46629  1.0000
  Pb  Pb1       1.0  0.00016  0.99998  0.99993  1.0000
  C   C1        1.0  0.11814  0.59514  0.88248  1.0000
  C   C2        1.0  0.88172  0.40488  0.11754  1.0000
  C   C3        1.0  0.12820  0.43642  0.79782  1.0000
  C   C4        1.0  0.87179  0.56362  0.20220  1.0000
  C   C5        1.0  0.97440  0.36716  0.66576  1.0000
  C   C6        1.0  0.02565  0.63285  0.33425  1.0000
  C   C7        1.0  0.81196  0.46448  0.62712  1.0000
  C   C8        1.0  0.18806  0.53550  0.37287  1.0000
  C   C9        1.0  0.81255  0.62190  0.71780  1.0000
  C   C10       1.0  0.18732  0.37808  0.28220  1.0000
  C   C11       1.0  0.98533  0.19819  0.56958  1.0000
  C   C12       1.0  0.01474  0.80181  0.43044  1.0000
  I   I1        1.0  0.50762  0.03302  0.79217  1.0000
  I   I2        1.0  0.49276  0.96696  0.20768  1.0000
  N   N1        1.0  0.96414  0.68761  0.84373  1.0000
  N   N2        1.0  0.03565  0.31238  0.15629  1.0000
