data_image0
_chemical_formula_structural       Cu2H24C28N8O10
_chemical_formula_sum              "Cu2 H24 C28 N8 O10"
_cell_length_a       7.83005
_cell_length_b       8.09329
_cell_length_c       12.0722
_cell_angle_alpha    102.747
_cell_angle_beta     106.126
_cell_angle_gamma    94.002

_space_group_name_H-M_alt    "P 1"
_space_group_IT_number       1

loop_
  _space_group_symop_operation_xyz
  'x, y, z'

loop_
  _atom_site_type_symbol
  _atom_site_label
  _atom_site_symmetry_multiplicity
  _atom_site_fract_x
  _atom_site_fract_y
  _atom_site_fract_z
  _atom_site_occupancy
  Cu  Cu1       1.0  0.36640  0.33294  0.47112  1.0000
  Cu  Cu2       1.0  0.63360  0.66706  0.52888  1.0000
  H   H1        1.0  0.41096  0.79497  0.31957  1.0000
  H   H2        1.0  0.58903  0.20503  0.68043  1.0000
  H   H3        1.0  0.38227  0.50537  0.18951  1.0000
  H   H4        1.0  0.61773  0.49463  0.81049  1.0000
  H   H5        1.0  0.11201  0.68802  0.88470  1.0000
  H   H6        1.0  0.88799  0.31198  0.11530  1.0000
  H   H7        1.0  0.13006  0.96981  0.01738  1.0000
  H   H8        1.0  0.86994  0.03019  0.98262  1.0000
  H   H9        1.0  0.43294  0.29845  0.06531  1.0000
  H   H10       1.0  0.56706  0.70155  0.93469  1.0000
  H   H11       1.0  0.40149  0.02284  0.91447  1.0000
  H   H12       1.0  0.59851  0.97716  0.08553  1.0000
  H   H13       1.0  0.18172  0.97422  0.71030  1.0000
  H   H14       1.0  0.81829  0.02578  0.28970  1.0000
  H   H15       1.0  0.02885  0.45348  0.79410  1.0000
  H   H16       1.0  0.97115  0.54652  0.20590  1.0000
  H   H17       1.0  0.87558  0.27525  0.63567  1.0000
  H   H18       1.0  0.12442  0.72475  0.36433  1.0000
  H   H19       1.0  0.90771  0.05632  0.60093  1.0000
  H   H20       1.0  0.09229  0.94368  0.39907  1.0000
  H   H21       1.0  0.15617  0.34572  0.27633  1.0000
  H   H22       1.0  0.84383  0.65428  0.72367  1.0000
  H   H23       1.0  0.03828  0.36234  0.36379  1.0000
  H   H24       1.0  0.96172  0.63766  0.63621  1.0000
  C   C1        1.0  0.27796  0.07884  0.25031  1.0000
  C   C2        1.0  0.72205  0.92116  0.74969  1.0000
  C   C3        1.0  0.27129  0.90135  0.17659  1.0000
  C   C4        1.0  0.72871  0.09865  0.82341  1.0000
  C   C5        1.0  0.34344  0.76944  0.22432  1.0000
  C   C6        1.0  0.65656  0.23056  0.77568  1.0000
  C   C7        1.0  0.32949  0.60705  0.15030  1.0000
  C   C8        1.0  0.67051  0.39295  0.84970  1.0000
  C   C9        1.0  0.24635  0.57329  0.02659  1.0000
  C   C10       1.0  0.75365  0.42671  0.97340  1.0000
  C   C11       1.0  0.17494  0.70697  0.97981  1.0000
  C   C12       1.0  0.82506  0.29303  0.02019  1.0000
  C   C13       1.0  0.18627  0.86728  0.05383  1.0000
  C   C14       1.0  0.81373  0.13272  0.94617  1.0000
  C   C15       1.0  0.23388  0.40369  0.94541  1.0000
  C   C16       1.0  0.76612  0.59631  0.05459  1.0000
  C   C17       1.0  0.33775  0.27664  0.97663  1.0000
  C   C18       1.0  0.66225  0.72337  0.02337  1.0000
  C   C19       1.0  0.32104  0.12215  0.89321  1.0000
  C   C20       1.0  0.67896  0.87785  0.10679  1.0000
  C   C21       1.0  0.20190  0.09195  0.77981  1.0000
  C   C22       1.0  0.79810  0.90805  0.22019  1.0000
  C   C23       1.0  0.11556  0.36592  0.82996  1.0000
  C   C24       1.0  0.88444  0.63408  0.17003  1.0000
  C   C25       1.0  0.97582  0.18830  0.63109  1.0000
  C   C26       1.0  0.02418  0.81170  0.36891  1.0000
  C   C27       1.0  0.06447  0.22831  0.54016  1.0000
  C   C28       1.0  0.93553  0.77169  0.45983  1.0000
  N   N1        1.0  0.10114  0.21460  0.75153  1.0000
  N   N2        1.0  0.89886  0.78540  0.24847  1.0000
  N   N3        1.0  0.44038  0.56813  0.58393  1.0000
  N   N4        1.0  0.55962  0.43187  0.41607  1.0000
  N   N5        1.0  0.39172  0.62776  0.66940  1.0000
  N   N6        1.0  0.60828  0.37224  0.33059  1.0000
  N   N7        1.0  0.34696  0.68493  0.75212  1.0000
  N   N8        1.0  0.65304  0.31507  0.24789  1.0000
  O   O1        1.0  0.33558  0.10241  0.36470  1.0000
  O   O2        1.0  0.66442  0.89758  0.63531  1.0000
  O   O3        1.0  0.22471  0.19109  0.19609  1.0000
  O   O4        1.0  0.77529  0.80891  0.80391  1.0000
  O   O5        1.0  0.23634  0.25976  0.57423  1.0000
  O   O6        1.0  0.76366  0.74024  0.42576  1.0000
  O   O7        1.0  0.95885  0.22622  0.44054  1.0000
  O   O8        1.0  0.04115  0.77378  0.55946  1.0000
  O   O9        1.0  0.11596  0.43229  0.33386  1.0000
  O   O10       1.0  0.88404  0.56771  0.66615  1.0000
