data_image0
_chemical_formula_structural       Zn5H34C26O32
_chemical_formula_sum              "Zn5 H34 C26 O32"
_cell_length_a       7.6821
_cell_length_b       10.2051
_cell_length_c       12.1691
_cell_angle_alpha    89.9851
_cell_angle_beta     90.2304
_cell_angle_gamma    88.0516

_space_group_name_H-M_alt    "P 1"
_space_group_IT_number       1

loop_
  _space_group_symop_operation_xyz
  'x, y, z'

loop_
  _atom_site_type_symbol
  _atom_site_label
  _atom_site_symmetry_multiplicity
  _atom_site_fract_x
  _atom_site_fract_y
  _atom_site_fract_z
  _atom_site_occupancy
  Zn  Zn1       1.0  0.49999  0.00000  0.50000  1.0000
  Zn  Zn2       1.0  0.39528  0.30670  0.41034  1.0000
  Zn  Zn3       1.0  0.60478  0.69332  0.58965  1.0000
  Zn  Zn4       1.0  0.44135  0.06254  0.22930  1.0000
  Zn  Zn5       1.0  0.55865  0.93746  0.77070  1.0000
  H   H1        1.0  0.18332  0.60461  0.17360  1.0000
  H   H2        1.0  0.81667  0.39539  0.82640  1.0000
  H   H3        1.0  0.38993  0.29309  0.97099  1.0000
  H   H4        1.0  0.61007  0.70691  0.02901  1.0000
  H   H5        1.0  0.03155  0.77420  0.16529  1.0000
  H   H6        1.0  0.96844  0.22581  0.83470  1.0000
  H   H7        1.0  0.95069  0.90203  0.07952  1.0000
  H   H8        1.0  0.04931  0.09798  0.92047  1.0000
  H   H9        1.0  0.94264  0.70230  0.81909  1.0000
  H   H10       1.0  0.05736  0.29770  0.18091  1.0000
  H   H11       1.0  0.01261  0.58087  0.72089  1.0000
  H   H12       1.0  0.98737  0.41914  0.27911  1.0000
  H   H13       1.0  0.31187  0.22271  0.80754  1.0000
  H   H14       1.0  0.68813  0.77730  0.19246  1.0000
  H   H15       1.0  0.52468  0.28509  0.80320  1.0000
  H   H16       1.0  0.47532  0.71491  0.19679  1.0000
  H   H17       1.0  0.63439  0.15772  0.36418  1.0000
  H   H18       1.0  0.36563  0.84226  0.63581  1.0000
  H   H19       1.0  0.19852  0.51253  0.36056  1.0000
  H   H20       1.0  0.80143  0.48748  0.63946  1.0000
  H   H21       1.0  0.10157  0.44766  0.45745  1.0000
  H   H22       1.0  0.89852  0.55221  0.54254  1.0000
  H   H23       1.0  0.64780  0.46026  0.35411  1.0000
  H   H24       1.0  0.35223  0.53977  0.64592  1.0000
  H   H25       1.0  0.70738  0.42067  0.47484  1.0000
  H   H26       1.0  0.29264  0.57930  0.52518  1.0000
  H   H27       1.0  0.76236  0.07737  0.20896  1.0000
  H   H28       1.0  0.23764  0.92264  0.79104  1.0000
  H   H29       1.0  0.67950  0.06043  0.08556  1.0000
  H   H30       1.0  0.32049  0.93957  0.91444  1.0000
  H   H31       1.0  0.16710  0.08297  0.45988  1.0000
  H   H32       1.0  0.83289  0.91705  0.54012  1.0000
  H   H33       1.0  0.16678  0.96632  0.55065  1.0000
  H   H34       1.0  0.83321  0.03369  0.44934  1.0000
  C   C1        1.0  0.34212  0.35938  0.17627  1.0000
  C   C2        1.0  0.65787  0.64063  0.82373  1.0000
  C   C3        1.0  0.29509  0.44384  0.07948  1.0000
  C   C4        1.0  0.70491  0.55616  0.92052  1.0000
  C   C5        1.0  0.21480  0.56847  0.09173  1.0000
  C   C6        1.0  0.78520  0.43153  0.90827  1.0000
  C   C7        1.0  0.17449  0.64267  0.99784  1.0000
  C   C8        1.0  0.82551  0.35733  0.00216  1.0000
  C   C9        1.0  0.22483  0.59529  0.89356  1.0000
  C   C10       1.0  0.77517  0.40471  0.10644  1.0000
  C   C11       1.0  0.29506  0.46696  0.88215  1.0000
  C   C12       1.0  0.70494  0.53304  0.11784  1.0000
  C   C13       1.0  0.33084  0.39124  0.97544  1.0000
  C   C14       1.0  0.66915  0.60877  0.02456  1.0000
  C   C15       1.0  0.06283  0.83418  0.09333  1.0000
  C   C16       1.0  0.93716  0.16582  0.90666  1.0000
  C   C17       1.0  0.22399  0.91305  0.11715  1.0000
  C   C18       1.0  0.77601  0.08695  0.88285  1.0000
  C   C19       1.0  0.03916  0.67765  0.75526  1.0000
  C   C20       1.0  0.96083  0.32236  0.24474  1.0000
  C   C21       1.0  0.02042  0.78212  0.66720  1.0000
  C   C22       1.0  0.97957  0.21789  0.33280  1.0000
  C   C23       1.0  0.39426  0.29327  0.76549  1.0000
  C   C24       1.0  0.60574  0.70673  0.23451  1.0000
  C   C25       1.0  0.40970  0.25067  0.64605  1.0000
  C   C26       1.0  0.59030  0.74933  0.35395  1.0000
  O   O1        1.0  0.38313  0.24076  0.15714  1.0000
  O   O2        1.0  0.61686  0.75924  0.84286  1.0000
  O   O3        1.0  0.33542  0.41213  0.27295  1.0000
  O   O4        1.0  0.66458  0.58788  0.72705  1.0000
  O   O5        1.0  0.08174  0.75959  0.99507  1.0000
  O   O6        1.0  0.91826  0.24041  0.00492  1.0000
  O   O7        1.0  0.22497  0.96891  0.21177  1.0000
  O   O8        1.0  0.77503  0.03109  0.78823  1.0000
  O   O9        1.0  0.34318  0.92067  0.04748  1.0000
  O   O10       1.0  0.65682  0.07935  0.95252  1.0000
  O   O11       1.0  0.20956  0.67574  0.80333  1.0000
  O   O12       1.0  0.79044  0.32426  0.19667  1.0000
  O   O13       1.0  0.12870  0.87315  0.66607  1.0000
  O   O14       1.0  0.87130  0.12685  0.33392  1.0000
  O   O15       1.0  0.89170  0.77319  0.60113  1.0000
  O   O16       1.0  0.10828  0.22683  0.39888  1.0000
  O   O17       1.0  0.32402  0.42451  0.77634  1.0000
  O   O18       1.0  0.67598  0.57549  0.22366  1.0000
  O   O19       1.0  0.35009  0.32776  0.57105  1.0000
  O   O20       1.0  0.64992  0.67223  0.42894  1.0000
  O   O21       1.0  0.48251  0.13926  0.63361  1.0000
  O   O22       1.0  0.51749  0.86074  0.36639  1.0000
  O   O23       1.0  0.51094  0.13589  0.37412  1.0000
  O   O24       1.0  0.48907  0.86411  0.62587  1.0000
  O   O25       1.0  0.14472  0.53198  0.43255  1.0000
  O   O26       1.0  0.85524  0.46794  0.56749  1.0000
  O   O27       1.0  0.63713  0.39211  0.41040  1.0000
  O   O28       1.0  0.36291  0.60789  0.58960  1.0000
  O   O29       1.0  0.67883  0.02761  0.16381  1.0000
  O   O30       1.0  0.32117  0.97240  0.83619  1.0000
  O   O31       1.0  0.22792  0.00048  0.48540  1.0000
  O   O32       1.0  0.77206  0.99954  0.51460  1.0000
