data_image0
_chemical_formula_structural       Cu3H42C40N6O14
_chemical_formula_sum              "Cu3 H42 C40 N6 O14"
_cell_length_a       9.48246
_cell_length_b       10.7983
_cell_length_c       11.18
_cell_angle_alpha    81.0882
_cell_angle_beta     65.064
_cell_angle_gamma    79.9285

_space_group_name_H-M_alt    "P 1"
_space_group_IT_number       1

loop_
  _space_group_symop_operation_xyz
  'x, y, z'

loop_
  _atom_site_type_symbol
  _atom_site_label
  _atom_site_symmetry_multiplicity
  _atom_site_fract_x
  _atom_site_fract_y
  _atom_site_fract_z
  _atom_site_occupancy
  Cu  Cu1       1.0  0.42035  0.60774  0.53583  1.0000
  Cu  Cu2       1.0  0.57966  0.39227  0.46416  1.0000
  Cu  Cu3       1.0  1.00000  1.00000  1.00000  1.0000
  H   H1        1.0  0.76415  0.05459  0.77983  1.0000
  H   H2        1.0  0.23586  0.94540  0.22017  1.0000
  H   H3        1.0  0.07393  0.68934  0.67595  1.0000
  H   H4        1.0  0.92607  0.31066  0.32403  1.0000
  H   H5        1.0  0.98271  0.09735  0.65549  1.0000
  H   H6        1.0  0.01728  0.90266  0.34451  1.0000
  H   H7        1.0  0.27096  0.10282  0.54188  1.0000
  H   H8        1.0  0.72904  0.89720  0.45812  1.0000
  H   H9        1.0  0.44870  0.89706  0.49730  1.0000
  H   H10       1.0  0.55129  0.10296  0.50270  1.0000
  H   H11       1.0  0.51975  0.16308  0.88151  1.0000
  H   H12       1.0  0.48025  0.83691  0.11850  1.0000
  H   H13       1.0  0.23003  0.17316  0.96028  1.0000
  H   H14       1.0  0.76997  0.82682  0.03973  1.0000
  H   H15       1.0  0.56044  0.79737  0.74905  1.0000
  H   H16       1.0  0.43957  0.20263  0.25095  1.0000
  H   H17       1.0  0.27226  0.82201  0.83539  1.0000
  H   H18       1.0  0.72775  0.17798  0.16460  1.0000
  H   H19       1.0  0.38046  0.36560  0.93535  1.0000
  H   H20       1.0  0.61950  0.63439  0.06464  1.0000
  H   H21       1.0  0.58866  0.33432  0.86261  1.0000
  H   H22       1.0  0.41130  0.66568  0.13740  1.0000
  H   H23       1.0  0.40135  0.59331  0.93807  1.0000
  H   H24       1.0  0.59859  0.40667  0.06195  1.0000
  H   H25       1.0  0.60709  0.56254  0.86638  1.0000
  H   H26       1.0  0.39285  0.43746  0.13364  1.0000
  H   H27       1.0  0.06857  0.28404  0.64915  1.0000
  H   H28       1.0  0.93145  0.71597  0.35086  1.0000
  H   H29       1.0  0.14040  0.29523  0.47417  1.0000
  H   H30       1.0  0.85961  0.70477  0.52584  1.0000
  H   H31       1.0  0.94827  0.51120  0.64806  1.0000
  H   H32       1.0  0.05173  0.48880  0.35195  1.0000
  H   H33       1.0  0.87279  0.41350  0.58211  1.0000
  H   H34       1.0  0.12722  0.58650  0.41789  1.0000
  H   H35       1.0  0.06925  0.36727  0.03566  1.0000
  H   H36       1.0  0.93077  0.63271  0.96434  1.0000
  H   H37       1.0  0.87008  0.42787  0.10774  1.0000
  H   H38       1.0  0.12994  0.57211  0.89227  1.0000
  H   H39       1.0  0.05614  0.40460  0.80979  1.0000
  H   H40       1.0  0.94386  0.59539  0.19023  1.0000
  H   H41       1.0  0.85365  0.44800  0.88641  1.0000
  H   H42       1.0  0.14637  0.55201  0.11360  1.0000
  C   C1        1.0  0.11369  0.78250  0.64813  1.0000
  C   C2        1.0  0.88633  0.21751  0.35186  1.0000
  C   C3        1.0  0.00459  0.89133  0.67449  1.0000
  C   C4        1.0  0.99542  0.10867  0.32552  1.0000
  C   C5        1.0  0.06107  0.00910  0.63645  1.0000
  C   C6        1.0  0.93893  0.99090  0.36355  1.0000
  C   C7        1.0  0.22255  0.01294  0.57279  1.0000
  C   C8        1.0  0.77744  0.98707  0.42721  1.0000
  C   C9        1.0  0.32171  0.89961  0.54874  1.0000
  C   C10       1.0  0.67829  0.10041  0.45126  1.0000
  C   C11       1.0  0.83651  0.86963  0.73362  1.0000
  C   C12       1.0  0.16349  0.13038  0.26637  1.0000
  C   C13       1.0  0.48734  0.44046  0.73461  1.0000
  C   C14       1.0  0.51266  0.55955  0.26537  1.0000
  C   C15       1.0  0.56602  0.97815  0.81100  1.0000
  C   C16       1.0  0.43398  0.02185  0.18901  1.0000
  C   C17       1.0  0.46914  0.08537  0.86955  1.0000
  C   C18       1.0  0.53086  0.91462  0.13045  1.0000
  C   C19       1.0  0.30836  0.09154  0.91382  1.0000
  C   C20       1.0  0.69164  0.90845  0.08618  1.0000
  C   C21       1.0  0.49357  0.88218  0.79544  1.0000
  C   C22       1.0  0.50643  0.11781  0.20456  1.0000
  C   C23       1.0  0.33128  0.89601  0.84370  1.0000
  C   C24       1.0  0.66874  0.10398  0.15629  1.0000
  C   C25       1.0  0.48914  0.40717  0.87075  1.0000
  C   C26       1.0  0.51082  0.59282  0.12925  1.0000
  C   C27       1.0  0.49976  0.51980  0.93178  1.0000
  C   C28       1.0  0.50019  0.48019  0.06823  1.0000
  C   C29       1.0  0.25713  0.39488  0.54675  1.0000
  C   C30       1.0  0.74288  0.60513  0.45325  1.0000
  C   C31       1.0  0.10836  0.34983  0.55917  1.0000
  C   C32       1.0  0.89165  0.65017  0.44083  1.0000
  C   C33       1.0  0.97797  0.45605  0.56400  1.0000
  C   C34       1.0  0.02203  0.54395  0.43601  1.0000
  C   C35       1.0  0.97733  0.43305  0.01581  1.0000
  C   C36       1.0  0.02269  0.56694  0.98420  1.0000
  C   C37       1.0  0.95239  0.39004  0.90304  1.0000
  C   C38       1.0  0.04762  0.60995  0.09697  1.0000
  C   C39       1.0  0.92996  0.25158  0.91652  1.0000
  C   C40       1.0  0.07006  0.74841  0.08347  1.0000
  N   N1        1.0  0.26830  0.78620  0.58682  1.0000
  N   N2        1.0  0.73171  0.21381  0.41317  1.0000
  N   N3        1.0  0.23816  0.99739  0.90381  1.0000
  N   N4        1.0  0.76186  0.00259  0.09619  1.0000
  N   N5        1.0  0.72688  0.97481  0.77037  1.0000
  N   N6        1.0  0.27311  0.02519  0.22964  1.0000
  O   O1        1.0  0.79916  0.76286  0.74531  1.0000
  O   O2        1.0  0.20086  0.23714  0.25467  1.0000
  O   O3        1.0  0.55544  0.35721  0.65234  1.0000
  O   O4        1.0  0.44458  0.64281  0.34764  1.0000
  O   O5        1.0  0.41895  0.54892  0.71399  1.0000
  O   O6        1.0  0.58104  0.45109  0.28600  1.0000
  O   O7        1.0  0.24582  0.50662  0.57625  1.0000
  O   O8        1.0  0.75420  0.49340  0.42372  1.0000
  O   O9        1.0  0.38261  0.31782  0.50643  1.0000
  O   O10       1.0  0.61740  0.68219  0.49356  1.0000
  O   O11       1.0  0.98178  0.18065  0.99839  1.0000
  O   O12       1.0  0.01822  0.81935  0.00162  1.0000
  O   O13       1.0  0.87116  0.21178  0.85042  1.0000
  O   O14       1.0  0.12883  0.78823  0.14959  1.0000
