data_image0
_chemical_formula_structural       CuH26C28N6O6
_chemical_formula_sum              "Cu1 H26 C28 N6 O6"
_cell_length_a       7.77212
_cell_length_b       9.5268
_cell_length_c       10.1953
_cell_angle_alpha    71.3435
_cell_angle_beta     69.2853
_cell_angle_gamma    72.8549

_space_group_name_H-M_alt    "P 1"
_space_group_IT_number       1

loop_
  _space_group_symop_operation_xyz
  'x, y, z'

loop_
  _atom_site_type_symbol
  _atom_site_label
  _atom_site_symmetry_multiplicity
  _atom_site_fract_x
  _atom_site_fract_y
  _atom_site_fract_z
  _atom_site_occupancy
  Cu  Cu1       1.0  1.00000  0.50000  0.50000  1.0000
  H   H1        1.0  0.45340  0.27446  0.26955  1.0000
  H   H2        1.0  0.54660  0.72554  0.73045  1.0000
  H   H3        1.0  0.71476  0.24001  0.80777  1.0000
  H   H4        1.0  0.28524  0.75999  0.19223  1.0000
  H   H5        1.0  0.25644  0.24642  0.20044  1.0000
  H   H6        1.0  0.74356  0.75359  0.79955  1.0000
  H   H7        1.0  0.85185  0.47829  0.06742  1.0000
  H   H8        1.0  0.14815  0.52171  0.93259  1.0000
  H   H9        1.0  0.00328  0.55783  0.20200  1.0000
  H   H10       1.0  0.99671  0.44218  0.79800  1.0000
  H   H11       1.0  0.67141  0.35390  0.59687  1.0000
  H   H12       1.0  0.32859  0.64610  0.40314  1.0000
  H   H13       1.0  0.50014  0.27476  0.47973  1.0000
  H   H14       1.0  0.49986  0.72524  0.52027  1.0000
  H   H15       1.0  0.70038  0.02012  0.47439  1.0000
  H   H16       1.0  0.29963  0.97988  0.52561  1.0000
  H   H17       1.0  0.83408  0.00065  0.29600  1.0000
  H   H18       1.0  0.16592  0.99935  0.70400  1.0000
  H   H19       1.0  0.13225  0.96392  0.35631  1.0000
  H   H20       1.0  0.86776  0.03608  0.64369  1.0000
  H   H21       1.0  0.98186  0.14032  0.37502  1.0000
  H   H22       1.0  0.01815  0.85968  0.62498  1.0000
  H   H23       1.0  0.22710  0.11863  0.84152  1.0000
  H   H24       1.0  0.77289  0.88137  0.15848  1.0000
  H   H25       1.0  0.07850  0.16010  0.08968  1.0000
  H   H26       1.0  0.92150  0.83991  0.91032  1.0000
  C   C1        1.0  0.57267  0.22340  0.87175  1.0000
  C   C2        1.0  0.42732  0.77660  0.12825  1.0000
  C   C3        1.0  0.50030  0.25259  0.00997  1.0000
  C   C4        1.0  0.49970  0.74742  0.99003  1.0000
  C   C5        1.0  0.32011  0.22711  0.09200  1.0000
  C   C6        1.0  0.67989  0.77290  0.90800  1.0000
  C   C7        1.0  0.62347  0.31109  0.05534  1.0000
  C   C8        1.0  0.37652  0.68891  0.94466  1.0000
  C   C9        1.0  0.66483  0.36616  0.26174  1.0000
  C   C10       1.0  0.33517  0.63384  0.73825  1.0000
  C   C11       1.0  0.80818  0.44873  0.18431  1.0000
  C   C12       1.0  0.19182  0.55127  0.81569  1.0000
  C   C13       1.0  0.89258  0.49324  0.25937  1.0000
  C   C14       1.0  0.10742  0.50675  0.74063  1.0000
  C   C15       1.0  0.70685  0.38106  0.47977  1.0000
  C   C16       1.0  0.29316  0.61894  0.52023  1.0000
  C   C17       1.0  0.61278  0.33501  0.41360  1.0000
  C   C18       1.0  0.38722  0.66499  0.58640  1.0000
  C   C19       1.0  0.85586  0.79610  0.46254  1.0000
  C   C20       1.0  0.14414  0.20390  0.53746  1.0000
  C   C21       1.0  0.83518  0.96646  0.40954  1.0000
  C   C22       1.0  0.16483  0.03354  0.59046  1.0000
  C   C23       1.0  0.99758  0.01763  0.42196  1.0000
  C   C24       1.0  0.00242  0.98237  0.57804  1.0000
  C   C25       1.0  0.30425  0.15421  0.89232  1.0000
  C   C26       1.0  0.69575  0.84579  0.10768  1.0000
  C   C27       1.0  0.22086  0.17752  0.03134  1.0000
  C   C28       1.0  0.77914  0.82248  0.96866  1.0000
  N   N1        1.0  0.57127  0.31435  0.19845  1.0000
  N   N2        1.0  0.42873  0.68565  0.80155  1.0000
  N   N3        1.0  0.84544  0.45861  0.40481  1.0000
  N   N4        1.0  0.15456  0.54139  0.59519  1.0000
  N   N5        1.0  0.47840  0.17522  0.81291  1.0000
  N   N6        1.0  0.52160  0.82478  0.18710  1.0000
  O   O1        1.0  0.76699  0.35245  0.96621  1.0000
  O   O2        1.0  0.23302  0.64755  0.03379  1.0000
  O   O3        1.0  0.75664  0.73717  0.58521  1.0000
  O   O4        1.0  0.24337  0.26283  0.41479  1.0000
  O   O5        1.0  0.98411  0.71617  0.37936  1.0000
  O   O6        1.0  0.01590  0.28383  0.62063  1.0000
