data_image0
_chemical_formula_structural       Ag4H14C24N6O12
_chemical_formula_sum              "Ag4 H14 C24 N6 O12"
_cell_length_a       7.71477
_cell_length_b       7.98113
_cell_length_c       12.4996
_cell_angle_alpha    75.6388
_cell_angle_beta     83.7511
_cell_angle_gamma    62.5753

_space_group_name_H-M_alt    "P 1"
_space_group_IT_number       1

loop_
  _space_group_symop_operation_xyz
  'x, y, z'

loop_
  _atom_site_type_symbol
  _atom_site_label
  _atom_site_symmetry_multiplicity
  _atom_site_fract_x
  _atom_site_fract_y
  _atom_site_fract_z
  _atom_site_occupancy
  Ag  Ag1       1.0  0.23127  0.82006  0.50338  1.0000
  Ag  Ag2       1.0  0.76872  0.17994  0.49663  1.0000
  Ag  Ag3       1.0  0.69410  0.52232  0.57927  1.0000
  Ag  Ag4       1.0  0.30589  0.47769  0.42072  1.0000
  H   H1        1.0  0.66282  0.91025  0.69757  1.0000
  H   H2        1.0  0.33717  0.08976  0.30243  1.0000
  H   H3        1.0  0.71744  0.68654  0.88469  1.0000
  H   H4        1.0  0.28255  0.31347  0.11531  1.0000
  H   H5        1.0  0.43279  0.65477  0.98693  1.0000
  H   H6        1.0  0.56721  0.34523  0.01307  1.0000
  H   H7        1.0  0.97804  0.66942  0.66321  1.0000
  H   H8        1.0  0.02196  0.33058  0.33679  1.0000
  H   H9        1.0  0.35752  0.20515  0.91940  1.0000
  H   H10       1.0  0.64248  0.79484  0.08060  1.0000
  H   H11       1.0  0.63066  0.27289  0.81716  1.0000
  H   H12       1.0  0.36934  0.72711  0.18284  1.0000
  H   H13       1.0  0.01851  0.41069  0.83885  1.0000
  H   H14       1.0  0.98149  0.58930  0.16115  1.0000
  C   C1        1.0  0.19313  0.98363  0.75382  1.0000
  C   C2        1.0  0.80687  0.01637  0.24618  1.0000
  C   C3        1.0  0.32712  0.13124  0.58306  1.0000
  C   C4        1.0  0.67288  0.86876  0.41694  1.0000
  C   C5        1.0  0.35520  0.99677  0.69558  1.0000
  C   C6        1.0  0.64480  0.00323  0.30442  1.0000
  C   C7        1.0  0.99483  0.10945  0.69961  1.0000
  C   C8        1.0  0.00517  0.89055  0.30038  1.0000
  C   C9        1.0  0.54203  0.89123  0.74302  1.0000
  C   C10       1.0  0.45797  0.10878  0.25698  1.0000
  C   C11       1.0  0.57225  0.76705  0.84749  1.0000
  C   C12       1.0  0.42775  0.23296  0.15251  1.0000
  C   C13       1.0  0.41544  0.74817  0.90502  1.0000
  C   C14       1.0  0.58456  0.25184  0.09498  1.0000
  C   C15       1.0  0.22851  0.85681  0.85801  1.0000
  C   C16       1.0  0.77149  0.14320  0.14199  1.0000
  C   C17       1.0  0.11798  0.57616  0.70540  1.0000
  C   C18       1.0  0.88202  0.42383  0.29461  1.0000
  C   C19       1.0  0.32834  0.32057  0.84538  1.0000
  C   C20       1.0  0.67167  0.67942  0.15462  1.0000
  C   C21       1.0  0.47875  0.35755  0.79024  1.0000
  C   C22       1.0  0.52125  0.64245  0.20976  1.0000
  C   C23       1.0  0.14180  0.43378  0.80151  1.0000
  C   C24       1.0  0.85820  0.56621  0.19850  1.0000
  N   N1        1.0  0.06819  0.83394  0.92236  1.0000
  N   N2        1.0  0.93182  0.16606  0.07764  1.0000
  N   N3        1.0  0.26767  0.60671  0.65728  1.0000
  N   N4        1.0  0.73233  0.39329  0.34272  1.0000
  N   N5        1.0  0.44789  0.49797  0.69942  1.0000
  N   N6        1.0  0.55210  0.50203  0.30058  1.0000
  O   O1        1.0  0.89930  0.96720  0.90379  1.0000
  O   O2        1.0  0.10070  0.03280  0.09621  1.0000
  O   O3        1.0  0.10879  0.68036  0.99311  1.0000
  O   O4        1.0  0.89122  0.31963  0.00689  1.0000
  O   O5        1.0  0.39578  0.25243  0.57435  1.0000
  O   O6        1.0  0.60422  0.74758  0.42565  1.0000
  O   O7        1.0  0.24011  0.12010  0.50715  1.0000
  O   O8        1.0  0.75988  0.87990  0.49285  1.0000
  O   O9        1.0  0.91649  0.02829  0.66028  1.0000
  O   O10       1.0  0.08351  0.97170  0.33972  1.0000
  O   O11       1.0  0.93423  0.28847  0.69306  1.0000
  O   O12       1.0  0.06577  0.71153  0.30694  1.0000
