data_image0
_chemical_formula_structural       Ag12H28C52N8O24
_chemical_formula_sum              "Ag12 H28 C52 N8 O24"
_cell_length_a       8.54865
_cell_length_b       10.5288
_cell_length_c       15.867
_cell_angle_alpha    97.2745
_cell_angle_beta     98.4255
_cell_angle_gamma    102.776

_space_group_name_H-M_alt    "P 1"
_space_group_IT_number       1

loop_
  _space_group_symop_operation_xyz
  'x, y, z'

loop_
  _atom_site_type_symbol
  _atom_site_label
  _atom_site_symmetry_multiplicity
  _atom_site_fract_x
  _atom_site_fract_y
  _atom_site_fract_z
  _atom_site_occupancy
  Ag  Ag1       1.0  0.27681  0.27615  0.18304  1.0000
  Ag  Ag2       1.0  0.72319  0.72385  0.81696  1.0000
  Ag  Ag3       1.0  0.48007  0.41797  0.39795  1.0000
  Ag  Ag4       1.0  0.51993  0.58203  0.60205  1.0000
  Ag  Ag5       1.0  0.21349  0.18876  0.33620  1.0000
  Ag  Ag6       1.0  0.78651  0.81124  0.66380  1.0000
  Ag  Ag7       1.0  0.67918  0.30471  0.25747  1.0000
  Ag  Ag8       1.0  0.32082  0.69529  0.74252  1.0000
  Ag  Ag9       1.0  0.92825  0.12538  0.18210  1.0000
  Ag  Ag10      1.0  0.07175  0.87462  0.81790  1.0000
  Ag  Ag11      1.0  0.11570  0.99231  0.08208  1.0000
  Ag  Ag12      1.0  0.88431  0.00768  0.91792  1.0000
  H   H1        1.0  0.84343  0.00989  0.49124  1.0000
  H   H2        1.0  0.15657  0.99011  0.50876  1.0000
  H   H3        1.0  0.51427  0.25405  0.54832  1.0000
  H   H4        1.0  0.48573  0.74595  0.45168  1.0000
  H   H5        1.0  0.90320  0.35116  0.79313  1.0000
  H   H6        1.0  0.09680  0.64883  0.20687  1.0000
  H   H7        1.0  0.57512  0.42288  0.09165  1.0000
  H   H8        1.0  0.42488  0.57712  0.90835  1.0000
  H   H9        1.0  0.85143  0.10801  0.35422  1.0000
  H   H10       1.0  0.14857  0.89199  0.64577  1.0000
  H   H11       1.0  0.07450  0.52595  0.58278  1.0000
  H   H12       1.0  0.92550  0.47405  0.41723  1.0000
  H   H13       1.0  0.66992  0.08647  0.59324  1.0000
  H   H14       1.0  0.33008  0.91353  0.40675  1.0000
  H   H15       1.0  0.14637  0.14490  0.62311  1.0000
  H   H16       1.0  0.85362  0.85510  0.37689  1.0000
  H   H17       1.0  0.02317  0.24419  0.01981  1.0000
  H   H18       1.0  0.97683  0.75582  0.98019  1.0000
  H   H19       1.0  0.40364  0.79955  0.30169  1.0000
  H   H20       1.0  0.59636  0.20045  0.69831  1.0000
  H   H21       1.0  0.55274  0.00434  0.09763  1.0000
  H   H22       1.0  0.44726  0.99566  0.90237  1.0000
  H   H23       1.0  0.65425  0.62684  0.11959  1.0000
  H   H24       1.0  0.34575  0.37316  0.88041  1.0000
  H   H25       1.0  0.91372  0.38055  0.91785  1.0000
  H   H26       1.0  0.08628  0.61946  0.08215  1.0000
  H   H27       1.0  0.68143  0.48000  0.95614  1.0000
  H   H28       1.0  0.31857  0.52001  0.04386  1.0000
  C   C1        1.0  0.98337  0.45117  0.69168  1.0000
  C   C2        1.0  0.01663  0.54883  0.30832  1.0000
  C   C3        1.0  0.77452  0.08259  0.47702  1.0000
  C   C4        1.0  0.22548  0.91741  0.52298  1.0000
  C   C5        1.0  0.59112  0.21496  0.50790  1.0000
  C   C6        1.0  0.40887  0.78504  0.49209  1.0000
  C   C7        1.0  0.96624  0.34690  0.73862  1.0000
  C   C8        1.0  0.03376  0.65309  0.26138  1.0000
  C   C9        1.0  0.67336  0.38568  0.06939  1.0000
  C   C10       1.0  0.32664  0.61432  0.93061  1.0000
  C   C11       1.0  0.02780  0.23765  0.71541  1.0000
  C   C12       1.0  0.97220  0.76235  0.28459  1.0000
  C   C13       1.0  0.77778  0.13536  0.40058  1.0000
  C   C14       1.0  0.22222  0.86464  0.59942  1.0000
  C   C15       1.0  0.06120  0.44498  0.61966  1.0000
  C   C16       1.0  0.93880  0.55502  0.38034  1.0000
  C   C17       1.0  0.01714  0.13059  0.76915  1.0000
  C   C18       1.0  0.98286  0.86941  0.23085  1.0000
  C   C19       1.0  0.67848  0.12390  0.53257  1.0000
  C   C20       1.0  0.32152  0.87609  0.46743  1.0000
  C   C21       1.0  0.10049  0.23054  0.64220  1.0000
  C   C22       1.0  0.89951  0.76946  0.35780  1.0000
  C   C23       1.0  0.11752  0.33346  0.59396  1.0000
  C   C24       1.0  0.88248  0.66654  0.40604  1.0000
  C   C25       1.0  0.91826  0.28376  0.02942  1.0000
  C   C26       1.0  0.08175  0.71625  0.97058  1.0000
  C   C27       1.0  0.46273  0.80501  0.24563  1.0000
  C   C28       1.0  0.53727  0.19498  0.75437  1.0000
  C   C29       1.0  0.92127  0.56941  0.72048  1.0000
  C   C30       1.0  0.07874  0.43059  0.27952  1.0000
  C   C31       1.0  0.69727  0.82591  0.02402  1.0000
  C   C32       1.0  0.30273  0.17409  0.97598  1.0000
  C   C33       1.0  0.54665  0.91942  0.13061  1.0000
  C   C34       1.0  0.45335  0.08058  0.86938  1.0000
  C   C35       1.0  0.19731  0.32120  0.51552  1.0000
  C   C36       1.0  0.80269  0.67881  0.48449  1.0000
  C   C37       1.0  0.47127  0.91429  0.20310  1.0000
  C   C38       1.0  0.52873  0.08571  0.79690  1.0000
  C   C39       1.0  0.51704  0.58252  0.26057  1.0000
  C   C40       1.0  0.48296  0.41748  0.73943  1.0000
  C   C41       1.0  0.60128  0.70654  0.14247  1.0000
  C   C42       1.0  0.39872  0.29345  0.85753  1.0000
  C   C43       1.0  0.61198  0.81566  0.10007  1.0000
  C   C44       1.0  0.38802  0.18434  0.89993  1.0000
  C   C45       1.0  0.40019  0.02626  0.23328  1.0000
  C   C46       1.0  0.59981  0.97374  0.76672  1.0000
  C   C47       1.0  0.52744  0.70067  0.21552  1.0000
  C   C48       1.0  0.47256  0.29933  0.78448  1.0000
  C   C49       1.0  0.85905  0.36258  0.97424  1.0000
  C   C50       1.0  0.14094  0.63743  0.02576  1.0000
  C   C51       1.0  0.73213  0.41512  0.99457  1.0000
  C   C52       1.0  0.26787  0.58489  0.00543  1.0000
  N   N1        1.0  0.85607  0.25813  0.09980  1.0000
  N   N2        1.0  0.14393  0.74188  0.90020  1.0000
  N   N3        1.0  0.69053  0.22128  0.37943  1.0000
  N   N4        1.0  0.30947  0.77872  0.62057  1.0000
  N   N5        1.0  0.59657  0.26063  0.43327  1.0000
  N   N6        1.0  0.40343  0.73937  0.56673  1.0000
  N   N7        1.0  0.73472  0.31052  0.12080  1.0000
  N   N8        1.0  0.26529  0.68948  0.87920  1.0000
  O   O1        1.0  0.05791  0.02601  0.73975  1.0000
  O   O2        1.0  0.94209  0.97399  0.26025  1.0000
  O   O3        1.0  0.18480  0.20323  0.47863  1.0000
  O   O4        1.0  0.81521  0.79678  0.52138  1.0000
  O   O5        1.0  0.27002  0.42630  0.49235  1.0000
  O   O6        1.0  0.72998  0.57371  0.50765  1.0000
  O   O7        1.0  0.33488  0.02293  0.29983  1.0000
  O   O8        1.0  0.66512  0.97707  0.70017  1.0000
  O   O9        1.0  0.95954  0.66970  0.68341  1.0000
  O   O10       1.0  0.04046  0.33030  0.31660  1.0000
  O   O11       1.0  0.41141  0.11854  0.18679  1.0000
  O   O12       1.0  0.58859  0.88146  0.81321  1.0000
  O   O13       1.0  0.70800  0.72355  0.97671  1.0000
  O   O14       1.0  0.29200  0.27645  0.02330  1.0000
  O   O15       1.0  0.83920  0.56181  0.78145  1.0000
  O   O16       1.0  0.16080  0.43820  0.21855  1.0000
  O   O17       1.0  0.54322  0.47946  0.21946  1.0000
  O   O18       1.0  0.45678  0.52054  0.78054  1.0000
  O   O19       1.0  0.75570  0.94611  0.01513  1.0000
  O   O20       1.0  0.24430  0.05389  0.98487  1.0000
  O   O21       1.0  0.97064  0.15230  0.84108  1.0000
  O   O22       1.0  0.02937  0.84770  0.15892  1.0000
  O   O23       1.0  0.48224  0.59421  0.33593  1.0000
  O   O24       1.0  0.51777  0.40580  0.66407  1.0000
