data_image0
_chemical_formula_structural       Ag4H10C18N4O8
_chemical_formula_sum              "Ag4 H10 C18 N4 O8"
_cell_length_a       6.69589
_cell_length_b       9.0093
_cell_length_c       9.41838
_cell_angle_alpha    63.801
_cell_angle_beta     72.3413
_cell_angle_gamma    78.9951

_space_group_name_H-M_alt    "P 1"
_space_group_IT_number       1

loop_
  _space_group_symop_operation_xyz
  'x, y, z'

loop_
  _atom_site_type_symbol
  _atom_site_label
  _atom_site_symmetry_multiplicity
  _atom_site_fract_x
  _atom_site_fract_y
  _atom_site_fract_z
  _atom_site_occupancy
  Ag  Ag1       1.0  0.79347  0.93732  0.19570  1.0000
  Ag  Ag2       1.0  0.20653  0.06268  0.80430  1.0000
  Ag  Ag3       1.0  0.74887  0.62010  0.48467  1.0000
  Ag  Ag4       1.0  0.25113  0.37990  0.51533  1.0000
  H   H1        1.0  0.70863  0.70207  0.79819  1.0000
  H   H2        1.0  0.29137  0.29793  0.20181  1.0000
  H   H3        1.0  0.15143  0.58942  0.93637  1.0000
  H   H4        1.0  0.84857  0.41058  0.06363  1.0000
  H   H5        1.0  0.76317  0.22950  0.32848  1.0000
  H   H6        1.0  0.23683  0.77050  0.67151  1.0000
  H   H7        1.0  0.69646  0.95647  0.84854  1.0000
  H   H8        1.0  0.30354  0.04353  0.15146  1.0000
  H   H9        1.0  0.73192  0.23349  0.59927  1.0000
  H   H10       1.0  0.26808  0.76651  0.40073  1.0000
  C   C1        1.0  0.19227  0.69881  0.14816  1.0000
  C   C2        1.0  0.80773  0.30119  0.85184  1.0000
  C   C3        1.0  0.71882  0.82519  0.69934  1.0000
  C   C4        1.0  0.28118  0.17481  0.30066  1.0000
  C   C5        1.0  0.62155  0.62258  0.19895  1.0000
  C   C6        1.0  0.37845  0.37741  0.80105  1.0000
  C   C7        1.0  0.30614  0.55172  0.96201  1.0000
  C   C8        1.0  0.69386  0.44828  0.03799  1.0000
  C   C9        1.0  0.55395  0.55198  0.10374  1.0000
  C   C10       1.0  0.44605  0.44802  0.89626  1.0000
  C   C11       1.0  0.35692  0.60283  0.06653  1.0000
  C   C12       1.0  0.64308  0.39718  0.93347  1.0000
  C   C13       1.0  0.75113  0.11525  0.43905  1.0000
  C   C14       1.0  0.24887  0.88475  0.56095  1.0000
  C   C15       1.0  0.71341  0.96714  0.72559  1.0000
  C   C16       1.0  0.28660  0.03286  0.27441  1.0000
  C   C17       1.0  0.73107  0.11752  0.59006  1.0000
  C   C18       1.0  0.26894  0.88248  0.40994  1.0000
  N   N1        1.0  0.73569  0.82965  0.55247  1.0000
  N   N2        1.0  0.26432  0.17035  0.44753  1.0000
  N   N3        1.0  0.75172  0.97606  0.42091  1.0000
  N   N4        1.0  0.24828  0.02394  0.57909  1.0000
  O   O1        1.0  0.14837  0.64135  0.30298  1.0000
  O   O2        1.0  0.85163  0.35865  0.69701  1.0000
  O   O3        1.0  0.60855  0.77936  0.14228  1.0000
  O   O4        1.0  0.39145  0.22064  0.85773  1.0000
  O   O5        1.0  0.68775  0.51938  0.32336  1.0000
  O   O6        1.0  0.31225  0.48062  0.67664  1.0000
  O   O7        1.0  0.09974  0.82708  0.05775  1.0000
  O   O8        1.0  0.90026  0.17293  0.94225  1.0000
