data_image0
_chemical_formula_structural       Cd2H48C56S8N12
_chemical_formula_sum              "Cd2 H48 C56 S8 N12"
_cell_length_a       5.41247
_cell_length_b       15.6438
_cell_length_c       17.641
_cell_angle_alpha    90
_cell_angle_beta     89.9791
_cell_angle_gamma    90

_space_group_name_H-M_alt    "P 1"
_space_group_IT_number       1

loop_
  _space_group_symop_operation_xyz
  'x, y, z'

loop_
  _atom_site_type_symbol
  _atom_site_label
  _atom_site_symmetry_multiplicity
  _atom_site_fract_x
  _atom_site_fract_y
  _atom_site_fract_z
  _atom_site_occupancy
  Cd  Cd1       1.0  0.50000  0.50000  0.50000  1.0000
  Cd  Cd2       1.0  0.50001  1.00000  0.00000  1.0000
  H   H1        1.0  0.77082  0.16065  0.51501  1.0000
  H   H2        1.0  0.22917  0.66066  0.98499  1.0000
  H   H3        1.0  0.22922  0.83934  0.48499  1.0000
  H   H4        1.0  0.77081  0.33934  0.01501  1.0000
  H   H5        1.0  0.45303  0.33676  0.57429  1.0000
  H   H6        1.0  0.54697  0.83676  0.92571  1.0000
  H   H7        1.0  0.54699  0.66323  0.42572  1.0000
  H   H8        1.0  0.45301  0.16324  0.07428  1.0000
  H   H9        1.0  0.74495  0.08554  0.38714  1.0000
  H   H10       1.0  0.25504  0.58555  0.11286  1.0000
  H   H11       1.0  0.25506  0.91445  0.61286  1.0000
  H   H12       1.0  0.74496  0.41445  0.88714  1.0000
  H   H13       1.0  0.00779  0.04714  0.27633  1.0000
  H   H14       1.0  0.99222  0.54714  0.22367  1.0000
  H   H15       1.0  0.99223  0.95287  0.72367  1.0000
  H   H16       1.0  0.00780  0.45286  0.77633  1.0000
  H   H17       1.0  0.37783  0.13502  0.24466  1.0000
  H   H18       1.0  0.62216  0.63501  0.25535  1.0000
  H   H19       1.0  0.62217  0.86499  0.75534  1.0000
  H   H20       1.0  0.37786  0.36498  0.74466  1.0000
  H   H21       1.0  0.47914  0.26270  0.32384  1.0000
  H   H22       1.0  0.52085  0.76270  0.17616  1.0000
  H   H23       1.0  0.52087  0.73730  0.67616  1.0000
  H   H24       1.0  0.47915  0.23730  0.82384  1.0000
  H   H25       1.0  0.21843  0.30057  0.43398  1.0000
  H   H26       1.0  0.78156  0.80057  0.06602  1.0000
  H   H27       1.0  0.78160  0.69943  0.56602  1.0000
  H   H28       1.0  0.21843  0.19942  0.93398  1.0000
  H   H29       1.0  0.26821  0.15863  0.58884  1.0000
  H   H30       1.0  0.73179  0.65863  0.91115  1.0000
  H   H31       1.0  0.73181  0.84137  0.41117  1.0000
  H   H32       1.0  0.26820  0.34138  0.08883  1.0000
  H   H33       1.0  0.31098  0.04493  0.68804  1.0000
  H   H34       1.0  0.68898  0.54494  0.81195  1.0000
  H   H35       1.0  0.68905  0.95507  0.31197  1.0000
  H   H36       1.0  0.31095  0.45507  0.18803  1.0000
  H   H37       1.0  0.67036  0.04692  0.77560  1.0000
  H   H38       1.0  0.32959  0.54694  0.72440  1.0000
  H   H39       1.0  0.32967  0.95307  0.22440  1.0000
  H   H40       1.0  0.67033  0.45308  0.27560  1.0000
  H   H41       1.0  0.98321  0.16265  0.76658  1.0000
  H   H42       1.0  0.01673  0.66267  0.73342  1.0000
  H   H43       1.0  0.01683  0.83733  0.23342  1.0000
  H   H44       1.0  0.98317  0.33734  0.26658  1.0000
  H   H45       1.0  0.93946  0.27617  0.66768  1.0000
  H   H46       1.0  0.06051  0.77618  0.83234  1.0000
  H   H47       1.0  0.06059  0.72382  0.33233  1.0000
  H   H48       1.0  0.93944  0.22383  0.16767  1.0000
  C   C1        1.0  0.97710  0.55295  0.39650  1.0000
  C   C2        1.0  0.02291  0.05296  0.10351  1.0000
  C   C3        1.0  0.02288  0.44704  0.60350  1.0000
  C   C4        1.0  0.97710  0.94703  0.89650  1.0000
  C   C5        1.0  0.70423  0.28620  0.49995  1.0000
  C   C6        1.0  0.29577  0.78621  0.00006  1.0000
  C   C7        1.0  0.29579  0.71379  0.50006  1.0000
  C   C8        1.0  0.70423  0.21379  0.99995  1.0000
  C   C9        1.0  0.96867  0.19425  0.41801  1.0000
  C   C10       1.0  0.03133  0.69425  0.08199  1.0000
  C   C11       1.0  0.03135  0.80575  0.58199  1.0000
  C   C12       1.0  0.96866  0.30575  0.91801  1.0000
  C   C13       1.0  0.90988  0.12276  0.37378  1.0000
  C   C14       1.0  0.09011  0.62276  0.12622  1.0000
  C   C15       1.0  0.09013  0.87724  0.62622  1.0000
  C   C16       1.0  0.90989  0.37723  0.87378  1.0000
  C   C17       1.0  0.05699  0.10173  0.31156  1.0000
  C   C18       1.0  0.94302  0.60173  0.18844  1.0000
  C   C19       1.0  0.94303  0.89827  0.68844  1.0000
  C   C20       1.0  0.05699  0.39827  0.81155  1.0000
  C   C21       1.0  0.26206  0.15182  0.29306  1.0000
  C   C22       1.0  0.73794  0.65182  0.20694  1.0000
  C   C23       1.0  0.73795  0.84819  0.70694  1.0000
  C   C24       1.0  0.26208  0.34818  0.79306  1.0000
  C   C25       1.0  0.31841  0.22348  0.33711  1.0000
  C   C26       1.0  0.68158  0.72348  0.16289  1.0000
  C   C27       1.0  0.68160  0.77652  0.66289  1.0000
  C   C28       1.0  0.31842  0.27652  0.83711  1.0000
  C   C29       1.0  0.17304  0.24492  0.39964  1.0000
  C   C30       1.0  0.82695  0.74492  0.10036  1.0000
  C   C31       1.0  0.82698  0.75508  0.60035  1.0000
  C   C32       1.0  0.17305  0.25508  0.89964  1.0000
  C   C33       1.0  0.60283  0.22296  0.62240  1.0000
  C   C34       1.0  0.39716  0.72297  0.87760  1.0000
  C   C35       1.0  0.39720  0.77704  0.37760  1.0000
  C   C36       1.0  0.60281  0.27704  0.12239  1.0000
  C   C37       1.0  0.42519  0.15820  0.62758  1.0000
  C   C38       1.0  0.57480  0.65821  0.87241  1.0000
  C   C39       1.0  0.57483  0.84180  0.37242  1.0000
  C   C40       1.0  0.42518  0.34180  0.12758  1.0000
  C   C41       1.0  0.45037  0.09486  0.68288  1.0000
  C   C42       1.0  0.54960  0.59487  0.81711  1.0000
  C   C43       1.0  0.54965  0.90514  0.31713  1.0000
  C   C44       1.0  0.45035  0.40515  0.18288  1.0000
  C   C45       1.0  0.65174  0.09616  0.73228  1.0000
  C   C46       1.0  0.34821  0.59616  0.76771  1.0000
  C   C47       1.0  0.34829  0.90384  0.26772  1.0000
  C   C48       1.0  0.65172  0.40385  0.23228  1.0000
  C   C49       1.0  0.82818  0.16114  0.72720  1.0000
  C   C50       1.0  0.17178  0.66115  0.77280  1.0000
  C   C51       1.0  0.17185  0.83885  0.27280  1.0000
  C   C52       1.0  0.82815  0.33886  0.22720  1.0000
  C   C53       1.0  0.80448  0.22468  0.67219  1.0000
  C   C54       1.0  0.19549  0.72469  0.82782  1.0000
  C   C55       1.0  0.19556  0.77531  0.32781  1.0000
  C   C56       1.0  0.80446  0.27532  0.17218  1.0000
  S   S1        1.0  0.22466  0.50703  0.36430  1.0000
  S   S2        1.0  0.77534  0.00704  0.13570  1.0000
  S   S3        1.0  0.77534  0.49296  0.63570  1.0000
  S   S4        1.0  0.22467  0.99296  0.86430  1.0000
  S   S5        1.0  0.70989  0.36949  0.43830  1.0000
  S   S6        1.0  0.29010  0.86949  0.06171  1.0000
  S   S7        1.0  0.29012  0.63051  0.56170  1.0000
  S   S8        1.0  0.70990  0.13051  0.93830  1.0000
  N   N1        1.0  0.79353  0.58535  0.42010  1.0000
  N   N2        1.0  0.20647  0.08536  0.07991  1.0000
  N   N3        1.0  0.20649  0.41463  0.57990  1.0000
  N   N4        1.0  0.79352  0.91464  0.92010  1.0000
  N   N5        1.0  0.82220  0.21187  0.48300  1.0000
  N   N6        1.0  0.17778  0.71187  0.01701  1.0000
  N   N7        1.0  0.17783  0.78813  0.51701  1.0000
  N   N8        1.0  0.82220  0.28813  0.98299  1.0000
  N   N9        1.0  0.58063  0.28815  0.56596  1.0000
  N   N10       1.0  0.41937  0.78815  0.93405  1.0000
  N   N11       1.0  0.41940  0.71185  0.43405  1.0000
  N   N12       1.0  0.58061  0.21185  0.06595  1.0000
