data_image0
_chemical_formula_structural       Zn4H32C16O28
_chemical_formula_sum              "Zn4 H32 C16 O28"
_cell_length_a       7.47146
_cell_length_b       9.55053
_cell_length_c       10.7979
_cell_angle_alpha    90.4207
_cell_angle_beta     90.0012
_cell_angle_gamma    90.0002

_space_group_name_H-M_alt    "P 1"
_space_group_IT_number       1

loop_
  _space_group_symop_operation_xyz
  'x, y, z'

loop_
  _atom_site_type_symbol
  _atom_site_label
  _atom_site_symmetry_multiplicity
  _atom_site_fract_x
  _atom_site_fract_y
  _atom_site_fract_z
  _atom_site_occupancy
  Zn  Zn1       1.0  0.83523  0.72105  0.57362  1.0000
  Zn  Zn2       1.0  0.33524  0.77894  0.92639  1.0000
  Zn  Zn3       1.0  0.16477  0.27895  0.42638  1.0000
  Zn  Zn4       1.0  0.66475  0.22105  0.07361  1.0000
  H   H1        1.0  0.73526  0.60123  0.25366  1.0000
  H   H2        1.0  0.23525  0.89877  0.24633  1.0000
  H   H3        1.0  0.26474  0.39876  0.74633  1.0000
  H   H4        1.0  0.76474  0.10123  0.75368  1.0000
  H   H5        1.0  0.40616  0.54585  0.41526  1.0000
  H   H6        1.0  0.90616  0.95416  0.08471  1.0000
  H   H7        1.0  0.59385  0.45416  0.58474  1.0000
  H   H8        1.0  0.09384  0.04584  0.91528  1.0000
  H   H9        1.0  0.39388  0.61097  0.26242  1.0000
  H   H10       1.0  0.89387  0.88904  0.23756  1.0000
  H   H11       1.0  0.60613  0.38903  0.73758  1.0000
  H   H12       1.0  0.10612  0.11097  0.76244  1.0000
  H   H13       1.0  0.95495  0.50277  0.72742  1.0000
  H   H14       1.0  0.45494  0.99722  0.77258  1.0000
  H   H15       1.0  0.04506  0.49723  0.27258  1.0000
  H   H16       1.0  0.54506  0.00278  0.22742  1.0000
  H   H17       1.0  0.05256  0.65841  0.73706  1.0000
  H   H18       1.0  0.55255  0.84158  0.76294  1.0000
  H   H19       1.0  0.94745  0.34158  0.26293  1.0000
  H   H20       1.0  0.44744  0.15842  0.23706  1.0000
  H   H21       1.0  0.08141  0.73216  0.38194  1.0000
  H   H22       1.0  0.58143  0.76785  0.11807  1.0000
  H   H23       1.0  0.91858  0.26784  0.61806  1.0000
  H   H24       1.0  0.41856  0.23216  0.88194  1.0000
  H   H25       1.0  0.11941  0.85896  0.47412  1.0000
  H   H26       1.0  0.61942  0.64105  0.02590  1.0000
  H   H27       1.0  0.88060  0.14105  0.52588  1.0000
  H   H28       1.0  0.38059  0.35897  0.97410  1.0000
  H   H29       1.0  0.84938  0.49685  0.40531  1.0000
  H   H30       1.0  0.34938  0.00314  0.09469  1.0000
  H   H31       1.0  0.15063  0.50314  0.59469  1.0000
  H   H32       1.0  0.65061  0.99685  0.90531  1.0000
  C   C1        1.0  0.65844  0.62009  0.33915  1.0000
  C   C2        1.0  0.15844  0.87990  0.16083  1.0000
  C   C3        1.0  0.34156  0.37990  0.66084  1.0000
  C   C4        1.0  0.84155  0.12009  0.83917  1.0000
  C   C5        1.0  0.64022  0.77902  0.35212  1.0000
  C   C6        1.0  0.14022  0.72097  0.14789  1.0000
  C   C7        1.0  0.35978  0.22098  0.64788  1.0000
  C   C8        1.0  0.85977  0.27903  0.85212  1.0000
  C   C9        1.0  0.47605  0.54937  0.32628  1.0000
  C   C10       1.0  0.97606  0.95063  0.17370  1.0000
  C   C11       1.0  0.52395  0.45063  0.67372  1.0000
  C   C12       1.0  0.02394  0.04937  0.82630  1.0000
  C   C13       1.0  0.49122  0.40512  0.26818  1.0000
  C   C14       1.0  0.99122  0.09489  0.23181  1.0000
  C   C15       1.0  0.50878  0.59488  0.73183  1.0000
  C   C16       1.0  0.00878  0.90512  0.76819  1.0000
  O   O1        1.0  0.75737  0.56318  0.44115  1.0000
  O   O2        1.0  0.25737  0.93681  0.05885  1.0000
  O   O3        1.0  0.24265  0.43682  0.55885  1.0000
  O   O4        1.0  0.74263  0.06318  0.94116  1.0000
  O   O5        1.0  0.69861  0.84163  0.44725  1.0000
  O   O6        1.0  0.19864  0.65835  0.05276  1.0000
  O   O7        1.0  0.30138  0.15836  0.55275  1.0000
  O   O8        1.0  0.80134  0.34164  0.94724  1.0000
  O   O9        1.0  0.56835  0.83964  0.25973  1.0000
  O   O10       1.0  0.06831  0.66037  0.24027  1.0000
  O   O11       1.0  0.43167  0.16036  0.74026  1.0000
  O   O12       1.0  0.93168  0.33963  0.75974  1.0000
  O   O13       1.0  0.39524  0.30389  0.30800  1.0000
  O   O14       1.0  0.89524  0.19611  0.19198  1.0000
  O   O15       1.0  0.60476  0.69611  0.69200  1.0000
  O   O16       1.0  0.10476  0.80389  0.80801  1.0000
  O   O17       1.0  0.60002  0.39383  0.17820  1.0000
  O   O18       1.0  0.10002  0.10617  0.32179  1.0000
  O   O19       1.0  0.39997  0.60616  0.82180  1.0000
  O   O20       1.0  0.89998  0.89383  0.67820  1.0000
  O   O21       1.0  0.99917  0.58601  0.67852  1.0000
  O   O22       1.0  0.49916  0.91398  0.82148  1.0000
  O   O23       1.0  0.00084  0.41398  0.32148  1.0000
  O   O24       1.0  0.50083  0.08602  0.17852  1.0000
  O   O25       1.0  0.08865  0.75980  0.47165  1.0000
  O   O26       1.0  0.58866  0.74020  0.02835  1.0000
  O   O27       1.0  0.91134  0.24021  0.52835  1.0000
  O   O28       1.0  0.41132  0.25981  0.97165  1.0000
