data_image0
_chemical_formula_structural       Ba2H36C28N24O16
_chemical_formula_sum              "Ba2 H36 C28 N24 O16"
_cell_length_a       6.9232
_cell_length_b       10.1149
_cell_length_c       16.5743
_cell_angle_alpha    99.0543
_cell_angle_beta     90
_cell_angle_gamma    90

_space_group_name_H-M_alt    "P 1"
_space_group_IT_number       1

loop_
  _space_group_symop_operation_xyz
  'x, y, z'

loop_
  _atom_site_type_symbol
  _atom_site_label
  _atom_site_symmetry_multiplicity
  _atom_site_fract_x
  _atom_site_fract_y
  _atom_site_fract_z
  _atom_site_occupancy
  Ba  Ba1       1.0  0.32901  0.25000  0.25000  1.0000
  Ba  Ba2       1.0  0.67099  0.75000  0.75000  1.0000
  H   H1        1.0  0.61539  0.17934  0.37372  1.0000
  H   H2        1.0  0.61539  0.32066  0.12628  1.0000
  H   H3        1.0  0.38461  0.82066  0.62628  1.0000
  H   H4        1.0  0.38461  0.67934  0.87372  1.0000
  H   H5        1.0  0.72421  0.32080  0.38937  1.0000
  H   H6        1.0  0.72421  0.17920  0.11063  1.0000
  H   H7        1.0  0.27579  0.67920  0.61063  1.0000
  H   H8        1.0  0.27579  0.82080  0.88937  1.0000
  H   H9        1.0  0.04628  0.03156  0.30788  1.0000
  H   H10       1.0  0.04627  0.46844  0.19212  1.0000
  H   H11       1.0  0.95372  0.96844  0.69212  1.0000
  H   H12       1.0  0.95373  0.53156  0.80787  1.0000
  H   H13       1.0  0.89203  0.14791  0.30055  1.0000
  H   H14       1.0  0.89203  0.35209  0.19945  1.0000
  H   H15       1.0  0.10797  0.85209  0.69945  1.0000
  H   H16       1.0  0.10798  0.64792  0.80055  1.0000
  H   H17       1.0  0.10413  0.46513  0.65887  1.0000
  H   H18       1.0  0.10412  0.03487  0.84113  1.0000
  H   H19       1.0  0.89587  0.53487  0.34113  1.0000
  H   H20       1.0  0.89587  0.96513  0.15887  1.0000
  H   H21       1.0  0.00991  0.22750  0.59349  1.0000
  H   H22       1.0  0.00990  0.27250  0.90651  1.0000
  H   H23       1.0  0.99010  0.77250  0.40651  1.0000
  H   H24       1.0  0.99009  0.72750  0.09349  1.0000
  H   H25       1.0  0.09110  0.15938  0.44374  1.0000
  H   H26       1.0  0.09109  0.34063  0.05626  1.0000
  H   H27       1.0  0.90891  0.84062  0.55626  1.0000
  H   H28       1.0  0.90891  0.65937  0.94374  1.0000
  H   H29       1.0  0.62022  0.86344  0.33498  1.0000
  H   H30       1.0  0.62022  0.63656  0.16501  1.0000
  H   H31       1.0  0.37979  0.13656  0.66502  1.0000
  H   H32       1.0  0.37978  0.36344  0.83499  1.0000
  H   H33       1.0  0.58254  0.90177  0.44303  1.0000
  H   H34       1.0  0.58254  0.59823  0.05697  1.0000
  H   H35       1.0  0.41745  0.09823  0.55697  1.0000
  H   H36       1.0  0.41746  0.40177  0.94303  1.0000
  C   C1        1.0  0.33934  0.55886  0.42278  1.0000
  C   C2        1.0  0.33934  0.94114  0.07722  1.0000
  C   C3        1.0  0.66066  0.44114  0.57722  1.0000
  C   C4        1.0  0.66066  0.05885  0.92279  1.0000
  C   C5        1.0  0.34779  0.95939  0.36863  1.0000
  C   C6        1.0  0.34778  0.54061  0.13137  1.0000
  C   C7        1.0  0.65223  0.04062  0.63137  1.0000
  C   C8        1.0  0.65221  0.45939  0.86863  1.0000
  C   C9        1.0  0.13433  0.42568  0.59462  1.0000
  C   C10       1.0  0.13433  0.07432  0.90538  1.0000
  C   C11       1.0  0.86566  0.57432  0.40538  1.0000
  C   C12       1.0  0.86567  0.92568  0.09462  1.0000
  C   C13       1.0  0.08350  0.29607  0.55894  1.0000
  C   C14       1.0  0.08349  0.20393  0.94106  1.0000
  C   C15       1.0  0.91651  0.70393  0.44106  1.0000
  C   C16       1.0  0.91651  0.79607  0.05895  1.0000
  C   C17       1.0  0.25161  0.46576  0.47158  1.0000
  C   C18       1.0  0.25161  0.03424  0.02842  1.0000
  C   C19       1.0  0.74839  0.53425  0.52842  1.0000
  C   C20       1.0  0.74839  0.96576  0.97158  1.0000
  C   C21       1.0  0.12536  0.25899  0.47620  1.0000
  C   C22       1.0  0.12535  0.24102  0.02380  1.0000
  C   C23       1.0  0.87465  0.74101  0.52380  1.0000
  C   C24       1.0  0.87465  0.75899  0.97620  1.0000
  C   C25       1.0  0.51432  0.86451  0.38416  1.0000
  C   C26       1.0  0.51432  0.63549  0.11584  1.0000
  C   C27       1.0  0.48568  0.13549  0.61584  1.0000
  C   C28       1.0  0.48569  0.36451  0.88416  1.0000
  N   N1        1.0  0.38149  0.68705  0.45121  1.0000
  N   N2        1.0  0.38149  0.81295  0.04879  1.0000
  N   N3        1.0  0.61851  0.31295  0.54879  1.0000
  N   N4        1.0  0.61851  0.18705  0.95121  1.0000
  N   N5        1.0  0.45490  0.72789  0.38550  1.0000
  N   N6        1.0  0.45490  0.77211  0.11450  1.0000
  N   N7        1.0  0.54510  0.27211  0.61450  1.0000
  N   N8        1.0  0.54510  0.22788  0.88550  1.0000
  N   N9        1.0  0.20950  0.34316  0.43182  1.0000
  N   N10       1.0  0.20950  0.15684  0.06818  1.0000
  N   N11       1.0  0.79050  0.65684  0.56818  1.0000
  N   N12       1.0  0.79050  0.84316  0.93182  1.0000
  N   N13       1.0  0.21887  0.51125  0.55110  1.0000
  N   N14       1.0  0.21887  0.98875  0.94890  1.0000
  N   N15       1.0  0.78113  0.48875  0.44890  1.0000
  N   N16       1.0  0.78113  0.01125  0.05110  1.0000
  N   N17       1.0  0.45935  0.63345  0.31926  1.0000
  N   N18       1.0  0.45934  0.86655  0.18074  1.0000
  N   N19       1.0  0.54065  0.36655  0.68074  1.0000
  N   N20       1.0  0.54065  0.13345  0.81926  1.0000
  N   N21       1.0  0.38621  0.52539  0.34246  1.0000
  N   N22       1.0  0.38621  0.97461  0.15754  1.0000
  N   N23       1.0  0.61379  0.47461  0.65754  1.0000
  N   N24       1.0  0.61378  0.02539  0.84246  1.0000
  O   O1        1.0  0.17731  0.91651  0.36091  1.0000
  O   O2        1.0  0.17732  0.58349  0.13909  1.0000
  O   O3        1.0  0.82267  0.08348  0.63908  1.0000
  O   O4        1.0  0.82269  0.41651  0.86091  1.0000
  O   O5        1.0  0.69552  0.24149  0.34748  1.0000
  O   O6        1.0  0.69552  0.25851  0.15252  1.0000
  O   O7        1.0  0.30448  0.75851  0.65252  1.0000
  O   O8        1.0  0.30448  0.74149  0.84748  1.0000
  O   O9        1.0  0.00180  0.09615  0.27240  1.0000
  O   O10       1.0  0.00179  0.40385  0.22760  1.0000
  O   O11       1.0  0.99821  0.90385  0.72760  1.0000
  O   O12       1.0  0.99821  0.59615  0.77240  1.0000
  O   O13       1.0  0.40576  0.07734  0.36513  1.0000
  O   O14       1.0  0.40576  0.42266  0.13487  1.0000
  O   O15       1.0  0.59423  0.92265  0.63487  1.0000
  O   O16       1.0  0.59424  0.57734  0.86513  1.0000
