data_image0
_chemical_formula_structural       H36Pb4C52N12O8
_chemical_formula_sum              "H36 Pb4 C52 N12 O8"
_cell_length_a       8.49803
_cell_length_b       11.167
_cell_length_c       13.6449
_cell_angle_alpha    111.587
_cell_angle_beta     90
_cell_angle_gamma    90

_space_group_name_H-M_alt    "P 1"
_space_group_IT_number       1

loop_
  _space_group_symop_operation_xyz
  'x, y, z'

loop_
  _atom_site_type_symbol
  _atom_site_label
  _atom_site_symmetry_multiplicity
  _atom_site_fract_x
  _atom_site_fract_y
  _atom_site_fract_z
  _atom_site_occupancy
  H   H1        1.0  0.11812  0.90591  0.32178  1.0000
  H   H2        1.0  0.61812  0.09409  0.17822  1.0000
  H   H3        1.0  0.88188  0.09409  0.67822  1.0000
  H   H4        1.0  0.38188  0.90591  0.82178  1.0000
  H   H5        1.0  0.36750  0.55868  0.29307  1.0000
  H   H6        1.0  0.86749  0.44132  0.20693  1.0000
  H   H7        1.0  0.63251  0.44133  0.70693  1.0000
  H   H8        1.0  0.13251  0.55867  0.79307  1.0000
  H   H9        1.0  0.22561  0.44858  0.11875  1.0000
  H   H10       1.0  0.72560  0.55142  0.38124  1.0000
  H   H11       1.0  0.77440  0.55143  0.88124  1.0000
  H   H12       1.0  0.27440  0.44857  0.61876  1.0000
  H   H13       1.0  0.05439  0.58400  0.05137  1.0000
  H   H14       1.0  0.55439  0.41600  0.44863  1.0000
  H   H15       1.0  0.94561  0.41600  0.94863  1.0000
  H   H16       1.0  0.44561  0.58400  0.55137  1.0000
  H   H17       1.0  0.21407  0.12980  0.60310  1.0000
  H   H18       1.0  0.71407  0.87020  0.89689  1.0000
  H   H19       1.0  0.78593  0.87021  0.39689  1.0000
  H   H20       1.0  0.28593  0.12979  0.10311  1.0000
  H   H21       1.0  0.59105  0.19015  0.95159  1.0000
  H   H22       1.0  0.09105  0.80985  0.54840  1.0000
  H   H23       1.0  0.40895  0.80985  0.04840  1.0000
  H   H24       1.0  0.90895  0.19015  0.45160  1.0000
  H   H25       1.0  0.46608  0.40661  0.02440  1.0000
  H   H26       1.0  0.96608  0.59338  0.47560  1.0000
  H   H27       1.0  0.53392  0.59339  0.97560  1.0000
  H   H28       1.0  0.03392  0.40661  0.52440  1.0000
  H   H29       1.0  0.27888  0.47623  0.91337  1.0000
  H   H30       1.0  0.77889  0.52377  0.58663  1.0000
  H   H31       1.0  0.72112  0.52377  0.08663  1.0000
  H   H32       1.0  0.22112  0.47623  0.41337  1.0000
  H   H33       1.0  0.21614  0.32408  0.73238  1.0000
  H   H34       1.0  0.71614  0.67592  0.76762  1.0000
  H   H35       1.0  0.78386  0.67592  0.26762  1.0000
  H   H36       1.0  0.28386  0.32408  0.23238  1.0000
  Pb  Pb1       1.0  0.60090  0.86820  0.60269  1.0000
  Pb  Pb2       1.0  0.10090  0.13180  0.89731  1.0000
  Pb  Pb3       1.0  0.39910  0.13180  0.39731  1.0000
  Pb  Pb4       1.0  0.89910  0.86820  0.10269  1.0000
  C   C1        1.0  0.14936  0.80556  0.27881  1.0000
  C   C2        1.0  0.64936  0.19443  0.22119  1.0000
  C   C3        1.0  0.85064  0.19444  0.72119  1.0000
  C   C4        1.0  0.35064  0.80556  0.77881  1.0000
  C   C5        1.0  0.25515  0.74025  0.32039  1.0000
  C   C6        1.0  0.75515  0.25975  0.17961  1.0000
  C   C7        1.0  0.74486  0.25975  0.67961  1.0000
  C   C8        1.0  0.24485  0.74025  0.82039  1.0000
  C   C9        1.0  0.28465  0.61003  0.26178  1.0000
  C   C10       1.0  0.78464  0.38997  0.23822  1.0000
  C   C11       1.0  0.71536  0.38998  0.73822  1.0000
  C   C12       1.0  0.21536  0.61002  0.76178  1.0000
  C   C13       1.0  0.20899  0.55032  0.16546  1.0000
  C   C14       1.0  0.70898  0.44968  0.33454  1.0000
  C   C15       1.0  0.79102  0.44968  0.83454  1.0000
  C   C16       1.0  0.29102  0.55032  0.66546  1.0000
  C   C17       1.0  0.11083  0.62383  0.12839  1.0000
  C   C18       1.0  0.61083  0.37617  0.37161  1.0000
  C   C19       1.0  0.88917  0.37617  0.87161  1.0000
  C   C20       1.0  0.38917  0.62383  0.62839  1.0000
  C   C21       1.0  0.33695  0.80441  0.42311  1.0000
  C   C22       1.0  0.83694  0.19558  0.07689  1.0000
  C   C23       1.0  0.66305  0.19559  0.57689  1.0000
  C   C24       1.0  0.16305  0.80441  0.92311  1.0000
  C   C25       1.0  0.31528  0.09274  0.63359  1.0000
  C   C26       1.0  0.81528  0.90726  0.86640  1.0000
  C   C27       1.0  0.68472  0.90726  0.36641  1.0000
  C   C28       1.0  0.18472  0.09274  0.13360  1.0000
  C   C29       1.0  0.36987  0.17294  0.73685  1.0000
  C   C30       1.0  0.86987  0.82706  0.76314  1.0000
  C   C31       1.0  0.63013  0.82707  0.26314  1.0000
  C   C32       1.0  0.13013  0.17293  0.23686  1.0000
  C   C33       1.0  0.48257  0.13500  0.79924  1.0000
  C   C34       1.0  0.98258  0.86499  0.70075  1.0000
  C   C35       1.0  0.51743  0.86499  0.20076  1.0000
  C   C36       1.0  0.01743  0.13500  0.29925  1.0000
  C   C37       1.0  0.50994  0.22218  0.90436  1.0000
  C   C38       1.0  0.00995  0.77782  0.59564  1.0000
  C   C39       1.0  0.49006  0.77782  0.09564  1.0000
  C   C40       1.0  0.99006  0.22218  0.40436  1.0000
  C   C41       1.0  0.43908  0.34193  0.94425  1.0000
  C   C42       1.0  0.93908  0.65807  0.55575  1.0000
  C   C43       1.0  0.56092  0.65807  0.05575  1.0000
  C   C44       1.0  0.06092  0.34193  0.44425  1.0000
  C   C45       1.0  0.33366  0.38137  0.88222  1.0000
  C   C46       1.0  0.83367  0.61863  0.61778  1.0000
  C   C47       1.0  0.66633  0.61863  0.11778  1.0000
  C   C48       1.0  0.16633  0.38137  0.38222  1.0000
  C   C49       1.0  0.30035  0.29676  0.78090  1.0000
  C   C50       1.0  0.80035  0.70324  0.71910  1.0000
  C   C51       1.0  0.69965  0.70325  0.21910  1.0000
  C   C52       1.0  0.19964  0.29676  0.28090  1.0000
  N   N1        1.0  0.08169  0.74892  0.18435  1.0000
  N   N2        1.0  0.58169  0.25108  0.31565  1.0000
  N   N3        1.0  0.91831  0.25108  0.81565  1.0000
  N   N4        1.0  0.41831  0.74892  0.68435  1.0000
  N   N5        1.0  0.29356  0.92618  0.47732  1.0000
  N   N6        1.0  0.79356  0.07382  0.02268  1.0000
  N   N7        1.0  0.70644  0.07382  0.52268  1.0000
  N   N8        1.0  0.20644  0.92618  0.97732  1.0000
  N   N9        1.0  0.36966  0.98049  0.57275  1.0000
  N   N10       1.0  0.86965  0.01951  0.92725  1.0000
  N   N11       1.0  0.63034  0.01951  0.42725  1.0000
  N   N12       1.0  0.13034  0.98049  0.07275  1.0000
  O   O1        1.0  0.43910  0.73811  0.45069  1.0000
  O   O2        1.0  0.93910  0.26189  0.04931  1.0000
  O   O3        1.0  0.56089  0.26189  0.54932  1.0000
  O   O4        1.0  0.06089  0.73811  0.95069  1.0000
  O   O5        1.0  0.55798  0.02586  0.76648  1.0000
  O   O6        1.0  0.05798  0.97414  0.73352  1.0000
  O   O7        1.0  0.44202  0.97414  0.23352  1.0000
  O   O8        1.0  0.94202  0.02586  0.26648  1.0000
