data_image0
_chemical_formula_structural       Cd4H56C48N16O16
_chemical_formula_sum              "Cd4 H56 C48 N16 O16"
_cell_length_a       8.89755
_cell_length_b       11.9469
_cell_length_c       13.215
_cell_angle_alpha    90
_cell_angle_beta     90
_cell_angle_gamma    90

_space_group_name_H-M_alt    "P 1"
_space_group_IT_number       1

loop_
  _space_group_symop_operation_xyz
  'x, y, z'

loop_
  _atom_site_type_symbol
  _atom_site_label
  _atom_site_symmetry_multiplicity
  _atom_site_fract_x
  _atom_site_fract_y
  _atom_site_fract_z
  _atom_site_occupancy
  Cd  Cd1       1.0  0.32608  0.74710  0.02125  1.0000
  Cd  Cd2       1.0  0.17392  0.25290  0.52125  1.0000
  Cd  Cd3       1.0  0.82608  0.75290  0.97875  1.0000
  Cd  Cd4       1.0  0.67392  0.24710  0.47875  1.0000
  H   H1        1.0  0.13626  0.51021  0.98088  1.0000
  H   H2        1.0  0.36375  0.48979  0.48087  1.0000
  H   H3        1.0  0.63625  0.98979  0.01913  1.0000
  H   H4        1.0  0.86375  0.01021  0.51913  1.0000
  H   H5        1.0  0.21753  0.34887  0.83749  1.0000
  H   H6        1.0  0.28247  0.65113  0.33749  1.0000
  H   H7        1.0  0.71753  0.15113  0.16251  1.0000
  H   H8        1.0  0.78247  0.84886  0.66251  1.0000
  H   H9        1.0  0.53626  0.61157  0.83529  1.0000
  H   H10       1.0  0.96374  0.38843  0.33529  1.0000
  H   H11       1.0  0.03625  0.88843  0.16471  1.0000
  H   H12       1.0  0.46374  0.11157  0.66471  1.0000
  H   H13       1.0  0.56227  0.46991  0.70285  1.0000
  H   H14       1.0  0.93773  0.53009  0.20285  1.0000
  H   H15       1.0  0.06227  0.03008  0.29715  1.0000
  H   H16       1.0  0.43773  0.96991  0.79715  1.0000
  H   H17       1.0  0.65082  0.34633  0.84130  1.0000
  H   H18       1.0  0.84918  0.65367  0.34130  1.0000
  H   H19       1.0  0.15082  0.15367  0.15870  1.0000
  H   H20       1.0  0.34918  0.84633  0.65870  1.0000
  H   H21       1.0  0.64705  0.27346  0.72303  1.0000
  H   H22       1.0  0.85295  0.72654  0.22303  1.0000
  H   H23       1.0  0.14705  0.22654  0.27697  1.0000
  H   H24       1.0  0.35295  0.77346  0.77697  1.0000
  H   H25       1.0  0.50461  0.24798  0.81439  1.0000
  H   H26       1.0  0.99539  0.75202  0.31439  1.0000
  H   H27       1.0  0.00461  0.25202  0.18561  1.0000
  H   H28       1.0  0.49539  0.74798  0.68561  1.0000
  H   H29       1.0  0.21866  0.18655  0.94864  1.0000
  H   H30       1.0  0.28134  0.81346  0.44864  1.0000
  H   H31       1.0  0.71866  0.31345  0.05136  1.0000
  H   H32       1.0  0.78134  0.68655  0.55136  1.0000
  H   H33       1.0  0.37166  0.02098  0.05477  1.0000
  H   H34       1.0  0.12834  0.97902  0.55477  1.0000
  H   H35       1.0  0.87166  0.47902  0.94523  1.0000
  H   H36       1.0  0.62834  0.52098  0.44523  1.0000
  H   H37       1.0  0.06588  0.86703  0.85425  1.0000
  H   H38       1.0  0.43413  0.13297  0.35425  1.0000
  H   H39       1.0  0.56587  0.63297  0.14575  1.0000
  H   H40       1.0  0.93412  0.36703  0.64575  1.0000
  H   H41       1.0  0.93891  0.02828  0.77812  1.0000
  H   H42       1.0  0.56109  0.97172  0.27812  1.0000
  H   H43       1.0  0.43891  0.47172  0.22188  1.0000
  H   H44       1.0  0.06109  0.52828  0.72188  1.0000
  H   H45       1.0  0.84564  0.14636  0.91769  1.0000
  H   H46       1.0  0.65436  0.85364  0.41769  1.0000
  H   H47       1.0  0.34564  0.35364  0.08231  1.0000
  H   H48       1.0  0.15436  0.64636  0.58231  1.0000
  H   H49       1.0  0.83881  0.21849  0.79939  1.0000
  H   H50       1.0  0.66119  0.78151  0.29939  1.0000
  H   H51       1.0  0.33881  0.28151  0.20061  1.0000
  H   H52       1.0  0.16119  0.71849  0.70061  1.0000
  H   H53       1.0  0.98028  0.25266  0.88876  1.0000
  H   H54       1.0  0.51972  0.74734  0.38876  1.0000
  H   H55       1.0  0.48028  0.24734  0.11124  1.0000
  H   H56       1.0  0.01972  0.75266  0.61124  1.0000
  C   C1        1.0  0.23154  0.50655  0.93011  1.0000
  C   C2        1.0  0.26846  0.49345  0.43011  1.0000
  C   C3        1.0  0.73153  0.99345  0.06989  1.0000
  C   C4        1.0  0.76847  0.00655  0.56989  1.0000
  C   C5        1.0  0.27052  0.42608  0.86089  1.0000
  C   C6        1.0  0.22949  0.57392  0.36089  1.0000
  C   C7        1.0  0.77051  0.07392  0.13911  1.0000
  C   C8        1.0  0.72948  0.92607  0.63911  1.0000
  C   C9        1.0  0.43585  0.56477  0.85530  1.0000
  C   C10       1.0  0.06415  0.43523  0.35530  1.0000
  C   C11       1.0  0.93585  0.93523  0.14470  1.0000
  C   C12       1.0  0.56415  0.06477  0.64470  1.0000
  C   C13       1.0  0.48562  0.40704  0.73528  1.0000
  C   C14       1.0  0.01437  0.59296  0.23528  1.0000
  C   C15       1.0  0.98563  0.09296  0.26471  1.0000
  C   C16       1.0  0.51438  0.90704  0.76472  1.0000
  C   C17       1.0  0.38254  0.36423  0.64981  1.0000
  C   C18       1.0  0.11746  0.63577  0.14981  1.0000
  C   C19       1.0  0.88254  0.13577  0.35019  1.0000
  C   C20       1.0  0.61746  0.86423  0.85019  1.0000
  C   C21       1.0  0.57802  0.31251  0.78175  1.0000
  C   C22       1.0  0.92198  0.68749  0.28175  1.0000
  C   C23       1.0  0.07802  0.18749  0.21825  1.0000
  C   C24       1.0  0.42198  0.81251  0.71825  1.0000
  C   C25       1.0  0.21007  0.09626  0.94565  1.0000
  C   C26       1.0  0.28993  0.90374  0.44565  1.0000
  C   C27       1.0  0.71007  0.40374  0.05435  1.0000
  C   C28       1.0  0.78993  0.59626  0.55435  1.0000
  C   C29       1.0  0.28618  0.01379  0.99673  1.0000
  C   C30       1.0  0.21382  0.98621  0.49673  1.0000
  C   C31       1.0  0.78618  0.48621  0.00327  1.0000
  C   C32       1.0  0.71382  0.51379  0.50327  1.0000
  C   C33       1.0  0.13006  0.93042  0.89444  1.0000
  C   C34       1.0  0.36994  0.06958  0.39444  1.0000
  C   C35       1.0  0.63006  0.56958  0.10556  1.0000
  C   C36       1.0  0.86994  0.43042  0.60556  1.0000
  C   C37       1.0  0.01216  0.09493  0.80768  1.0000
  C   C38       1.0  0.48784  0.90507  0.30768  1.0000
  C   C39       1.0  0.51216  0.40506  0.19232  1.0000
  C   C40       1.0  0.98784  0.59493  0.69232  1.0000
  C   C41       1.0  0.10429  0.14243  0.71780  1.0000
  C   C42       1.0  0.39570  0.85757  0.21781  1.0000
  C   C43       1.0  0.60430  0.35757  0.28219  1.0000
  C   C44       1.0  0.89570  0.64243  0.78219  1.0000
  C   C45       1.0  0.91330  0.18373  0.85703  1.0000
  C   C46       1.0  0.58670  0.81627  0.35703  1.0000
  C   C47       1.0  0.41330  0.31627  0.14297  1.0000
  C   C48       1.0  0.08670  0.68373  0.64297  1.0000
  N   N1        1.0  0.33528  0.59252  0.92568  1.0000
  N   N2        1.0  0.16473  0.40748  0.42568  1.0000
  N   N3        1.0  0.83527  0.90748  0.07432  1.0000
  N   N4        1.0  0.66473  0.09252  0.57432  1.0000
  N   N5        1.0  0.39926  0.46484  0.81359  1.0000
  N   N6        1.0  0.10074  0.53517  0.31359  1.0000
  N   N7        1.0  0.89926  0.03516  0.18641  1.0000
  N   N8        1.0  0.60074  0.96483  0.68641  1.0000
  N   N9        1.0  0.23526  0.91083  0.96402  1.0000
  N   N10       1.0  0.26474  0.08917  0.46402  1.0000
  N   N11       1.0  0.73526  0.58916  0.03598  1.0000
  N   N12       1.0  0.76474  0.41083  0.53598  1.0000
  N   N13       1.0  0.11104  0.04209  0.88180  1.0000
  N   N14       1.0  0.38896  0.95791  0.38180  1.0000
  N   N15       1.0  0.61104  0.45791  0.11820  1.0000
  N   N16       1.0  0.88896  0.54209  0.61820  1.0000
  O   O1        1.0  0.44185  0.30294  0.58174  1.0000
  O   O2        1.0  0.05815  0.69706  0.08174  1.0000
  O   O3        1.0  0.94185  0.19706  0.41826  1.0000
  O   O4        1.0  0.55815  0.80294  0.91826  1.0000
  O   O5        1.0  0.24474  0.38993  0.65166  1.0000
  O   O6        1.0  0.25526  0.61007  0.15166  1.0000
  O   O7        1.0  0.74475  0.11007  0.34834  1.0000
  O   O8        1.0  0.75526  0.88993  0.84834  1.0000
  O   O9        1.0  0.24417  0.13229  0.71757  1.0000
  O   O10       1.0  0.25583  0.86771  0.21757  1.0000
  O   O11       1.0  0.74417  0.36771  0.28243  1.0000
  O   O12       1.0  0.75583  0.63229  0.78243  1.0000
  O   O13       1.0  0.02372  0.18862  0.64861  1.0000
  O   O14       1.0  0.47628  0.81138  0.14861  1.0000
  O   O15       1.0  0.52372  0.31138  0.35139  1.0000
  O   O16       1.0  0.97628  0.68862  0.85139  1.0000
