data_image0
_chemical_formula_structural       Mn4H56C20O32
_chemical_formula_sum              "Mn4 H56 C20 O32"
_cell_length_a       6.91469
_cell_length_b       7.43802
_cell_length_c       21.0673
_cell_angle_alpha    85.3949
_cell_angle_beta     81.1824
_cell_angle_gamma    62.3079

_space_group_name_H-M_alt    "P 1"
_space_group_IT_number       1

loop_
  _space_group_symop_operation_xyz
  'x, y, z'

loop_
  _atom_site_type_symbol
  _atom_site_label
  _atom_site_symmetry_multiplicity
  _atom_site_fract_x
  _atom_site_fract_y
  _atom_site_fract_z
  _atom_site_occupancy
  Mn  Mn1       1.0  0.73302  0.60881  0.68339  1.0000
  Mn  Mn2       1.0  0.02470  0.88892  0.81632  1.0000
  Mn  Mn3       1.0  0.26699  0.39119  0.31661  1.0000
  Mn  Mn4       1.0  0.97530  0.11108  0.18368  1.0000
  H   H1        1.0  0.46567  0.66569  0.90704  1.0000
  H   H2        1.0  0.04099  0.83306  0.59088  1.0000
  H   H3        1.0  0.53432  0.33431  0.09296  1.0000
  H   H4        1.0  0.95902  0.16694  0.40912  1.0000
  H   H5        1.0  0.71279  0.43756  0.90853  1.0000
  H   H6        1.0  0.06037  0.06129  0.59100  1.0000
  H   H7        1.0  0.28720  0.56245  0.09147  1.0000
  H   H8        1.0  0.93964  0.93871  0.40900  1.0000
  H   H9        1.0  0.66297  0.85889  0.93386  1.0000
  H   H10       1.0  0.45763  0.64078  0.56632  1.0000
  H   H11       1.0  0.33702  0.14112  0.06614  1.0000
  H   H12       1.0  0.54237  0.35922  0.43368  1.0000
  H   H13       1.0  0.90364  0.62822  0.93697  1.0000
  H   H14       1.0  0.46932  0.87184  0.56437  1.0000
  H   H15       1.0  0.09635  0.37178  0.06302  1.0000
  H   H16       1.0  0.53068  0.12816  0.43563  1.0000
  H   H17       1.0  0.47077  0.74469  0.02750  1.0000
  H   H18       1.0  0.24429  0.75570  0.47144  1.0000
  H   H19       1.0  0.52923  0.25531  0.97251  1.0000
  H   H20       1.0  0.75571  0.24430  0.52856  1.0000
  H   H21       1.0  0.70904  0.51149  0.03021  1.0000
  H   H22       1.0  0.25221  0.98858  0.46958  1.0000
  H   H23       1.0  0.29095  0.48851  0.96979  1.0000
  H   H24       1.0  0.74779  0.01142  0.53042  1.0000
  H   H25       1.0  0.63063  0.30469  0.64985  1.0000
  H   H26       1.0  0.58665  0.19324  0.84946  1.0000
  H   H27       1.0  0.36938  0.69531  0.35015  1.0000
  H   H28       1.0  0.41336  0.80676  0.15054  1.0000
  H   H29       1.0  0.84350  0.19217  0.68674  1.0000
  H   H30       1.0  0.72147  0.30580  0.81233  1.0000
  H   H31       1.0  0.15651  0.80783  0.31326  1.0000
  H   H32       1.0  0.27853  0.69420  0.18767  1.0000
  H   H33       1.0  0.20937  0.39691  0.66797  1.0000
  H   H34       1.0  0.27503  0.10077  0.83220  1.0000
  H   H35       1.0  0.79063  0.60309  0.33203  1.0000
  H   H36       1.0  0.72497  0.89923  0.16780  1.0000
  H   H37       1.0  0.13183  0.51649  0.73410  1.0000
  H   H38       1.0  0.37963  0.97931  0.76636  1.0000
  H   H39       1.0  0.86817  0.48350  0.26590  1.0000
  H   H40       1.0  0.62037  0.02069  0.23364  1.0000
  H   H41       1.0  0.56519  0.03597  0.66537  1.0000
  H   H42       1.0  0.27000  0.46237  0.83430  1.0000
  H   H43       1.0  0.43482  0.96402  0.33463  1.0000
  H   H44       1.0  0.73000  0.53763  0.16570  1.0000
  H   H45       1.0  0.76196  0.94150  0.70771  1.0000
  H   H46       1.0  0.41186  0.55717  0.79150  1.0000
  H   H47       1.0  0.23804  0.05850  0.29229  1.0000
  H   H48       1.0  0.58814  0.44283  0.20850  1.0000
  H   H49       1.0  0.79158  0.64260  0.54399  1.0000
  H   H50       1.0  0.97817  0.85646  0.95613  1.0000
  H   H51       1.0  0.20842  0.35740  0.45601  1.0000
  H   H52       1.0  0.02183  0.14354  0.04387  1.0000
  H   H53       1.0  0.01834  0.51673  0.57062  1.0000
  H   H54       1.0  0.10463  0.98261  0.92981  1.0000
  H   H55       1.0  0.98167  0.48327  0.42938  1.0000
  H   H56       1.0  0.89536  0.01740  0.07019  1.0000
  C   C1        1.0  0.71398  0.63782  0.83039  1.0000
  C   C2        1.0  0.18378  0.85912  0.66926  1.0000
  C   C3        1.0  0.28602  0.36218  0.16961  1.0000
  C   C4        1.0  0.81622  0.14088  0.33074  1.0000
  C   C5        1.0  0.64668  0.60242  0.90015  1.0000
  C   C6        1.0  0.15111  0.89629  0.59910  1.0000
  C   C7        1.0  0.35331  0.39758  0.09985  1.0000
  C   C8        1.0  0.84889  0.10371  0.40090  1.0000
  C   C9        1.0  0.72307  0.69678  0.94569  1.0000
  C   C10       1.0  0.36691  0.80295  0.55454  1.0000
  C   C11       1.0  0.27692  0.30322  0.05431  1.0000
  C   C12       1.0  0.63309  0.19705  0.44546  1.0000
  C   C13       1.0  0.65183  0.67248  0.01633  1.0000
  C   C14       1.0  0.34192  0.82755  0.48353  1.0000
  C   C15       1.0  0.34817  0.32752  0.98367  1.0000
  C   C16       1.0  0.65808  0.17245  0.51647  1.0000
  C   C17       1.0  0.73586  0.76483  0.06023  1.0000
  C   C18       1.0  0.56105  0.73499  0.44038  1.0000
  C   C19       1.0  0.26413  0.23517  0.93977  1.0000
  C   C20       1.0  0.43895  0.26501  0.55962  1.0000
  O   O1        1.0  0.67295  0.54734  0.78780  1.0000
  O   O2        1.0  0.01025  0.94906  0.71122  1.0000
  O   O3        1.0  0.32704  0.45266  0.21220  1.0000
  O   O4        1.0  0.98976  0.05094  0.28878  1.0000
  O   O5        1.0  0.80362  0.75095  0.81505  1.0000
  O   O6        1.0  0.37068  0.74505  0.68544  1.0000
  O   O7        1.0  0.19638  0.24906  0.18495  1.0000
  O   O8        1.0  0.62933  0.25494  0.31456  1.0000
  O   O9        1.0  0.85385  0.84797  0.03610  1.0000
  O   O10       1.0  0.73839  0.65035  0.46515  1.0000
  O   O11       1.0  0.14614  0.15203  0.96390  1.0000
  O   O12       1.0  0.26161  0.34965  0.53485  1.0000
  O   O13       1.0  0.68116  0.75558  0.12132  1.0000
  O   O14       1.0  0.55738  0.74519  0.37914  1.0000
  O   O15       1.0  0.31885  0.24442  0.87868  1.0000
  O   O16       1.0  0.44262  0.25481  0.62086  1.0000
  O   O17       1.0  0.74472  0.32414  0.66762  1.0000
  O   O18       1.0  0.73629  0.17364  0.83121  1.0000
  O   O19       1.0  0.25529  0.67586  0.33239  1.0000
  O   O20       1.0  0.26371  0.82636  0.16879  1.0000
  O   O21       1.0  0.07708  0.48491  0.69816  1.0000
  O   O22       1.0  0.26151  0.00926  0.80265  1.0000
  O   O23       1.0  0.92292  0.51509  0.30184  1.0000
  O   O24       1.0  0.73849  0.99074  0.19735  1.0000
  O   O25       1.0  0.62912  0.93239  0.69923  1.0000
  O   O26       1.0  0.26210  0.56612  0.80049  1.0000
  O   O27       1.0  0.37088  0.06761  0.30077  1.0000
  O   O28       1.0  0.73790  0.43387  0.19951  1.0000
  O   O29       1.0  0.86489  0.62724  0.58262  1.0000
  O   O30       1.0  0.07400  0.87111  0.91797  1.0000
  O   O31       1.0  0.13512  0.37276  0.41738  1.0000
  O   O32       1.0  0.92600  0.12889  0.08203  1.0000
