data_image0
_chemical_formula_structural       Hg4H32C24S4N4O16
_chemical_formula_sum              "Hg4 H32 C24 S4 N4 O16"
_cell_length_a       7.57142
_cell_length_b       10.3858
_cell_length_c       11.9948
_cell_angle_alpha    107.74
_cell_angle_beta     90.0001
_cell_angle_gamma    90

_space_group_name_H-M_alt    "P 1"
_space_group_IT_number       1

loop_
  _space_group_symop_operation_xyz
  'x, y, z'

loop_
  _atom_site_type_symbol
  _atom_site_label
  _atom_site_symmetry_multiplicity
  _atom_site_fract_x
  _atom_site_fract_y
  _atom_site_fract_z
  _atom_site_occupancy
  Hg  Hg1       1.0  0.88123  0.40554  0.47490  1.0000
  Hg  Hg2       1.0  0.38123  0.09446  0.02510  1.0000
  Hg  Hg3       1.0  0.11877  0.59446  0.52510  1.0000
  Hg  Hg4       1.0  0.61877  0.90554  0.97490  1.0000
  H   H1        1.0  0.60043  0.23530  0.37839  1.0000
  H   H2        1.0  0.10043  0.26470  0.12161  1.0000
  H   H3        1.0  0.39957  0.76470  0.62161  1.0000
  H   H4        1.0  0.89957  0.73530  0.87839  1.0000
  H   H5        1.0  0.69299  0.62626  0.66530  1.0000
  H   H6        1.0  0.19299  0.87374  0.83470  1.0000
  H   H7        1.0  0.30700  0.37374  0.33470  1.0000
  H   H8        1.0  0.80700  0.12626  0.16530  1.0000
  H   H9        1.0  0.78792  0.14853  0.37272  1.0000
  H   H10       1.0  0.28791  0.35147  0.12728  1.0000
  H   H11       1.0  0.21208  0.85147  0.62728  1.0000
  H   H12       1.0  0.71209  0.64853  0.87272  1.0000
  H   H13       1.0  0.56466  0.51353  0.67214  1.0000
  H   H14       1.0  0.06466  0.98647  0.82786  1.0000
  H   H15       1.0  0.43533  0.48647  0.32786  1.0000
  H   H16       1.0  0.93533  0.01353  0.17214  1.0000
  H   H17       1.0  0.85061  0.02983  0.50919  1.0000
  H   H18       1.0  0.35060  0.47017  0.99081  1.0000
  H   H19       1.0  0.14939  0.97017  0.49081  1.0000
  H   H20       1.0  0.64939  0.52983  0.00919  1.0000
  H   H21       1.0  0.45450  0.05280  0.77390  1.0000
  H   H22       1.0  0.95449  0.44720  0.72610  1.0000
  H   H23       1.0  0.54551  0.94720  0.22610  1.0000
  H   H24       1.0  0.04551  0.55280  0.27390  1.0000
  H   H25       1.0  0.30007  0.23336  0.71550  1.0000
  H   H26       1.0  0.80007  0.26664  0.78450  1.0000
  H   H27       1.0  0.69993  0.76664  0.28450  1.0000
  H   H28       1.0  0.19993  0.73336  0.21550  1.0000
  H   H29       1.0  0.41683  0.31058  0.55405  1.0000
  H   H30       1.0  0.91683  0.18941  0.94595  1.0000
  H   H31       1.0  0.58317  0.68941  0.44595  1.0000
  H   H32       1.0  0.08317  0.81058  0.05405  1.0000
  C   C1        1.0  0.64178  0.17624  0.52257  1.0000
  C   C2        1.0  0.14177  0.32376  0.97743  1.0000
  C   C3        1.0  0.35823  0.82376  0.47743  1.0000
  C   C4        1.0  0.85823  0.67624  0.02257  1.0000
  C   C5        1.0  0.73173  0.07602  0.55546  1.0000
  C   C6        1.0  0.23172  0.42399  0.94455  1.0000
  C   C7        1.0  0.26827  0.92398  0.44455  1.0000
  C   C8        1.0  0.76828  0.57601  0.05545  1.0000
  C   C9        1.0  0.66370  0.03369  0.64646  1.0000
  C   C10       1.0  0.16369  0.46631  0.85354  1.0000
  C   C11       1.0  0.33630  0.96631  0.35354  1.0000
  C   C12       1.0  0.83631  0.53369  0.14646  1.0000
  C   C13       1.0  0.50945  0.08979  0.70553  1.0000
  C   C14       1.0  0.00945  0.41022  0.79448  1.0000
  C   C15       1.0  0.49055  0.91021  0.29448  1.0000
  C   C16       1.0  0.99055  0.58978  0.20552  1.0000
  C   C17       1.0  0.42226  0.19022  0.67195  1.0000
  C   C18       1.0  0.92225  0.30978  0.82805  1.0000
  C   C19       1.0  0.57775  0.80978  0.32805  1.0000
  C   C20       1.0  0.07775  0.69022  0.17195  1.0000
  C   C21       1.0  0.48777  0.23392  0.58100  1.0000
  C   C22       1.0  0.98777  0.26609  0.91900  1.0000
  C   C23       1.0  0.51223  0.76608  0.41900  1.0000
  C   C24       1.0  0.01223  0.73391  0.08100  1.0000
  S   S1        1.0  0.77451  0.90468  0.68849  1.0000
  S   S2        1.0  0.27451  0.59532  0.81152  1.0000
  S   S3        1.0  0.22549  0.09532  0.31151  1.0000
  S   S4        1.0  0.72548  0.40468  0.18848  1.0000
  N   N1        1.0  0.70574  0.21918  0.42711  1.0000
  N   N2        1.0  0.20574  0.28082  0.07289  1.0000
  N   N3        1.0  0.29426  0.78082  0.57289  1.0000
  N   N4        1.0  0.79426  0.71918  0.92711  1.0000
  O   O1        1.0  0.83309  0.96875  0.81099  1.0000
  O   O2        1.0  0.33309  0.53125  0.68901  1.0000
  O   O3        1.0  0.16691  0.03125  0.18901  1.0000
  O   O4        1.0  0.66691  0.46875  0.31099  1.0000
  O   O5        1.0  0.64076  0.79908  0.68423  1.0000
  O   O6        1.0  0.14076  0.70092  0.81577  1.0000
  O   O7        1.0  0.35924  0.20092  0.31577  1.0000
  O   O8        1.0  0.85924  0.29908  0.18423  1.0000
  O   O9        1.0  0.92100  0.85810  0.60669  1.0000
  O   O10       1.0  0.42099  0.64190  0.89331  1.0000
  O   O11       1.0  0.07900  0.14190  0.39331  1.0000
  O   O12       1.0  0.57900  0.35810  0.10669  1.0000
  O   O13       1.0  0.69225  0.53140  0.66631  1.0000
  O   O14       1.0  0.19225  0.96861  0.83369  1.0000
  O   O15       1.0  0.30775  0.46860  0.33369  1.0000
  O   O16       1.0  0.80775  0.03140  0.16631  1.0000
