data_image0
_chemical_formula_structural       Cd2H16C18N6O14
_chemical_formula_sum              "Cd2 H16 C18 N6 O14"
_cell_length_a       8.90667
_cell_length_b       9.90883
_cell_length_c       10.369
_cell_angle_alpha    103.73
_cell_angle_beta     112.064
_cell_angle_gamma    103.329

_space_group_name_H-M_alt    "P 1"
_space_group_IT_number       1

loop_
  _space_group_symop_operation_xyz
  'x, y, z'

loop_
  _atom_site_type_symbol
  _atom_site_label
  _atom_site_symmetry_multiplicity
  _atom_site_fract_x
  _atom_site_fract_y
  _atom_site_fract_z
  _atom_site_occupancy
  Cd  Cd1       1.0  0.28811  0.90406  0.30983  1.0000
  Cd  Cd2       1.0  0.71192  0.09596  0.69019  1.0000
  H   H1        1.0  0.07319  0.98759  0.67028  1.0000
  H   H2        1.0  0.92682  0.01239  0.32972  1.0000
  H   H3        1.0  0.05769  0.81726  0.70179  1.0000
  H   H4        1.0  0.94232  0.18272  0.29823  1.0000
  H   H5        1.0  0.41110  0.05590  0.80915  1.0000
  H   H6        1.0  0.58892  0.94408  0.19087  1.0000
  H   H7        1.0  0.36587  0.86420  0.77900  1.0000
  H   H8        1.0  0.63414  0.13578  0.22101  1.0000
  H   H9        1.0  0.14368  0.37308  0.21156  1.0000
  H   H10       1.0  0.85629  0.62692  0.78842  1.0000
  H   H11       1.0  0.05739  0.35902  0.02151  1.0000
  H   H12       1.0  0.94259  0.64097  0.97846  1.0000
  H   H13       1.0  0.44854  0.48009  0.23941  1.0000
  H   H14       1.0  0.55143  0.51990  0.76055  1.0000
  H   H15       1.0  0.35643  0.47167  0.05216  1.0000
  H   H16       1.0  0.64354  0.52833  0.94781  1.0000
  C   C1        1.0  0.15380  0.14600  0.92787  1.0000
  C   C2        1.0  0.84620  0.85399  0.07212  1.0000
  C   C3        1.0  0.22597  0.14473  0.18017  1.0000
  C   C4        1.0  0.77404  0.85528  0.81984  1.0000
  C   C5        1.0  0.21401  0.93775  0.99667  1.0000
  C   C6        1.0  0.78600  0.06227  0.00335  1.0000
  C   C7        1.0  0.14185  0.93316  0.74047  1.0000
  C   C8        1.0  0.85816  0.06682  0.25955  1.0000
  C   C9        1.0  0.31410  0.94386  0.73708  1.0000
  C   C10       1.0  0.68591  0.05613  0.26293  1.0000
  C   C11       1.0  0.30512  0.92313  0.58588  1.0000
  C   C12       1.0  0.69490  0.07687  0.41414  1.0000
  C   C13       1.0  0.16908  0.35939  0.11485  1.0000
  C   C14       1.0  0.83090  0.64061  0.88513  1.0000
  C   C15       1.0  0.33405  0.48360  0.15099  1.0000
  C   C16       1.0  0.66593  0.51641  0.84898  1.0000
  C   C17       1.0  0.32283  0.63466  0.20279  1.0000
  C   C18       1.0  0.67717  0.36534  0.79720  1.0000
  N   N1        1.0  0.16965  0.00771  0.89261  1.0000
  N   N2        1.0  0.83037  0.99230  0.10740  1.0000
  N   N3        1.0  0.18596  0.21321  0.07400  1.0000
  N   N4        1.0  0.81403  0.78679  0.92599  1.0000
  N   N5        1.0  0.23342  0.00622  0.13557  1.0000
  N   N6        1.0  0.76659  0.99380  0.86444  1.0000
  O   O1        1.0  0.11233  0.20659  0.83562  1.0000
  O   O2        1.0  0.88766  0.79340  0.16437  1.0000
  O   O3        1.0  0.24898  0.20761  0.30809  1.0000
  O   O4        1.0  0.75104  0.79241  0.69191  1.0000
  O   O5        1.0  0.23265  0.81645  0.95967  1.0000
  O   O6        1.0  0.76737  0.18356  0.04036  1.0000
  O   O7        1.0  0.43077  0.90039  0.56224  1.0000
  O   O8        1.0  0.56924  0.09963  0.43778  1.0000
  O   O9        1.0  0.17883  0.93046  0.48094  1.0000
  O   O10       1.0  0.82118  0.06953  0.51906  1.0000
  O   O11       1.0  0.45410  0.75060  0.24880  1.0000
  O   O12       1.0  0.54588  0.24939  0.75120  1.0000
  O   O13       1.0  0.18303  0.64723  0.20257  1.0000
  O   O14       1.0  0.81697  0.35279  0.79744  1.0000
