data_image0
_chemical_formula_structural       Ni4H48C16O32
_chemical_formula_sum              "Ni4 H48 C16 O32"
_cell_length_a       7.39471
_cell_length_b       7.63652
_cell_length_c       14.1706
_cell_angle_alpha    89.9846
_cell_angle_beta     90.0086
_cell_angle_gamma    98.7459

_space_group_name_H-M_alt    "P 1"
_space_group_IT_number       1

loop_
  _space_group_symop_operation_xyz
  'x, y, z'

loop_
  _atom_site_type_symbol
  _atom_site_label
  _atom_site_symmetry_multiplicity
  _atom_site_fract_x
  _atom_site_fract_y
  _atom_site_fract_z
  _atom_site_occupancy
  Ni  Ni1       1.0  0.07740  0.81169  0.64326  1.0000
  Ni  Ni2       1.0  0.92330  0.68836  0.14348  1.0000
  Ni  Ni3       1.0  0.92316  0.18819  0.35658  1.0000
  Ni  Ni4       1.0  0.07666  0.31164  0.85646  1.0000
  H   H1        1.0  0.73872  0.26928  0.69569  1.0000
  H   H2        1.0  0.26167  0.23068  0.19604  1.0000
  H   H3        1.0  0.26143  0.73071  0.30408  1.0000
  H   H4        1.0  0.73846  0.76951  0.80396  1.0000
  H   H5        1.0  0.55490  0.38833  0.70657  1.0000
  H   H6        1.0  0.44600  0.11210  0.20624  1.0000
  H   H7        1.0  0.44579  0.61218  0.29366  1.0000
  H   H8        1.0  0.55415  0.88817  0.79384  1.0000
  H   H9        1.0  0.64295  0.18914  0.52863  1.0000
  H   H10       1.0  0.35576  0.31153  0.02885  1.0000
  H   H11       1.0  0.35587  0.81111  0.47128  1.0000
  H   H12       1.0  0.64432  0.68815  0.97108  1.0000
  H   H13       1.0  0.44811  0.29751  0.54234  1.0000
  H   H14       1.0  0.55106  0.20368  0.04190  1.0000
  H   H15       1.0  0.55116  0.70321  0.45805  1.0000
  H   H16       1.0  0.44910  0.79619  0.95815  1.0000
  H   H17       1.0  0.27400  0.58710  0.56721  1.0000
  H   H18       1.0  0.72763  0.91190  0.06711  1.0000
  H   H19       1.0  0.72768  0.41187  0.43279  1.0000
  H   H20       1.0  0.27236  0.08765  0.93269  1.0000
  H   H21       1.0  0.38656  0.73212  0.63729  1.0000
  H   H22       1.0  0.61417  0.76719  0.13720  1.0000
  H   H23       1.0  0.61406  0.26714  0.36283  1.0000
  H   H24       1.0  0.38562  0.23245  0.86268  1.0000
  H   H25       1.0  0.88424  0.03295  0.71638  1.0000
  H   H26       1.0  0.11539  0.46745  0.21678  1.0000
  H   H27       1.0  0.11535  0.96732  0.28352  1.0000
  H   H28       1.0  0.88467  0.53270  0.78329  1.0000
  H   H29       1.0  0.75162  0.94365  0.63646  1.0000
  H   H30       1.0  0.24741  0.55728  0.13660  1.0000
  H   H31       1.0  0.24731  0.05716  0.36362  1.0000
  H   H32       1.0  0.75251  0.44277  0.86338  1.0000
  H   H33       1.0  0.18518  0.72842  0.81631  1.0000
  H   H34       1.0  0.81523  0.77166  0.31758  1.0000
  H   H35       1.0  0.81487  0.27155  0.18252  1.0000
  H   H36       1.0  0.18408  0.22800  0.68258  1.0000
  H   H37       1.0  0.19345  0.93940  0.80852  1.0000
  H   H38       1.0  0.80646  0.56068  0.30938  1.0000
  H   H39       1.0  0.80621  0.06060  0.19058  1.0000
  H   H40       1.0  0.19402  0.43907  0.69069  1.0000
  H   H41       1.0  0.04702  0.87390  0.45084  1.0000
  H   H42       1.0  0.95310  0.62659  0.94965  1.0000
  H   H43       1.0  0.95152  0.12710  0.55076  1.0000
  H   H44       1.0  0.04740  0.37352  0.05039  1.0000
  H   H45       1.0  0.92164  0.69960  0.49689  1.0000
  H   H46       1.0  0.07907  0.79990  0.99610  1.0000
  H   H47       1.0  0.07850  0.29960  0.50403  1.0000
  H   H48       1.0  0.92147  0.20016  0.00400  1.0000
  C   C1        1.0  0.76623  0.50409  0.61408  1.0000
  C   C2        1.0  0.23412  0.99626  0.11412  1.0000
  C   C3        1.0  0.23410  0.49597  0.38580  1.0000
  C   C4        1.0  0.76607  0.00374  0.88600  1.0000
  C   C5        1.0  0.64785  0.34181  0.65488  1.0000
  C   C6        1.0  0.35235  0.15856  0.15487  1.0000
  C   C7        1.0  0.35224  0.65845  0.34513  1.0000
  C   C8        1.0  0.64777  0.84154  0.84517  1.0000
  C   C9        1.0  0.54322  0.22469  0.57950  1.0000
  C   C10       1.0  0.45612  0.27616  0.07942  1.0000
  C   C11       1.0  0.45614  0.77583  0.42064  1.0000
  C   C12       1.0  0.54398  0.72375  0.92057  1.0000
  C   C13       1.0  0.43811  0.05255  0.61632  1.0000
  C   C14       1.0  0.56136  0.44797  0.11634  1.0000
  C   C15       1.0  0.56137  0.94773  0.38378  1.0000
  C   C16       1.0  0.43859  0.55208  0.88354  1.0000
  O   O1        1.0  0.87319  0.59839  0.67253  1.0000
  O   O2        1.0  0.12712  0.90193  0.17252  1.0000
  O   O3        1.0  0.12696  0.40181  0.32737  1.0000
  O   O4        1.0  0.87309  0.09801  0.82758  1.0000
  O   O5        1.0  0.75568  0.54270  0.52747  1.0000
  O   O6        1.0  0.24489  0.95762  0.02753  1.0000
  O   O7        1.0  0.24500  0.45718  0.47235  1.0000
  O   O8        1.0  0.75534  0.04235  0.97259  1.0000
  O   O9        1.0  0.26477  0.04436  0.62774  1.0000
  O   O10       1.0  0.73450  0.45581  0.12805  1.0000
  O   O11       1.0  0.73452  0.95561  0.37206  1.0000
  O   O12       1.0  0.26555  0.54453  0.87155  1.0000
  O   O13       1.0  0.52239  0.92131  0.63126  1.0000
  O   O14       1.0  0.47717  0.57941  0.13121  1.0000
  O   O15       1.0  0.47713  0.07917  0.36897  1.0000
  O   O16       1.0  0.52269  0.42053  0.86876  1.0000
  O   O17       1.0  0.27640  0.63615  0.63311  1.0000
  O   O18       1.0  0.72538  0.86223  0.13294  1.0000
  O   O19       1.0  0.72520  0.36226  0.36700  1.0000
  O   O20       1.0  0.27452  0.13732  0.86687  1.0000
  O   O21       1.0  0.88450  0.98596  0.64989  1.0000
  O   O22       1.0  0.11464  0.51499  0.15032  1.0000
  O   O23       1.0  0.11455  0.01493  0.34990  1.0000
  O   O24       1.0  0.88532  0.48499  0.84967  1.0000
  O   O25       1.0  0.12669  0.82364  0.78676  1.0000
  O   O26       1.0  0.87322  0.67647  0.28771  1.0000
  O   O27       1.0  0.87276  0.17633  0.21240  1.0000
  O   O28       1.0  0.12660  0.32351  0.71239  1.0000
  O   O29       1.0  0.04053  0.78242  0.50080  1.0000
  O   O30       1.0  0.96051  0.71692  0.00019  1.0000
  O   O31       1.0  0.95995  0.21682  0.49977  1.0000
  O   O32       1.0  0.03984  0.28332  0.99975  1.0000
