data_image0
_chemical_formula_structural       Zn4H48C40S4N8Cl8
_chemical_formula_sum              "Zn4 H48 C40 S4 N8 Cl8"
_cell_length_a       10.1366
_cell_length_b       10.3143
_cell_length_c       12.0929
_cell_angle_alpha    90
_cell_angle_beta     90
_cell_angle_gamma    90

_space_group_name_H-M_alt    "P 1"
_space_group_IT_number       1

loop_
  _space_group_symop_operation_xyz
  'x, y, z'

loop_
  _atom_site_type_symbol
  _atom_site_label
  _atom_site_symmetry_multiplicity
  _atom_site_fract_x
  _atom_site_fract_y
  _atom_site_fract_z
  _atom_site_occupancy
  Zn  Zn1       1.0  0.18120  0.00340  0.27294  1.0000
  Zn  Zn2       1.0  0.31880  0.99660  0.77294  1.0000
  Zn  Zn3       1.0  0.68120  0.49660  0.72706  1.0000
  Zn  Zn4       1.0  0.81880  0.50340  0.22706  1.0000
  H   H1        1.0  0.88482  0.06409  0.28788  1.0000
  H   H2        1.0  0.61518  0.93591  0.78788  1.0000
  H   H3        1.0  0.38482  0.43591  0.71212  1.0000
  H   H4        1.0  0.11518  0.56409  0.21213  1.0000
  H   H5        1.0  0.77787  0.00328  0.62927  1.0000
  H   H6        1.0  0.72213  0.99672  0.12927  1.0000
  H   H7        1.0  0.27786  0.49672  0.37074  1.0000
  H   H8        1.0  0.22213  0.50328  0.87073  1.0000
  H   H9        1.0  0.01671  0.95704  0.66863  1.0000
  H   H10       1.0  0.48329  0.04296  0.16863  1.0000
  H   H11       1.0  0.51671  0.54296  0.33136  1.0000
  H   H12       1.0  0.98329  0.45704  0.83137  1.0000
  H   H13       1.0  0.17720  0.96445  0.51227  1.0000
  H   H14       1.0  0.32280  0.03555  0.01227  1.0000
  H   H15       1.0  0.67720  0.53555  0.48773  1.0000
  H   H16       1.0  0.82280  0.46445  0.98773  1.0000
  H   H17       1.0  0.65899  0.07977  0.33764  1.0000
  H   H18       1.0  0.84102  0.92023  0.83764  1.0000
  H   H19       1.0  0.15898  0.42023  0.66236  1.0000
  H   H20       1.0  0.34102  0.57977  0.16236  1.0000
  H   H21       1.0  0.57694  0.14803  0.66279  1.0000
  H   H22       1.0  0.92306  0.85197  0.16279  1.0000
  H   H23       1.0  0.07694  0.35197  0.33721  1.0000
  H   H24       1.0  0.42306  0.64803  0.83721  1.0000
  H   H25       1.0  0.43452  0.19105  0.58850  1.0000
  H   H26       1.0  0.06548  0.80895  0.08850  1.0000
  H   H27       1.0  0.93452  0.30895  0.41150  1.0000
  H   H28       1.0  0.56548  0.69105  0.91150  1.0000
  H   H29       1.0  0.69697  0.25363  0.51793  1.0000
  H   H30       1.0  0.80303  0.74637  0.01793  1.0000
  H   H31       1.0  0.19696  0.24638  0.48207  1.0000
  H   H32       1.0  0.30304  0.75362  0.98207  1.0000
  H   H33       1.0  0.55814  0.24819  0.42769  1.0000
  H   H34       1.0  0.94186  0.75181  0.92769  1.0000
  H   H35       1.0  0.05813  0.25181  0.57231  1.0000
  H   H36       1.0  0.44186  0.74819  0.07231  1.0000
  H   H37       1.0  0.48545  0.80849  0.39517  1.0000
  H   H38       1.0  0.01455  0.19151  0.89517  1.0000
  H   H39       1.0  0.98545  0.69151  0.60483  1.0000
  H   H40       1.0  0.51455  0.30849  0.10483  1.0000
  H   H41       1.0  0.62421  0.76906  0.48114  1.0000
  H   H42       1.0  0.87579  0.23094  0.98114  1.0000
  H   H43       1.0  0.12421  0.73094  0.51886  1.0000
  H   H44       1.0  0.37579  0.26906  0.01886  1.0000
  H   H45       1.0  0.64907  0.83766  0.34681  1.0000
  H   H46       1.0  0.85093  0.16234  0.84681  1.0000
  H   H47       1.0  0.14907  0.66234  0.65319  1.0000
  H   H48       1.0  0.35093  0.33766  0.15319  1.0000
  C   C1        1.0  0.90854  0.03772  0.37302  1.0000
  C   C2        1.0  0.59146  0.96228  0.87302  1.0000
  C   C3        1.0  0.40854  0.46228  0.62698  1.0000
  C   C4        1.0  0.09146  0.53772  0.12698  1.0000
  C   C5        1.0  0.81178  0.03721  0.45498  1.0000
  C   C6        1.0  0.68822  0.96279  0.95498  1.0000
  C   C7        1.0  0.31178  0.46279  0.54502  1.0000
  C   C8        1.0  0.18822  0.53721  0.04502  1.0000
  C   C9        1.0  0.85070  0.00689  0.56304  1.0000
  C   C10       1.0  0.64930  0.99311  0.06304  1.0000
  C   C11       1.0  0.35070  0.49311  0.43696  1.0000
  C   C12       1.0  0.14930  0.50689  0.93696  1.0000
  C   C13       1.0  0.98254  0.98077  0.58555  1.0000
  C   C14       1.0  0.51746  0.01923  0.08555  1.0000
  C   C15       1.0  0.48253  0.51923  0.41445  1.0000
  C   C16       1.0  0.01746  0.48077  0.91445  1.0000
  C   C17       1.0  0.07257  0.98373  0.49877  1.0000
  C   C18       1.0  0.42743  0.01626  0.99877  1.0000
  C   C19       1.0  0.57257  0.51626  0.50123  1.0000
  C   C20       1.0  0.92743  0.48374  0.00123  1.0000
  C   C21       1.0  0.67006  0.07058  0.42763  1.0000
  C   C22       1.0  0.82994  0.92942  0.92763  1.0000
  C   C23       1.0  0.17006  0.42942  0.57237  1.0000
  C   C24       1.0  0.32994  0.57058  0.07237  1.0000
  C   C25       1.0  0.50701  0.00101  0.55233  1.0000
  C   C26       1.0  0.99299  0.99899  0.05233  1.0000
  C   C27       1.0  0.00701  0.49899  0.44767  1.0000
  C   C28       1.0  0.49299  0.50101  0.94767  1.0000
  C   C29       1.0  0.52952  0.14077  0.58096  1.0000
  C   C30       1.0  0.97048  0.85923  0.08096  1.0000
  C   C31       1.0  0.02952  0.35923  0.41904  1.0000
  C   C32       1.0  0.47048  0.64077  0.91904  1.0000
  C   C33       1.0  0.61691  0.19244  0.48676  1.0000
  C   C34       1.0  0.88310  0.80756  0.98676  1.0000
  C   C35       1.0  0.11691  0.30756  0.51324  1.0000
  C   C36       1.0  0.38310  0.69244  0.01324  1.0000
  C   C37       1.0  0.58541  0.83781  0.41985  1.0000
  C   C38       1.0  0.91459  0.16219  0.91986  1.0000
  C   C39       1.0  0.08541  0.66219  0.58015  1.0000
  C   C40       1.0  0.41459  0.33781  0.08014  1.0000
  S   S1        1.0  0.40515  0.89467  0.61580  1.0000
  S   S2        1.0  0.09485  0.10533  0.11580  1.0000
  S   S3        1.0  0.90515  0.60533  0.38420  1.0000
  S   S4        1.0  0.59485  0.39467  0.88420  1.0000
  N   N1        1.0  0.03603  0.01112  0.39438  1.0000
  N   N2        1.0  0.46397  0.98888  0.89438  1.0000
  N   N3        1.0  0.53603  0.48888  0.60562  1.0000
  N   N4        1.0  0.96397  0.51112  0.10563  1.0000
  N   N5        1.0  0.58148  0.96702  0.46728  1.0000
  N   N6        1.0  0.91852  0.03298  0.96728  1.0000
  N   N7        1.0  0.08148  0.53298  0.53272  1.0000
  N   N8        1.0  0.41852  0.46702  0.03272  1.0000
  Cl  Cl1       1.0  0.33739  0.14882  0.32359  1.0000
  Cl  Cl2       1.0  0.16261  0.85118  0.82359  1.0000
  Cl  Cl3       1.0  0.83739  0.35118  0.67641  1.0000
  Cl  Cl4       1.0  0.66261  0.64882  0.17641  1.0000
  Cl  Cl5       1.0  0.24974  0.79678  0.27633  1.0000
  Cl  Cl6       1.0  0.25026  0.20322  0.77633  1.0000
  Cl  Cl7       1.0  0.74974  0.70322  0.72367  1.0000
  Cl  Cl8       1.0  0.75026  0.29678  0.22367  1.0000
