data_image0
_chemical_formula_structural       K2H38Ru2C44N8O12
_chemical_formula_sum              "K2 H38 Ru2 C44 N8 O12"
_cell_length_a       9.11442
_cell_length_b       11.3284
_cell_length_c       11.54
_cell_angle_alpha    83.3398
_cell_angle_beta     82.8439
_cell_angle_gamma    70.4443

_space_group_name_H-M_alt    "P 1"
_space_group_IT_number       1

loop_
  _space_group_symop_operation_xyz
  'x, y, z'

loop_
  _atom_site_type_symbol
  _atom_site_label
  _atom_site_symmetry_multiplicity
  _atom_site_fract_x
  _atom_site_fract_y
  _atom_site_fract_z
  _atom_site_occupancy
  K   K1        1.0  0.98854  0.15338  0.58571  1.0000
  K   K2        1.0  0.01146  0.84663  0.41429  1.0000
  H   H1        1.0  0.26957  0.98181  0.47535  1.0000
  H   H2        1.0  0.73043  0.01819  0.52465  1.0000
  H   H3        1.0  0.90035  0.96644  0.08058  1.0000
  H   H4        1.0  0.09965  0.03357  0.91941  1.0000
  H   H5        1.0  0.64484  0.11987  0.02946  1.0000
  H   H6        1.0  0.35517  0.88014  0.97053  1.0000
  H   H7        1.0  0.54872  0.33033  0.11194  1.0000
  H   H8        1.0  0.45128  0.66967  0.88806  1.0000
  H   H9        1.0  0.71260  0.38042  0.24438  1.0000
  H   H10       1.0  0.28740  0.61958  0.75562  1.0000
  H   H11       1.0  0.06075  0.44132  0.39947  1.0000
  H   H12       1.0  0.93925  0.55868  0.60053  1.0000
  H   H13       1.0  0.24467  0.52742  0.47212  1.0000
  H   H14       1.0  0.75533  0.47258  0.52788  1.0000
  H   H15       1.0  0.52932  0.39986  0.47239  1.0000
  H   H16       1.0  0.47068  0.60014  0.52761  1.0000
  H   H17       1.0  0.62198  0.18423  0.40732  1.0000
  H   H18       1.0  0.37802  0.81577  0.59268  1.0000
  H   H19       1.0  0.79246  0.73810  0.34386  1.0000
  H   H20       1.0  0.20754  0.26190  0.65613  1.0000
  H   H21       1.0  0.77137  0.54438  0.27333  1.0000
  H   H22       1.0  0.22863  0.45562  0.72667  1.0000
  H   H23       1.0  0.52750  0.56068  0.18136  1.0000
  H   H24       1.0  0.47250  0.43932  0.81864  1.0000
  H   H25       1.0  0.31251  0.77003  0.17149  1.0000
  H   H26       1.0  0.68749  0.22997  0.82851  1.0000
  H   H27       1.0  0.68639  0.51148  0.80372  1.0000
  H   H28       1.0  0.31361  0.48852  0.19628  1.0000
  H   H29       1.0  0.69938  0.45900  0.95782  1.0000
  H   H30       1.0  0.30062  0.54100  0.04218  1.0000
  H   H31       1.0  0.80150  0.56056  0.89031  1.0000
  H   H32       1.0  0.19850  0.43945  0.10969  1.0000
  H   H33       1.0  0.11834  0.24118  0.90402  1.0000
  H   H34       1.0  0.88166  0.75882  0.09598  1.0000
  H   H35       1.0  0.05763  0.39327  0.95960  1.0000
  H   H36       1.0  0.94237  0.60673  0.04041  1.0000
  H   H37       1.0  0.95987  0.28557  0.01665  1.0000
  H   H38       1.0  0.04013  0.71443  0.98335  1.0000
  Ru  Ru1       1.0  0.26724  0.03882  0.25653  1.0000
  Ru  Ru2       1.0  0.73276  0.96118  0.74347  1.0000
  C   C1        1.0  0.95289  0.08667  0.18766  1.0000
  C   C2        1.0  0.04711  0.91333  0.81234  1.0000
  C   C3        1.0  0.85709  0.05899  0.11421  1.0000
  C   C4        1.0  0.14291  0.94101  0.88579  1.0000
  C   C5        1.0  0.71535  0.14510  0.08570  1.0000
  C   C6        1.0  0.28465  0.85490  0.91430  1.0000
  C   C7        1.0  0.66228  0.26331  0.13081  1.0000
  C   C8        1.0  0.33772  0.73670  0.86919  1.0000
  C   C9        1.0  0.75388  0.29170  0.20377  1.0000
  C   C10       1.0  0.24612  0.70830  0.79623  1.0000
  C   C11       1.0  0.90069  0.20790  0.23260  1.0000
  C   C12       1.0  0.09931  0.79210  0.76740  1.0000
  C   C13       1.0  0.98119  0.25731  0.31240  1.0000
  C   C14       1.0  0.01881  0.74269  0.68760  1.0000
  C   C15       1.0  0.23424  0.26415  0.36076  1.0000
  C   C16       1.0  0.76576  0.73585  0.63924  1.0000
  C   C17       1.0  0.18322  0.38523  0.40114  1.0000
  C   C18       1.0  0.81678  0.61477  0.59886  1.0000
  C   C19       1.0  0.28848  0.43363  0.44093  1.0000
  C   C20       1.0  0.71152  0.56637  0.55907  1.0000
  C   C21       1.0  0.44629  0.36238  0.44235  1.0000
  C   C22       1.0  0.55371  0.63762  0.55765  1.0000
  C   C23       1.0  0.49950  0.24059  0.40678  1.0000
  C   C24       1.0  0.50050  0.75941  0.59322  1.0000
  C   C25       1.0  0.39560  0.18990  0.36744  1.0000
  C   C26       1.0  0.60440  0.81010  0.63256  1.0000
  C   C27       1.0  0.57208  0.97127  0.34147  1.0000
  C   C28       1.0  0.42791  0.02873  0.65853  1.0000
  C   C29       1.0  0.56704  0.85372  0.29455  1.0000
  C   C30       1.0  0.43296  0.14628  0.70545  1.0000
  C   C31       1.0  0.69001  0.74123  0.30315  1.0000
  C   C32       1.0  0.30999  0.25877  0.69685  1.0000
  C   C33       1.0  0.67781  0.63400  0.26257  1.0000
  C   C34       1.0  0.32219  0.36600  0.73743  1.0000
  C   C35       1.0  0.54257  0.64231  0.21300  1.0000
  C   C36       1.0  0.45743  0.35769  0.78699  1.0000
  C   C37       1.0  0.42255  0.75725  0.20702  1.0000
  C   C38       1.0  0.57745  0.24275  0.79298  1.0000
  C   C39       1.0  0.90176  0.36893  0.84594  1.0000
  C   C40       1.0  0.09824  0.63107  0.15406  1.0000
  C   C41       1.0  0.76243  0.48205  0.87523  1.0000
  C   C42       1.0  0.23757  0.51795  0.12477  1.0000
  C   C43       1.0  0.01784  0.31840  0.93586  1.0000
  C   C44       1.0  0.98216  0.68160  0.06414  1.0000
  N   N1        1.0  0.32202  0.09255  0.11563  1.0000
  N   N2        1.0  0.67798  0.90745  0.88437  1.0000
  N   N3        1.0  0.14013  0.21206  0.30781  1.0000
  N   N4        1.0  0.85987  0.78794  0.69220  1.0000
  N   N5        1.0  0.43907  0.06878  0.32967  1.0000
  N   N6        1.0  0.56092  0.93122  0.67033  1.0000
  N   N7        1.0  0.43558  0.85931  0.24692  1.0000
  N   N8        1.0  0.56442  0.14069  0.75307  1.0000
  O   O1        1.0  0.36465  0.13094  0.02196  1.0000
  O   O2        1.0  0.63535  0.86906  0.97804  1.0000
  O   O3        1.0  0.20469  0.97505  0.41589  1.0000
  O   O4        1.0  0.79531  0.02495  0.58411  1.0000
  O   O5        1.0  0.08311  0.99394  0.21251  1.0000
  O   O6        1.0  0.91689  0.00606  0.78749  1.0000
  O   O7        1.0  0.89860  0.34142  0.37828  1.0000
  O   O8        1.0  0.10140  0.65858  0.62172  1.0000
  O   O9        1.0  0.69151  0.96853  0.38727  1.0000
  O   O10       1.0  0.30849  0.03147  0.61273  1.0000
  O   O11       1.0  0.91759  0.31908  0.75368  1.0000
  O   O12       1.0  0.08241  0.68092  0.24632  1.0000
