data_image0
_chemical_formula_structural       Cu2H20C24N20O2
_chemical_formula_sum              "Cu2 H20 C24 N20 O2"
_cell_length_a       8.02579
_cell_length_b       8.67186
_cell_length_c       12.5674
_cell_angle_alpha    89.9929
_cell_angle_beta     90.0008
_cell_angle_gamma    117.557

_space_group_name_H-M_alt    "P 1"
_space_group_IT_number       1

loop_
  _space_group_symop_operation_xyz
  'x, y, z'

loop_
  _atom_site_type_symbol
  _atom_site_label
  _atom_site_symmetry_multiplicity
  _atom_site_fract_x
  _atom_site_fract_y
  _atom_site_fract_z
  _atom_site_occupancy
  Cu  Cu1       1.0  0.76028  0.00002  0.99998  1.0000
  Cu  Cu2       1.0  0.26027  0.00001  0.50003  1.0000
  H   H1        1.0  0.44422  0.04319  0.93891  1.0000
  H   H2        1.0  0.40099  0.95672  0.06116  1.0000
  H   H3        1.0  0.90102  0.95677  0.43883  1.0000
  H   H4        1.0  0.94425  0.04318  0.56113  1.0000
  H   H5        1.0  0.17175  0.37860  0.55644  1.0000
  H   H6        1.0  0.79310  0.62160  0.44370  1.0000
  H   H7        1.0  0.29311  0.62159  0.05633  1.0000
  H   H8        1.0  0.67184  0.37866  0.94350  1.0000
  H   H9        1.0  0.30368  0.67187  0.47156  1.0000
  H   H10       1.0  0.63197  0.32839  0.52866  1.0000
  H   H11       1.0  0.13200  0.32839  0.97135  1.0000
  H   H12       1.0  0.80379  0.67190  0.02842  1.0000
  H   H13       1.0  0.97816  0.81868  0.66153  1.0000
  H   H14       1.0  0.15988  0.18120  0.33842  1.0000
  H   H15       1.0  0.65989  0.18119  0.16156  1.0000
  H   H16       1.0  0.47818  0.81870  0.83851  1.0000
  H   H17       1.0  0.83462  0.53311  0.75459  1.0000
  H   H18       1.0  0.30173  0.46662  0.24527  1.0000
  H   H19       1.0  0.80170  0.46665  0.25471  1.0000
  H   H20       1.0  0.33460  0.53314  0.74542  1.0000
  C   C1        1.0  0.92272  0.26995  0.72242  1.0000
  C   C2        1.0  0.65292  0.73001  0.27757  1.0000
  C   C3        1.0  0.15290  0.73002  0.22244  1.0000
  C   C4        1.0  0.42271  0.26996  0.77757  1.0000
  C   C5        1.0  0.98984  0.43130  0.66215  1.0000
  C   C6        1.0  0.55867  0.56869  0.33787  1.0000
  C   C7        1.0  0.05868  0.56869  0.16213  1.0000
  C   C8        1.0  0.48987  0.43134  0.83786  1.0000
  C   C9        1.0  0.12171  0.47094  0.57984  1.0000
  C   C10       1.0  0.65078  0.52919  0.42030  1.0000
  C   C11       1.0  0.15079  0.52915  0.07970  1.0000
  C   C12       1.0  0.62178  0.47100  0.92014  1.0000
  C   C13       1.0  0.19729  0.63494  0.53352  1.0000
  C   C14       1.0  0.56244  0.36519  0.46667  1.0000
  C   C15       1.0  0.06249  0.36518  0.03334  1.0000
  C   C16       1.0  0.69741  0.63499  0.96647  1.0000
  C   C17       1.0  0.01631  0.71762  0.64002  1.0000
  C   C18       1.0  0.29899  0.28234  0.35999  1.0000
  C   C19       1.0  0.79903  0.28235  0.13999  1.0000
  C   C20       1.0  0.51637  0.71765  0.86000  1.0000
  C   C21       1.0  0.93579  0.55784  0.69107  1.0000
  C   C22       1.0  0.37817  0.44209  0.30888  1.0000
  C   C23       1.0  0.87816  0.44207  0.19112  1.0000
  C   C24       1.0  0.43580  0.55789  0.80894  1.0000
  N   N1        1.0  0.87447  0.25765  0.82566  1.0000
  N   N2        1.0  0.61694  0.74231  0.17433  1.0000
  N   N3        1.0  0.11692  0.74235  0.32567  1.0000
  N   N4        1.0  0.37442  0.25762  0.67433  1.0000
  N   N5        1.0  0.84077  0.09710  0.85266  1.0000
  N   N6        1.0  0.74374  0.90286  0.14731  1.0000
  N   N7        1.0  0.24371  0.90290  0.35266  1.0000
  N   N8        1.0  0.34068  0.09705  0.64737  1.0000
  N   N9        1.0  0.86380  0.01195  0.76978  1.0000
  N   N10       1.0  0.85189  0.98802  0.23019  1.0000
  N   N11       1.0  0.35194  0.98803  0.26978  1.0000
  N   N12       1.0  0.36382  0.01194  0.73026  1.0000
  N   N13       1.0  0.91569  0.11948  0.68707  1.0000
  N   N14       1.0  0.79629  0.88053  0.31291  1.0000
  N   N15       1.0  0.29629  0.88054  0.18708  1.0000
  N   N16       1.0  0.41567  0.11948  0.81294  1.0000
  N   N17       1.0  0.14644  0.75629  0.56304  1.0000
  N   N18       1.0  0.39035  0.24376  0.43706  1.0000
  N   N19       1.0  0.89037  0.24376  0.06292  1.0000
  N   N20       1.0  0.64650  0.75632  0.93698  1.0000
  O   O1        1.0  0.48965  0.99967  0.99996  1.0000
  O   O2        1.0  0.98968  0.99979  0.50002  1.0000
