data_image0
_chemical_formula_structural       Ba2H36C20S2N4O18
_chemical_formula_sum              "Ba2 H36 C20 S2 N4 O18"
_cell_length_a       6.69243
_cell_length_b       10.7502
_cell_length_c       13.1442
_cell_angle_alpha    77.7365
_cell_angle_beta     75.1175
_cell_angle_gamma    73.5072

_space_group_name_H-M_alt    "P 1"
_space_group_IT_number       1

loop_
  _space_group_symop_operation_xyz
  'x, y, z'

loop_
  _atom_site_type_symbol
  _atom_site_label
  _atom_site_symmetry_multiplicity
  _atom_site_fract_x
  _atom_site_fract_y
  _atom_site_fract_z
  _atom_site_occupancy
  Ba  Ba1       1.0  0.66873  0.68266  0.22676  1.0000
  Ba  Ba2       1.0  0.33127  0.31734  0.77325  1.0000
  H   H1        1.0  0.89947  0.93726  0.53940  1.0000
  H   H2        1.0  0.10051  0.06274  0.46060  1.0000
  H   H3        1.0  0.78555  0.13271  0.63006  1.0000
  H   H4        1.0  0.21444  0.86729  0.36994  1.0000
  H   H5        1.0  0.92076  0.68699  0.84169  1.0000
  H   H6        1.0  0.07922  0.31301  0.15831  1.0000
  H   H7        1.0  0.81200  0.20381  0.02599  1.0000
  H   H8        1.0  0.18801  0.79618  0.97400  1.0000
  H   H9        1.0  0.65651  0.27740  0.13931  1.0000
  H   H10       1.0  0.34350  0.72260  0.86068  1.0000
  H   H11       1.0  0.53162  0.22551  0.05694  1.0000
  H   H12       1.0  0.46839  0.77449  0.94306  1.0000
  H   H13       1.0  0.66829  0.96355  0.32093  1.0000
  H   H14       1.0  0.33170  0.03646  0.67906  1.0000
  H   H15       1.0  0.50577  0.12713  0.30724  1.0000
  H   H16       1.0  0.49422  0.87287  0.69276  1.0000
  H   H17       1.0  0.78187  0.10230  0.29365  1.0000
  H   H18       1.0  0.21813  0.89770  0.70635  1.0000
  H   H19       1.0  0.72909  0.06150  0.96296  1.0000
  H   H20       1.0  0.27091  0.93850  0.03704  1.0000
  H   H21       1.0  0.15327  0.63620  0.26736  1.0000
  H   H22       1.0  0.84673  0.36380  0.73265  1.0000
  H   H23       1.0  0.14394  0.76406  0.18577  1.0000
  H   H24       1.0  0.85607  0.23593  0.81424  1.0000
  H   H25       1.0  0.68807  0.71868  0.47857  1.0000
  H   H26       1.0  0.31195  0.28132  0.52142  1.0000
  H   H27       1.0  0.45031  0.73255  0.47794  1.0000
  H   H28       1.0  0.54970  0.26747  0.52206  1.0000
  H   H29       1.0  0.26149  0.60913  0.42150  1.0000
  H   H30       1.0  0.73851  0.39087  0.57851  1.0000
  H   H31       1.0  0.28718  0.48257  0.37314  1.0000
  H   H32       1.0  0.71283  0.51743  0.62686  1.0000
  H   H33       1.0  0.34912  0.58985  0.12906  1.0000
  H   H34       1.0  0.65088  0.41015  0.87094  1.0000
  H   H35       1.0  0.54855  0.57970  0.03425  1.0000
  H   H36       1.0  0.45145  0.42030  0.96576  1.0000
  C   C1        1.0  0.92134  0.79991  0.68484  1.0000
  C   C2        1.0  0.07865  0.20009  0.31515  1.0000
  C   C3        1.0  0.87902  0.92615  0.62548  1.0000
  C   C4        1.0  0.12098  0.07385  0.37452  1.0000
  C   C5        1.0  0.81192  0.03500  0.67664  1.0000
  C   C6        1.0  0.18807  0.96500  0.32336  1.0000
  C   C7        1.0  0.77684  0.02398  0.78933  1.0000
  C   C8        1.0  0.22315  0.97602  0.21067  1.0000
  C   C9        1.0  0.81628  0.89378  0.84846  1.0000
  C   C10       1.0  0.18371  0.10622  0.15154  1.0000
  C   C11       1.0  0.88856  0.78440  0.79492  1.0000
  C   C12       1.0  0.11142  0.21560  0.20508  1.0000
  C   C13       1.0  0.78671  0.86600  0.96583  1.0000
  C   C14       1.0  0.21329  0.13401  0.03417  1.0000
  C   C15       1.0  0.69178  0.06851  0.16003  1.0000
  C   C16       1.0  0.30822  0.93149  0.83997  1.0000
  C   C17       1.0  0.67327  0.20092  0.09221  1.0000
  C   C18       1.0  0.32673  0.79907  0.90778  1.0000
  C   C19       1.0  0.66092  0.06290  0.27711  1.0000
  C   C20       1.0  0.33907  0.93710  0.72288  1.0000
  S   S1        1.0  0.01349  0.66309  0.61742  1.0000
  S   S2        1.0  0.98652  0.33691  0.38258  1.0000
  N   N1        1.0  0.75202  0.97202  0.01416  1.0000
  N   N2        1.0  0.24797  0.02798  0.98584  1.0000
  N   N3        1.0  0.72788  0.95977  0.12258  1.0000
  N   N4        1.0  0.27212  0.04024  0.87741  1.0000
  O   O1        1.0  0.18077  0.69579  0.52526  1.0000
  O   O2        1.0  0.81925  0.30421  0.47475  1.0000
  O   O3        1.0  0.82978  0.64917  0.58101  1.0000
  O   O4        1.0  0.17025  0.35082  0.41898  1.0000
  O   O5        1.0  0.09167  0.54974  0.69321  1.0000
  O   O6        1.0  0.90832  0.45026  0.30680  1.0000
  O   O7        1.0  0.70657  0.13003  0.83551  1.0000
  O   O8        1.0  0.29344  0.86996  0.16449  1.0000
  O   O9        1.0  0.79689  0.75126  0.01578  1.0000
  O   O10       1.0  0.20312  0.24873  0.98421  1.0000
  O   O11       1.0  0.09496  0.68057  0.20235  1.0000
  O   O12       1.0  0.90504  0.31943  0.79765  1.0000
  O   O13       1.0  0.58550  0.74546  0.43103  1.0000
  O   O14       1.0  0.41451  0.25455  0.56897  1.0000
  O   O15       1.0  0.32097  0.56980  0.35475  1.0000
  O   O16       1.0  0.67902  0.43021  0.64526  1.0000
  O   O17       1.0  0.50453  0.54904  0.10988  1.0000
  O   O18       1.0  0.49547  0.45095  0.89013  1.0000
