data_image0
_chemical_formula_structural       V4H40C40N12Cl8
_chemical_formula_sum              "V4 H40 C40 N12 Cl8"
_cell_length_a       8.46148
_cell_length_b       8.96852
_cell_length_c       15.229
_cell_angle_alpha    90
_cell_angle_beta     90
_cell_angle_gamma    90

_space_group_name_H-M_alt    "P 1"
_space_group_IT_number       1

loop_
  _space_group_symop_operation_xyz
  'x, y, z'

loop_
  _atom_site_type_symbol
  _atom_site_label
  _atom_site_symmetry_multiplicity
  _atom_site_fract_x
  _atom_site_fract_y
  _atom_site_fract_z
  _atom_site_occupancy
  V   V1        1.0  0.50023  0.25000  0.75000  1.0000
  V   V2        1.0  0.99974  0.75000  0.25000  1.0000
  V   V3        1.0  0.49978  0.75000  0.25000  1.0000
  V   V4        1.0  0.00025  0.25000  0.75000  1.0000
  H   H1        1.0  0.72392  0.34750  0.60167  1.0000
  H   H2        1.0  0.72392  0.15250  0.89833  1.0000
  H   H3        1.0  0.77607  0.65252  0.10167  1.0000
  H   H4        1.0  0.77607  0.84748  0.39833  1.0000
  H   H5        1.0  0.27608  0.65251  0.39834  1.0000
  H   H6        1.0  0.27608  0.84749  0.10166  1.0000
  H   H7        1.0  0.22394  0.34749  0.89833  1.0000
  H   H8        1.0  0.22393  0.15251  0.60166  1.0000
  H   H9        1.0  0.76513  0.56814  0.50302  1.0000
  H   H10       1.0  0.76512  0.93185  0.99698  1.0000
  H   H11       1.0  0.73485  0.43186  0.00303  1.0000
  H   H12       1.0  0.73484  0.06814  0.49697  1.0000
  H   H13       1.0  0.23488  0.43187  0.49699  1.0000
  H   H14       1.0  0.23488  0.06813  0.00300  1.0000
  H   H15       1.0  0.26516  0.56815  0.99698  1.0000
  H   H16       1.0  0.26515  0.93185  0.50302  1.0000
  H   H17       1.0  0.58640  0.79137  0.52154  1.0000
  H   H18       1.0  0.58640  0.70862  0.97846  1.0000
  H   H19       1.0  0.91358  0.20862  0.02154  1.0000
  H   H20       1.0  0.91358  0.29138  0.47846  1.0000
  H   H21       1.0  0.41359  0.20863  0.47847  1.0000
  H   H22       1.0  0.41359  0.29138  0.02153  1.0000
  H   H23       1.0  0.08642  0.79138  0.97847  1.0000
  H   H24       1.0  0.08641  0.70862  0.52154  1.0000
  H   H25       1.0  0.37457  0.78052  0.63581  1.0000
  H   H26       1.0  0.37458  0.71948  0.86418  1.0000
  H   H27       1.0  0.12540  0.21949  0.13580  1.0000
  H   H28       1.0  0.12540  0.28051  0.36421  1.0000
  H   H29       1.0  0.62541  0.21948  0.36419  1.0000
  H   H30       1.0  0.62541  0.28052  0.13581  1.0000
  H   H31       1.0  0.87459  0.78051  0.86420  1.0000
  H   H32       1.0  0.87459  0.71949  0.63580  1.0000
  H   H33       1.0  0.33937  0.54479  0.72228  1.0000
  H   H34       1.0  0.33937  0.95521  0.77772  1.0000
  H   H35       1.0  0.16063  0.45521  0.22226  1.0000
  H   H36       1.0  0.16063  0.04479  0.27774  1.0000
  H   H37       1.0  0.66062  0.45521  0.27772  1.0000
  H   H38       1.0  0.66062  0.04480  0.22228  1.0000
  H   H39       1.0  0.83938  0.54479  0.77774  1.0000
  H   H40       1.0  0.83938  0.95522  0.72227  1.0000
  C   C1        1.0  0.64771  0.44494  0.60513  1.0000
  C   C2        1.0  0.64771  0.05505  0.89487  1.0000
  C   C3        1.0  0.85228  0.55505  0.10513  1.0000
  C   C4        1.0  0.85227  0.94495  0.39487  1.0000
  C   C5        1.0  0.35230  0.55506  0.39488  1.0000
  C   C6        1.0  0.35230  0.94494  0.10512  1.0000
  C   C7        1.0  0.14773  0.44495  0.89487  1.0000
  C   C8        1.0  0.14773  0.05505  0.60513  1.0000
  C   C9        1.0  0.67072  0.56894  0.55173  1.0000
  C   C10       1.0  0.67071  0.93105  0.94827  1.0000
  C   C11       1.0  0.82927  0.43105  0.05173  1.0000
  C   C12       1.0  0.82927  0.06895  0.44827  1.0000
  C   C13       1.0  0.32929  0.43107  0.44828  1.0000
  C   C14       1.0  0.32929  0.06894  0.05172  1.0000
  C   C15       1.0  0.17073  0.56896  0.94827  1.0000
  C   C16       1.0  0.17073  0.93105  0.55173  1.0000
  C   C17       1.0  0.57222  0.69221  0.56216  1.0000
  C   C18       1.0  0.57221  0.80778  0.93784  1.0000
  C   C19       1.0  0.92778  0.30778  0.06217  1.0000
  C   C20       1.0  0.92777  0.19222  0.43783  1.0000
  C   C21       1.0  0.42778  0.30779  0.43785  1.0000
  C   C22       1.0  0.42778  0.19221  0.06215  1.0000
  C   C23       1.0  0.07223  0.69222  0.93784  1.0000
  C   C24       1.0  0.07223  0.80778  0.56216  1.0000
  C   C25       1.0  0.45287  0.68616  0.62524  1.0000
  C   C26       1.0  0.45288  0.81383  0.87475  1.0000
  C   C27       1.0  0.04713  0.31384  0.12524  1.0000
  C   C28       1.0  0.04712  0.18616  0.37476  1.0000
  C   C29       1.0  0.54712  0.31384  0.37476  1.0000
  C   C30       1.0  0.54712  0.18616  0.12524  1.0000
  C   C31       1.0  0.95288  0.68616  0.87476  1.0000
  C   C32       1.0  0.95288  0.81384  0.62524  1.0000
  C   C33       1.0  0.43360  0.55699  0.67426  1.0000
  C   C34       1.0  0.43360  0.94301  0.82574  1.0000
  C   C35       1.0  0.06640  0.44299  0.17425  1.0000
  C   C36       1.0  0.06639  0.05700  0.32574  1.0000
  C   C37       1.0  0.56639  0.44301  0.32575  1.0000
  C   C38       1.0  0.56639  0.05699  0.17425  1.0000
  C   C39       1.0  0.93361  0.55701  0.82574  1.0000
  C   C40       1.0  0.93361  0.94300  0.67426  1.0000
  N   N1        1.0  0.31299  0.25000  0.75000  1.0000
  N   N2        1.0  0.18698  0.75000  0.25000  1.0000
  N   N3        1.0  0.68700  0.75000  0.25000  1.0000
  N   N4        1.0  0.81302  0.25000  0.75000  1.0000
  N   N5        1.0  0.53046  0.43837  0.66494  1.0000
  N   N6        1.0  0.53046  0.06163  0.83507  1.0000
  N   N7        1.0  0.96955  0.56163  0.16494  1.0000
  N   N8        1.0  0.96955  0.93838  0.33507  1.0000
  N   N9        1.0  0.46954  0.56164  0.33507  1.0000
  N   N10       1.0  0.46954  0.93836  0.16493  1.0000
  N   N11       1.0  0.03046  0.43837  0.83507  1.0000
  N   N12       1.0  0.03046  0.06163  0.66493  1.0000
  Cl  Cl1       1.0  0.54932  0.40873  0.86653  1.0000
  Cl  Cl2       1.0  0.54932  0.09127  0.63347  1.0000
  Cl  Cl3       1.0  0.95068  0.59124  0.36653  1.0000
  Cl  Cl4       1.0  0.95068  0.90875  0.13347  1.0000
  Cl  Cl5       1.0  0.45068  0.59126  0.13347  1.0000
  Cl  Cl6       1.0  0.45069  0.90874  0.36653  1.0000
  Cl  Cl7       1.0  0.04932  0.40875  0.63347  1.0000
  Cl  Cl8       1.0  0.04933  0.09125  0.86653  1.0000
