data_image0
_chemical_formula_structural       Cu4H64C56N8O12
_chemical_formula_sum              "Cu4 H64 C56 N8 O12"
_cell_length_a       7.08671
_cell_length_b       13.2023
_cell_length_c       16.286
_cell_angle_alpha    105.77
_cell_angle_beta     90
_cell_angle_gamma    90

_space_group_name_H-M_alt    "P 1"
_space_group_IT_number       1

loop_
  _space_group_symop_operation_xyz
  'x, y, z'

loop_
  _atom_site_type_symbol
  _atom_site_label
  _atom_site_symmetry_multiplicity
  _atom_site_fract_x
  _atom_site_fract_y
  _atom_site_fract_z
  _atom_site_occupancy
  Cu  Cu1       1.0  0.07187  0.92547  0.46261  1.0000
  Cu  Cu2       1.0  0.57190  0.07448  0.53741  1.0000
  Cu  Cu3       1.0  0.95792  0.42080  0.96559  1.0000
  Cu  Cu4       1.0  0.45788  0.57925  0.03441  1.0000
  H   H1        1.0  0.97185  0.40360  0.11298  1.0000
  H   H2        1.0  0.47181  0.59648  0.88702  1.0000
  H   H3        1.0  0.75465  0.45094  0.10220  1.0000
  H   H4        1.0  0.25463  0.54912  0.89781  1.0000
  H   H5        1.0  0.27948  0.93163  0.59373  1.0000
  H   H6        1.0  0.77944  0.06825  0.40626  1.0000
  H   H7        1.0  0.04990  0.93677  0.61752  1.0000
  H   H8        1.0  0.54987  0.06314  0.38250  1.0000
  H   H9        1.0  0.63725  0.29067  0.02848  1.0000
  H   H10       1.0  0.13717  0.70937  0.97150  1.0000
  H   H11       1.0  0.89618  0.24231  0.16294  1.0000
  H   H12       1.0  0.39625  0.75779  0.83712  1.0000
  H   H13       1.0  0.66472  0.29569  0.17981  1.0000
  H   H14       1.0  0.16483  0.70439  0.82018  1.0000
  H   H15       1.0  0.66312  0.09886  0.15948  1.0000
  H   H16       1.0  0.16315  0.90122  0.84055  1.0000
  H   H17       1.0  0.53173  0.13534  0.07967  1.0000
  H   H18       1.0  0.03172  0.86471  0.92032  1.0000
  H   H19       1.0  0.73624  0.98072  0.01372  1.0000
  H   H20       1.0  0.23615  0.01934  0.98632  1.0000
  H   H21       1.0  0.93736  0.05017  0.06239  1.0000
  H   H22       1.0  0.43731  0.94991  0.93768  1.0000
  H   H23       1.0  0.04444  0.21509  0.01380  1.0000
  H   H24       1.0  0.54434  0.78500  0.98625  1.0000
  H   H25       1.0  0.92422  0.13578  0.81892  1.0000
  H   H26       1.0  0.42422  0.86424  0.18111  1.0000
  H   H27       1.0  0.19427  0.48401  0.72691  1.0000
  H   H28       1.0  0.69420  0.51596  0.27309  1.0000
  H   H29       1.0  0.23387  0.35366  0.58449  1.0000
  H   H30       1.0  0.73374  0.64629  0.41553  1.0000
  H   H31       1.0  0.97525  0.11678  0.68099  1.0000
  H   H32       1.0  0.47516  0.88320  0.31906  1.0000
  H   H33       1.0  0.99145  0.76322  0.56289  1.0000
  H   H34       1.0  0.49149  0.23670  0.43710  1.0000
  H   H35       1.0  0.39519  0.77193  0.63382  1.0000
  H   H36       1.0  0.89518  0.22794  0.36611  1.0000
  H   H37       1.0  0.18528  0.78494  0.69510  1.0000
  H   H38       1.0  0.68519  0.21493  0.30486  1.0000
  H   H39       1.0  0.08746  0.60301  0.61883  1.0000
  H   H40       1.0  0.58741  0.39687  0.38111  1.0000
  H   H41       1.0  0.31562  0.60045  0.66180  1.0000
  H   H42       1.0  0.81559  0.39943  0.33812  1.0000
  H   H43       1.0  0.46260  0.58797  0.52191  1.0000
  H   H44       1.0  0.96259  0.41193  0.47800  1.0000
  H   H45       1.0  0.29423  0.48641  0.51048  1.0000
  H   H46       1.0  0.79421  0.51349  0.48943  1.0000
  H   H47       1.0  0.06204  0.58617  0.44901  1.0000
  H   H48       1.0  0.56208  0.41374  0.55094  1.0000
  H   H49       1.0  0.27906  0.57379  0.39271  1.0000
  H   H50       1.0  0.77913  0.42614  0.60722  1.0000
  H   H51       1.0  0.37366  0.75146  0.47676  1.0000
  H   H52       1.0  0.87373  0.24846  0.52321  1.0000
  H   H53       1.0  0.15417  0.64685  0.31198  1.0000
  H   H54       1.0  0.65421  0.35315  0.68797  1.0000
  H   H55       1.0  0.84774  0.98871  0.22169  1.0000
  H   H56       1.0  0.34793  0.01135  0.77837  1.0000
  H   H57       1.0  0.80832  0.85682  0.08013  1.0000
  H   H58       1.0  0.30852  0.14327  0.91992  1.0000
  H   H59       1.0  0.06393  0.62117  0.17868  1.0000
  H   H60       1.0  0.56403  0.37888  0.82129  1.0000
  H   H61       1.0  0.92038  0.05244  0.91178  1.0000
  H   H62       1.0  0.42024  0.94762  0.08829  1.0000
  H   H63       1.0  0.68857  0.10426  0.92494  1.0000
  H   H64       1.0  0.18842  0.89579  0.07508  1.0000
  C   C1        1.0  0.77818  0.28730  0.05535  1.0000
  C   C2        1.0  0.27813  0.71277  0.94466  1.0000
  C   C3        1.0  0.75717  0.24334  0.13248  1.0000
  C   C4        1.0  0.25720  0.75675  0.86754  1.0000
  C   C5        1.0  0.67583  0.13165  0.10435  1.0000
  C   C6        1.0  0.17582  0.86842  0.89567  1.0000
  C   C7        1.0  0.79832  0.05995  0.03503  1.0000
  C   C8        1.0  0.29824  0.94012  0.96500  1.0000
  C   C9        1.0  0.90195  0.21607  0.98600  1.0000
  C   C10       1.0  0.40185  0.78400  0.01405  1.0000
  C   C11       1.0  0.94880  0.22113  0.83969  1.0000
  C   C12       1.0  0.44875  0.77890  0.16034  1.0000
  C   C13       1.0  0.00972  0.26672  0.77339  1.0000
  C   C14       1.0  0.50965  0.73329  0.22663  1.0000
  C   C15       1.0  0.06968  0.37408  0.78755  1.0000
  C   C16       1.0  0.56965  0.62594  0.21245  1.0000
  C   C17       1.0  0.14705  0.40288  0.71622  1.0000
  C   C18       1.0  0.64695  0.59710  0.28379  1.0000
  C   C19       1.0  0.16780  0.33086  0.63734  1.0000
  C   C20       1.0  0.66771  0.66911  0.36267  1.0000
  C   C21       1.0  0.10490  0.22616  0.62314  1.0000
  C   C22       1.0  0.60485  0.77383  0.37688  1.0000
  C   C23       1.0  0.02544  0.19736  0.69138  1.0000
  C   C24       1.0  0.52536  0.80263  0.30865  1.0000
  C   C25       1.0  0.12553  0.14575  0.53892  1.0000
  C   C26       1.0  0.62546  0.85420  0.46111  1.0000
  C   C27       1.0  0.14205  0.78360  0.56343  1.0000
  C   C28       1.0  0.64207  0.21629  0.43655  1.0000
  C   C29       1.0  0.24637  0.74670  0.63216  1.0000
  C   C30       1.0  0.74634  0.25317  0.36780  1.0000
  C   C31       1.0  0.23533  0.62669  0.61350  1.0000
  C   C32       1.0  0.73531  0.37320  0.38644  1.0000
  C   C33       1.0  0.31005  0.57232  0.52418  1.0000
  C   C34       1.0  0.81005  0.42758  0.47576  1.0000
  C   C35       1.0  0.21122  0.61052  0.45438  1.0000
  C   C36       1.0  0.71125  0.38938  0.54557  1.0000
  C   C37       1.0  0.22304  0.73017  0.47491  1.0000
  C   C38       1.0  0.72310  0.26974  0.52505  1.0000
  C   C39       1.0  0.11100  0.72970  0.33459  1.0000
  C   C40       1.0  0.61105  0.27029  0.66537  1.0000
  C   C41       1.0  0.03217  0.77243  0.26990  1.0000
  C   C42       1.0  0.53220  0.22759  0.73009  1.0000
  C   C43       1.0  0.96986  0.87950  0.28387  1.0000
  C   C44       1.0  0.46990  0.12052  0.71615  1.0000
  C   C45       1.0  0.89332  0.90730  0.21186  1.0000
  C   C46       1.0  0.39349  0.09274  0.78819  1.0000
  C   C47       1.0  0.87269  0.83422  0.13336  1.0000
  C   C48       1.0  0.37284  0.16584  0.86667  1.0000
  C   C49       1.0  0.93303  0.72924  0.12010  1.0000
  C   C50       1.0  0.43312  0.27083  0.87990  1.0000
  C   C51       1.0  0.01415  0.70175  0.18858  1.0000
  C   C52       1.0  0.51421  0.29830  0.81140  1.0000
  C   C53       1.0  0.90465  0.64641  0.03765  1.0000
  C   C54       1.0  0.40476  0.35368  0.96232  1.0000
  C   C55       1.0  0.82442  0.10405  0.95779  1.0000
  C   C56       1.0  0.32429  0.89602  0.04225  1.0000
  N   N1        1.0  0.85468  0.39477  0.07491  1.0000
  N   N2        1.0  0.35467  0.60530  0.92510  1.0000
  N   N3        1.0  0.92938  0.27051  0.91930  1.0000
  N   N4        1.0  0.42926  0.72952  0.08073  1.0000
  N   N5        1.0  0.14925  0.89820  0.57511  1.0000
  N   N6        1.0  0.64924  0.10171  0.42488  1.0000
  N   N7        1.0  0.13450  0.77930  0.41395  1.0000
  N   N8        1.0  0.63460  0.22065  0.58603  1.0000
  O   O1        1.0  0.06011  0.44513  0.86125  1.0000
  O   O2        1.0  0.56024  0.55492  0.13874  1.0000
  O   O3        1.0  0.00896  0.06702  0.52906  1.0000
  O   O4        1.0  0.50885  0.93291  0.47100  1.0000
  O   O5        1.0  0.24570  0.15673  0.48556  1.0000
  O   O6        1.0  0.74570  0.84324  0.51446  1.0000
  O   O7        1.0  0.97836  0.95079  0.35738  1.0000
  O   O8        1.0  0.47826  0.04924  0.64264  1.0000
  O   O9        1.0  0.00877  0.56347  0.03132  1.0000
  O   O10       1.0  0.50884  0.43663  0.96863  1.0000
  O   O11       1.0  0.78987  0.65955  0.98276  1.0000
  O   O12       1.0  0.29005  0.34057  0.01726  1.0000
