data_image0
_chemical_formula_structural       Ag2H16C28N4O6F10
_chemical_formula_sum              "Ag2 H16 C28 N4 O6 F10"
_cell_length_a       8.7995
_cell_length_b       9.58943
_cell_length_c       10.1748
_cell_angle_alpha    109.367
_cell_angle_beta     100.168
_cell_angle_gamma    107.493

_space_group_name_H-M_alt    "P 1"
_space_group_IT_number       1

loop_
  _space_group_symop_operation_xyz
  'x, y, z'

loop_
  _atom_site_type_symbol
  _atom_site_label
  _atom_site_symmetry_multiplicity
  _atom_site_fract_x
  _atom_site_fract_y
  _atom_site_fract_z
  _atom_site_occupancy
  Ag  Ag1       1.0  0.34207  0.49153  0.30941  1.0000
  Ag  Ag2       1.0  0.65793  0.50847  0.69058  1.0000
  H   H1        1.0  0.27510  0.46133  0.60128  1.0000
  H   H2        1.0  0.72490  0.53867  0.39872  1.0000
  H   H3        1.0  0.74674  0.19148  0.50085  1.0000
  H   H4        1.0  0.25326  0.80852  0.49915  1.0000
  H   H5        1.0  0.71899  0.13795  0.23523  1.0000
  H   H6        1.0  0.28101  0.86205  0.76477  1.0000
  H   H7        1.0  0.97656  0.25093  0.17089  1.0000
  H   H8        1.0  0.02344  0.74907  0.82911  1.0000
  H   H9        1.0  0.13519  0.48762  0.02160  1.0000
  H   H10       1.0  0.86481  0.51238  0.97840  1.0000
  H   H11       1.0  0.24692  0.20818  0.64763  1.0000
  H   H12       1.0  0.75308  0.79182  0.35237  1.0000
  H   H13       1.0  0.46245  0.18332  0.82210  1.0000
  H   H14       1.0  0.53755  0.81668  0.17790  1.0000
  H   H15       1.0  0.49510  0.30225  0.09119  1.0000
  H   H16       1.0  0.50490  0.69774  0.90881  1.0000
  C   C1        1.0  0.15029  0.38497  0.52403  1.0000
  C   C2        1.0  0.84971  0.61504  0.47597  1.0000
  C   C3        1.0  0.01370  0.32369  0.56986  1.0000
  C   C4        1.0  0.98630  0.67631  0.43014  1.0000
  C   C5        1.0  0.85474  0.23562  0.46583  1.0000
  C   C6        1.0  0.14526  0.76438  0.53417  1.0000
  C   C7        1.0  0.83975  0.20646  0.31987  1.0000
  C   C8        1.0  0.16025  0.79354  0.68012  1.0000
  C   C9        1.0  0.98252  0.27022  0.28356  1.0000
  C   C10       1.0  0.01748  0.72978  0.71644  1.0000
  C   C11       1.0  0.03049  0.36177  0.72739  1.0000
  C   C12       1.0  0.96951  0.63823  0.27261  1.0000
  C   C13       1.0  0.20413  0.41777  0.97359  1.0000
  C   C14       1.0  0.79587  0.58223  0.02641  1.0000
  C   C15       1.0  0.17153  0.34925  0.82116  1.0000
  C   C16       1.0  0.82847  0.65075  0.17884  1.0000
  C   C17       1.0  0.26562  0.26300  0.76474  1.0000
  C   C18       1.0  0.73439  0.73701  0.23526  1.0000
  C   C19       1.0  0.38579  0.24770  0.86216  1.0000
  C   C20       1.0  0.61421  0.75230  0.13784  1.0000
  C   C21       1.0  0.40676  0.31584  0.01133  1.0000
  C   C22       1.0  0.59324  0.68416  0.98867  1.0000
  C   C23       1.0  0.56195  0.78150  0.60144  1.0000
  C   C24       1.0  0.43805  0.21850  0.39856  1.0000
  C   C25       1.0  0.68295  0.96090  0.69161  1.0000
  C   C26       1.0  0.31705  0.03910  0.30839  1.0000
  C   C27       1.0  0.74166  0.01978  0.86043  1.0000
  C   C28       1.0  0.25834  0.98022  0.13957  1.0000
  N   N1        1.0  0.13451  0.36064  0.38364  1.0000
  N   N2        1.0  0.86549  0.63936  0.61636  1.0000
  N   N3        1.0  0.31804  0.40093  0.06696  1.0000
  N   N4        1.0  0.68196  0.59907  0.93304  1.0000
  O   O1        1.0  0.92390  0.40005  0.77800  1.0000
  O   O2        1.0  0.07610  0.59995  0.22201  1.0000
  O   O3        1.0  0.54187  0.73849  0.46586  1.0000
  O   O4        1.0  0.45813  0.26151  0.53414  1.0000
  O   O5        1.0  0.49820  0.70592  0.67059  1.0000
  O   O6        1.0  0.50180  0.29407  0.32940  1.0000
  F   F1        1.0  0.60418  0.05715  0.66258  1.0000
  F   F2        1.0  0.39582  0.94285  0.33742  1.0000
  F   F3        1.0  0.82661  0.99406  0.65034  1.0000
  F   F4        1.0  0.17339  0.00594  0.34967  1.0000
  F   F5        1.0  0.61094  0.00864  0.91586  1.0000
  F   F6        1.0  0.38906  0.99136  0.08414  1.0000
  F   F7        1.0  0.82457  0.93561  0.90159  1.0000
  F   F8        1.0  0.17543  0.06439  0.09841  1.0000
  F   F9        1.0  0.84763  0.17718  0.92420  1.0000
  F   F10       1.0  0.15237  0.82282  0.07580  1.0000
