data_image0
_chemical_formula_structural       Cu2H12C8N24O8
_chemical_formula_sum              "Cu2 H12 C8 N24 O8"
_cell_length_a       7.74204
_cell_length_b       8.72471
_cell_length_c       9.09355
_cell_angle_alpha    90.0007
_cell_angle_beta     89.9992
_cell_angle_gamma    111.62

_space_group_name_H-M_alt    "P 1"
_space_group_IT_number       1

loop_
  _space_group_symop_operation_xyz
  'x, y, z'

loop_
  _atom_site_type_symbol
  _atom_site_label
  _atom_site_symmetry_multiplicity
  _atom_site_fract_x
  _atom_site_fract_y
  _atom_site_fract_z
  _atom_site_occupancy
  Cu  Cu1       1.0  0.00000  1.00000  1.00000  1.0000
  Cu  Cu2       1.0  0.50000  1.00000  0.50000  1.0000
  H   H1        1.0  0.92476  0.66295  0.47361  1.0000
  H   H2        1.0  0.57524  0.33705  0.97361  1.0000
  H   H3        1.0  0.07524  0.33705  0.52639  1.0000
  H   H4        1.0  0.42476  0.66295  0.02640  1.0000
  H   H5        1.0  0.80185  0.73379  0.60999  1.0000
  H   H6        1.0  0.69815  0.26621  0.10999  1.0000
  H   H7        1.0  0.19815  0.26621  0.39001  1.0000
  H   H8        1.0  0.30185  0.73379  0.89002  1.0000
  H   H9        1.0  0.96069  0.63859  0.66495  1.0000
  H   H10       1.0  0.53931  0.36141  0.16495  1.0000
  H   H11       1.0  0.03931  0.36141  0.33505  1.0000
  H   H12       1.0  0.46069  0.63859  0.83505  1.0000
  C   C1        1.0  0.85899  0.64027  0.58187  1.0000
  C   C2        1.0  0.64101  0.35973  0.08187  1.0000
  C   C3        1.0  0.14100  0.35973  0.41813  1.0000
  C   C4        1.0  0.35899  0.64027  0.91813  1.0000
  C   C5        1.0  0.46319  0.28517  0.63508  1.0000
  C   C6        1.0  0.03681  0.71483  0.13507  1.0000
  C   C7        1.0  0.53681  0.71483  0.36492  1.0000
  C   C8        1.0  0.96319  0.28517  0.86493  1.0000
  N   N1        1.0  0.70777  0.48032  0.57998  1.0000
  N   N2        1.0  0.79223  0.51968  0.07997  1.0000
  N   N3        1.0  0.29223  0.51968  0.42002  1.0000
  N   N4        1.0  0.20777  0.48032  0.92003  1.0000
  N   N5        1.0  0.71254  0.35686  0.49894  1.0000
  N   N6        1.0  0.78746  0.64313  0.99894  1.0000
  N   N7        1.0  0.28746  0.64314  0.50106  1.0000
  N   N8        1.0  0.21254  0.35686  0.00106  1.0000
  N   N9        1.0  0.55885  0.44532  0.66603  1.0000
  N   N10       1.0  0.94115  0.55468  0.16603  1.0000
  N   N11       1.0  0.44115  0.55468  0.33397  1.0000
  N   N12       1.0  0.05885  0.44532  0.83398  1.0000
  N   N13       1.0  0.19995  0.05297  0.66606  1.0000
  N   N14       1.0  0.30004  0.94704  0.16605  1.0000
  N   N15       1.0  0.80004  0.94703  0.33394  1.0000
  N   N16       1.0  0.69996  0.05297  0.83395  1.0000
  N   N17       1.0  0.29990  0.20330  0.70564  1.0000
  N   N18       1.0  0.20011  0.79671  0.20564  1.0000
  N   N19       1.0  0.70010  0.79669  0.29436  1.0000
  N   N20       1.0  0.79989  0.20330  0.79436  1.0000
  N   N21       1.0  0.55771  0.23203  0.53234  1.0000
  N   N22       1.0  0.94229  0.76797  0.03234  1.0000
  N   N23       1.0  0.44229  0.76797  0.46766  1.0000
  N   N24       1.0  0.05771  0.23203  0.96767  1.0000
  O   O1        1.0  0.04833  0.98015  0.73101  1.0000
  O   O2        1.0  0.45167  0.01987  0.23102  1.0000
  O   O3        1.0  0.95166  0.01985  0.26898  1.0000
  O   O4        1.0  0.54833  0.98013  0.76898  1.0000
  O   O5        1.0  0.24133  0.97040  0.56051  1.0000
  O   O6        1.0  0.25868  0.02960  0.06050  1.0000
  O   O7        1.0  0.75867  0.02959  0.43949  1.0000
  O   O8        1.0  0.74132  0.97040  0.93950  1.0000
