data_image0
_chemical_formula_structural       Ca4H64C40O28
_chemical_formula_sum              "Ca4 H64 C40 O28"
_cell_length_a       4.77933
_cell_length_b       15.8751
_cell_length_c       16.136
_cell_angle_alpha    90
_cell_angle_beta     90
_cell_angle_gamma    90

_space_group_name_H-M_alt    "P 1"
_space_group_IT_number       1

loop_
  _space_group_symop_operation_xyz
  'x, y, z'

loop_
  _atom_site_type_symbol
  _atom_site_label
  _atom_site_symmetry_multiplicity
  _atom_site_fract_x
  _atom_site_fract_y
  _atom_site_fract_z
  _atom_site_occupancy
  Ca  Ca1       1.0  0.99163  0.32666  0.36767  1.0000
  Ca  Ca2       1.0  0.50835  0.67335  0.86767  1.0000
  Ca  Ca3       1.0  0.49164  0.17335  0.63233  1.0000
  Ca  Ca4       1.0  0.00835  0.82664  0.13233  1.0000
  H   H1        1.0  0.90736  0.32226  0.55263  1.0000
  H   H2        1.0  0.59264  0.67775  0.05263  1.0000
  H   H3        1.0  0.40733  0.17774  0.44738  1.0000
  H   H4        1.0  0.09264  0.82225  0.94737  1.0000
  H   H5        1.0  0.24064  0.31788  0.54738  1.0000
  H   H6        1.0  0.25938  0.68213  0.04739  1.0000
  H   H7        1.0  0.74062  0.18213  0.45261  1.0000
  H   H8        1.0  0.75938  0.81788  0.95262  1.0000
  H   H9        1.0  0.45004  0.26868  0.25911  1.0000
  H   H10       1.0  0.04996  0.73132  0.75911  1.0000
  H   H11       1.0  0.95005  0.23132  0.74089  1.0000
  H   H12       1.0  0.54995  0.76868  0.24090  1.0000
  H   H13       1.0  0.43268  0.36339  0.24418  1.0000
  H   H14       1.0  0.06733  0.63661  0.74418  1.0000
  H   H15       1.0  0.93269  0.13660  0.75582  1.0000
  H   H16       1.0  0.56732  0.86340  0.25582  1.0000
  H   H17       1.0  0.46121  0.42789  0.40970  1.0000
  H   H18       1.0  0.03880  0.57211  0.90970  1.0000
  H   H19       1.0  0.96120  0.07211  0.59031  1.0000
  H   H20       1.0  0.53880  0.92789  0.09030  1.0000
  H   H21       1.0  0.56554  0.37584  0.48897  1.0000
  H   H22       1.0  0.93446  0.62415  0.98897  1.0000
  H   H23       1.0  0.06554  0.12416  0.51104  1.0000
  H   H24       1.0  0.43447  0.87585  0.01104  1.0000
  H   H25       1.0  0.46579  0.08015  0.10905  1.0000
  H   H26       1.0  0.03418  0.91986  0.60904  1.0000
  H   H27       1.0  0.96580  0.41986  0.89094  1.0000
  H   H28       1.0  0.53418  0.58015  0.39095  1.0000
  H   H29       1.0  0.37721  0.16230  0.17756  1.0000
  H   H30       1.0  0.12274  0.83769  0.67754  1.0000
  H   H31       1.0  0.87725  0.33770  0.82244  1.0000
  H   H32       1.0  0.62275  0.66231  0.32246  1.0000
  H   H33       1.0  0.54839  0.96565  0.36051  1.0000
  H   H34       1.0  0.95164  0.03436  0.86050  1.0000
  H   H35       1.0  0.04838  0.53436  0.63950  1.0000
  H   H36       1.0  0.45164  0.46565  0.13950  1.0000
  H   H37       1.0  0.46242  0.04569  0.43181  1.0000
  H   H38       1.0  0.03756  0.95432  0.93182  1.0000
  H   H39       1.0  0.96249  0.45432  0.56818  1.0000
  H   H40       1.0  0.53758  0.54568  0.06816  1.0000
  H   H41       1.0  0.53549  0.22250  0.04250  1.0000
  H   H42       1.0  0.96447  0.77751  0.54249  1.0000
  H   H43       1.0  0.03548  0.27751  0.95750  1.0000
  H   H44       1.0  0.46452  0.72248  0.45751  1.0000
  H   H45       1.0  0.85914  0.16798  0.05095  1.0000
  H   H46       1.0  0.64084  0.83202  0.55094  1.0000
  H   H47       1.0  0.35914  0.33203  0.94906  1.0000
  H   H48       1.0  0.14087  0.66798  0.44907  1.0000
  H   H49       1.0  0.77742  0.24967  0.12177  1.0000
  H   H50       1.0  0.72253  0.75033  0.62174  1.0000
  H   H51       1.0  0.27746  0.25033  0.87824  1.0000
  H   H52       1.0  0.22255  0.74967  0.37827  1.0000
  H   H53       1.0  0.34372  0.90481  0.49129  1.0000
  H   H54       1.0  0.15630  0.09520  0.99128  1.0000
  H   H55       1.0  0.84371  0.59518  0.50871  1.0000
  H   H56       1.0  0.65633  0.40480  0.00872  1.0000
  H   H57       1.0  0.12586  0.88244  0.40469  1.0000
  H   H58       1.0  0.37412  0.11755  0.90468  1.0000
  H   H59       1.0  0.62585  0.61755  0.59531  1.0000
  H   H60       1.0  0.87413  0.38245  0.09532  1.0000
  H   H61       1.0  0.03133  0.96320  0.47500  1.0000
  H   H62       1.0  0.46865  0.03680  0.97500  1.0000
  H   H63       1.0  0.53135  0.53679  0.52499  1.0000
  H   H64       1.0  0.96868  0.46318  0.02500  1.0000
  C   C1        1.0  0.04990  0.11312  0.33889  1.0000
  C   C2        1.0  0.45015  0.88688  0.83889  1.0000
  C   C3        1.0  0.54988  0.38688  0.66111  1.0000
  C   C4        1.0  0.95013  0.61312  0.16111  1.0000
  C   C5        1.0  0.83832  0.14570  0.27600  1.0000
  C   C6        1.0  0.66166  0.85429  0.77599  1.0000
  C   C7        1.0  0.33830  0.35430  0.72401  1.0000
  C   C8        1.0  0.16166  0.64570  0.22401  1.0000
  C   C9        1.0  0.75946  0.09799  0.20640  1.0000
  C   C10       1.0  0.74047  0.90200  0.70639  1.0000
  C   C11       1.0  0.25949  0.40201  0.79360  1.0000
  C   C12       1.0  0.24049  0.59799  0.29361  1.0000
  C   C13       1.0  0.10832  0.52015  0.30600  1.0000
  C   C14       1.0  0.39168  0.47984  0.80598  1.0000
  C   C15       1.0  0.60832  0.97985  0.69400  1.0000
  C   C16       1.0  0.89168  0.02016  0.19402  1.0000
  C   C17       1.0  0.88492  0.48918  0.24466  1.0000
  C   C18       1.0  0.61511  0.51081  0.74465  1.0000
  C   C19       1.0  0.38491  0.01082  0.75535  1.0000
  C   C20       1.0  0.11511  0.98919  0.25535  1.0000
  C   C21       1.0  0.18410  0.03643  0.32747  1.0000
  C   C22       1.0  0.31593  0.96357  0.82746  1.0000
  C   C23       1.0  0.68412  0.46358  0.67253  1.0000
  C   C24       1.0  0.81592  0.53644  0.17254  1.0000
  C   C25       1.0  0.55336  0.13254  0.14496  1.0000
  C   C26       1.0  0.94662  0.86747  0.64496  1.0000
  C   C27       1.0  0.05337  0.36746  0.85503  1.0000
  C   C28       1.0  0.44661  0.63254  0.35503  1.0000
  C   C29       1.0  0.37218  0.99726  0.39137  1.0000
  C   C30       1.0  0.12783  0.00273  0.89136  1.0000
  C   C31       1.0  0.87219  0.50273  0.60863  1.0000
  C   C32       1.0  0.62784  0.49727  0.10864  1.0000
  C   C33       1.0  0.68847  0.19693  0.08654  1.0000
  C   C34       1.0  0.81153  0.80308  0.58654  1.0000
  C   C35       1.0  0.18847  0.30308  0.91346  1.0000
  C   C36       1.0  0.31154  0.69692  0.41347  1.0000
  C   C37       1.0  0.20952  0.93316  0.44368  1.0000
  C   C38       1.0  0.29045  0.06684  0.94367  1.0000
  C   C39       1.0  0.70954  0.56684  0.55632  1.0000
  C   C40       1.0  0.79047  0.43315  0.05633  1.0000
  O   O1        1.0  0.06782  0.31344  0.51441  1.0000
  O   O2        1.0  0.43217  0.68655  0.01441  1.0000
  O   O3        1.0  0.56781  0.18655  0.48559  1.0000
  O   O4        1.0  0.93218  0.81346  0.98559  1.0000
  O   O5        1.0  0.30872  0.31472  0.25388  1.0000
  O   O6        1.0  0.19128  0.68529  0.75388  1.0000
  O   O7        1.0  0.80872  0.18527  0.74611  1.0000
  O   O8        1.0  0.69128  0.81472  0.24612  1.0000
  O   O9        1.0  0.56875  0.37774  0.42790  1.0000
  O   O10       1.0  0.93124  0.62226  0.92790  1.0000
  O   O11       1.0  0.06874  0.12227  0.57210  1.0000
  O   O12       1.0  0.43124  0.87774  0.07210  1.0000
  O   O13       1.0  0.08529  0.16258  0.40268  1.0000
  O   O14       1.0  0.41473  0.83742  0.90267  1.0000
  O   O15       1.0  0.58526  0.33743  0.59733  1.0000
  O   O16       1.0  0.91470  0.66257  0.09733  1.0000
  O   O17       1.0  0.73691  0.21840  0.29249  1.0000
  O   O18       1.0  0.76314  0.78160  0.79249  1.0000
  O   O19       1.0  0.23686  0.28159  0.70751  1.0000
  O   O20       1.0  0.26308  0.71840  0.20751  1.0000
  O   O21       1.0  0.15909  0.47049  0.36661  1.0000
  O   O22       1.0  0.34093  0.52950  0.86660  1.0000
  O   O23       1.0  0.65906  0.02951  0.63339  1.0000
  O   O24       1.0  0.84094  0.97050  0.13340  1.0000
  O   O25       1.0  0.77394  0.41882  0.26136  1.0000
  O   O26       1.0  0.72611  0.58116  0.76136  1.0000
  O   O27       1.0  0.27394  0.08117  0.73864  1.0000
  O   O28       1.0  0.22611  0.91885  0.23865  1.0000
