data_image0
_chemical_formula_structural       Gd2H14C4S2O16
_chemical_formula_sum              "Gd2 H14 C4 S2 O16"
_cell_length_a       6.70465
_cell_length_b       6.8422
_cell_length_c       8.58194
_cell_angle_alpha    111.793
_cell_angle_beta     89.6924
_cell_angle_gamma    107.348

_space_group_name_H-M_alt    "P 1"
_space_group_IT_number       1

loop_
  _space_group_symop_operation_xyz
  'x, y, z'

loop_
  _atom_site_type_symbol
  _atom_site_label
  _atom_site_symmetry_multiplicity
  _atom_site_fract_x
  _atom_site_fract_y
  _atom_site_fract_z
  _atom_site_occupancy
  Gd  Gd1       1.0  0.11931  0.35423  0.13364  1.0000
  Gd  Gd2       1.0  0.88069  0.64577  0.86636  1.0000
  H   H1        1.0  0.11603  0.20319  0.42630  1.0000
  H   H2        1.0  0.88397  0.79681  0.57370  1.0000
  H   H3        1.0  0.92570  0.01946  0.28623  1.0000
  H   H4        1.0  0.07430  0.98054  0.71377  1.0000
  H   H5        1.0  0.17516  0.68529  0.50641  1.0000
  H   H6        1.0  0.82484  0.31471  0.49358  1.0000
  H   H7        1.0  0.40583  0.68536  0.44786  1.0000
  H   H8        1.0  0.59417  0.31464  0.55214  1.0000
  H   H9        1.0  0.45439  0.94830  0.33450  1.0000
  H   H10       1.0  0.54561  0.05171  0.66550  1.0000
  H   H11       1.0  0.58726  0.97234  0.16052  1.0000
  H   H12       1.0  0.41274  0.02766  0.83949  1.0000
  H   H13       1.0  0.48536  0.18664  0.28012  1.0000
  H   H14       1.0  0.51464  0.81336  0.71988  1.0000
  C   C1        1.0  0.26162  0.88476  0.11472  1.0000
  C   C2        1.0  0.73838  0.11523  0.88528  1.0000
  C   C3        1.0  0.45799  0.00835  0.23270  1.0000
  C   C4        1.0  0.54201  0.99165  0.76730  1.0000
  S   S1        1.0  0.29990  0.39789  0.74660  1.0000
  S   S2        1.0  0.70010  0.60211  0.25340  1.0000
  O   O1        1.0  0.21052  0.25737  0.84515  1.0000
  O   O2        1.0  0.78947  0.74262  0.15486  1.0000
  O   O3        1.0  0.16050  0.52624  0.73733  1.0000
  O   O4        1.0  0.83949  0.47377  0.26267  1.0000
  O   O5        1.0  0.31567  0.24924  0.57222  1.0000
  O   O6        1.0  0.68433  0.75075  0.42777  1.0000
  O   O7        1.0  0.51193  0.55190  0.83064  1.0000
  O   O8        1.0  0.48808  0.44810  0.16937  1.0000
  O   O9        1.0  0.17142  0.67870  0.08045  1.0000
  O   O10       1.0  0.82858  0.32130  0.91955  1.0000
  O   O11       1.0  0.17972  0.97932  0.03991  1.0000
  O   O12       1.0  0.82028  0.02068  0.96009  1.0000
  O   O13       1.0  0.00174  0.18160  0.34105  1.0000
  O   O14       1.0  0.99826  0.81841  0.65895  1.0000
  O   O15       1.0  0.25283  0.62658  0.41142  1.0000
  O   O16       1.0  0.74717  0.37342  0.58858  1.0000
