data_image0
_chemical_formula_structural       Cu5H32C26N2O16
_chemical_formula_sum              "Cu5 H32 C26 N2 O16"
_cell_length_a       7.65582
_cell_length_b       9.53362
_cell_length_c       11.8047
_cell_angle_alpha    70.8145
_cell_angle_beta     71.0888
_cell_angle_gamma    75.0623

_space_group_name_H-M_alt    "P 1"
_space_group_IT_number       1

loop_
  _space_group_symop_operation_xyz
  'x, y, z'

loop_
  _atom_site_type_symbol
  _atom_site_label
  _atom_site_symmetry_multiplicity
  _atom_site_fract_x
  _atom_site_fract_y
  _atom_site_fract_z
  _atom_site_occupancy
  Cu  Cu1       1.0  0.50012  0.49986  0.49993  1.0000
  Cu  Cu2       1.0  0.55829  0.32148  0.02486  1.0000
  Cu  Cu3       1.0  0.44153  0.67843  0.97508  1.0000
  Cu  Cu4       1.0  0.36758  0.48650  0.25501  1.0000
  Cu  Cu5       1.0  0.63210  0.51381  0.74485  1.0000
  H   H1        1.0  0.38511  0.12196  0.91426  1.0000
  H   H2        1.0  0.61472  0.87793  0.08566  1.0000
  H   H3        1.0  0.25455  0.13556  0.80915  1.0000
  H   H4        1.0  0.74505  0.86461  0.19080  1.0000
  H   H5        1.0  0.16332  0.23774  0.92447  1.0000
  H   H6        1.0  0.83663  0.76237  0.07552  1.0000
  H   H7        1.0  0.84494  0.94610  0.84948  1.0000
  H   H8        1.0  0.15499  0.05379  0.15079  1.0000
  H   H9        1.0  0.02628  0.95991  0.90720  1.0000
  H   H10       1.0  0.97351  0.04021  0.09304  1.0000
  H   H11       1.0  0.04070  0.02859  0.74422  1.0000
  H   H12       1.0  0.95928  0.97127  0.25597  1.0000
  H   H13       1.0  0.21712  0.03874  0.36219  1.0000
  H   H14       1.0  0.78339  0.96115  0.63828  1.0000
  H   H15       1.0  0.39366  0.01504  0.43955  1.0000
  H   H16       1.0  0.60733  0.98493  0.56055  1.0000
  H   H17       1.0  0.42384  0.90462  0.33646  1.0000
  H   H18       1.0  0.57676  0.09552  0.66354  1.0000
  H   H19       1.0  0.28025  0.22776  0.54378  1.0000
  H   H20       1.0  0.71985  0.77194  0.45600  1.0000
  H   H21       1.0  0.11454  0.37963  0.58959  1.0000
  H   H22       1.0  0.88580  0.62011  0.41031  1.0000
  H   H23       1.0  0.87102  0.22767  0.57603  1.0000
  H   H24       1.0  0.12927  0.77203  0.42392  1.0000
  H   H25       1.0  0.71522  0.21319  0.42022  1.0000
  H   H26       1.0  0.28453  0.78703  0.57981  1.0000
  H   H27       1.0  0.84629  0.31687  0.19683  1.0000
  H   H28       1.0  0.15316  0.68360  0.80320  1.0000
  H   H29       1.0  0.16329  0.40918  0.02676  1.0000
  H   H30       1.0  0.83633  0.59092  0.97315  1.0000
  H   H31       1.0  0.08056  0.58325  0.06702  1.0000
  H   H32       1.0  0.91959  0.41686  0.93296  1.0000
  C   C1        1.0  0.20702  0.34246  0.50765  1.0000
  C   C2        1.0  0.79316  0.65730  0.49220  1.0000
  C   C3        1.0  0.08951  0.33316  0.43079  1.0000
  C   C4        1.0  0.91052  0.66679  0.56909  1.0000
  C   C5        1.0  0.92783  0.26836  0.47587  1.0000
  C   C6        1.0  0.07224  0.73154  0.52408  1.0000
  C   C7        1.0  0.84126  0.26311  0.39010  1.0000
  C   C8        1.0  0.15859  0.73700  0.60988  1.0000
  C   C9        1.0  0.91446  0.32248  0.26262  1.0000
  C   C10       1.0  0.08531  0.67771  0.73734  1.0000
  C   C11       1.0  0.07205  0.39014  0.22395  1.0000
  C   C12       1.0  0.92784  0.60993  0.77596  1.0000
  C   C13       1.0  0.16177  0.46923  0.09221  1.0000
  C   C14       1.0  0.83814  0.53078  0.90767  1.0000
  C   C15       1.0  0.38243  0.32942  0.77095  1.0000
  C   C16       1.0  0.61752  0.67056  0.22896  1.0000
  C   C17       1.0  0.29035  0.19824  0.85871  1.0000
  C   C18       1.0  0.70949  0.80180  0.14125  1.0000
  C   C19       1.0  0.83500  0.16814  0.85450  1.0000
  C   C20       1.0  0.16483  0.83180  0.14559  1.0000
  C   C21       1.0  0.94617  0.01679  0.83793  1.0000
  C   C22       1.0  0.05371  0.98317  0.16224  1.0000
  C   C23       1.0  0.46212  0.13487  0.24594  1.0000
  C   C24       1.0  0.53800  0.86531  0.75414  1.0000
  C   C25       1.0  0.36828  0.01642  0.35301  1.0000
  C   C26       1.0  0.63229  0.98362  0.64719  1.0000
  N   N1        1.0  0.15405  0.39268  0.30799  1.0000
  N   N2        1.0  0.84584  0.60739  0.69191  1.0000
  O   O1        1.0  0.33669  0.44207  0.43467  1.0000
  O   O2        1.0  0.66358  0.55761  0.56519  1.0000
  O   O3        1.0  0.35009  0.48619  0.07714  1.0000
  O   O4        1.0  0.64994  0.51362  0.92263  1.0000
  O   O5        1.0  0.42680  0.34031  0.65518  1.0000
  O   O6        1.0  0.57323  0.65959  0.34476  1.0000
  O   O7        1.0  0.41157  0.42019  0.81992  1.0000
  O   O8        1.0  0.58833  0.57983  0.18001  1.0000
  O   O9        1.0  0.76988  0.17613  0.96874  1.0000
  O   O10       1.0  0.22974  0.82376  0.03138  1.0000
  O   O11       1.0  0.80815  0.27266  0.76064  1.0000
  O   O12       1.0  0.19179  0.72730  0.23945  1.0000
  O   O13       1.0  0.41796  0.16400  0.14191  1.0000
  O   O14       1.0  0.58201  0.83596  0.85826  1.0000
  O   O15       1.0  0.57304  0.20164  0.25880  1.0000
  O   O16       1.0  0.42693  0.79876  0.74115  1.0000
