data_image0
_chemical_formula_structural       Sr2V2H44C24O28
_chemical_formula_sum              "Sr2 V2 H44 C24 O28"
_cell_length_a       9.3723
_cell_length_b       10.8574
_cell_length_c       10.8574
_cell_angle_alpha    96.7461
_cell_angle_beta     112.926
_cell_angle_gamma    112.927

_space_group_name_H-M_alt    "P 1"
_space_group_IT_number       1

loop_
  _space_group_symop_operation_xyz
  'x, y, z'

loop_
  _atom_site_type_symbol
  _atom_site_label
  _atom_site_symmetry_multiplicity
  _atom_site_fract_x
  _atom_site_fract_y
  _atom_site_fract_z
  _atom_site_occupancy
  Sr  Sr1       1.0  0.25000  0.82550  0.17450  1.0000
  Sr  Sr2       1.0  0.75000  0.17450  0.82550  1.0000
  V   V1        1.0  0.25000  0.09355  0.90645  1.0000
  V   V2        1.0  0.75000  0.90645  0.09355  1.0000
  H   H1        1.0  0.99281  0.70735  0.76315  1.0000
  H   H2        1.0  0.50719  0.23684  0.29265  1.0000
  H   H3        1.0  0.00719  0.29265  0.23685  1.0000
  H   H4        1.0  0.49281  0.76316  0.70735  1.0000
  H   H5        1.0  0.89323  0.77475  0.84227  1.0000
  H   H6        1.0  0.60677  0.15773  0.22525  1.0000
  H   H7        1.0  0.10677  0.22525  0.15773  1.0000
  H   H8        1.0  0.39323  0.84227  0.77475  1.0000
  H   H9        1.0  0.69398  0.51520  0.58739  1.0000
  H   H10       1.0  0.80602  0.41261  0.48480  1.0000
  H   H11       1.0  0.30602  0.48480  0.41261  1.0000
  H   H12       1.0  0.19398  0.58739  0.51520  1.0000
  H   H13       1.0  0.59718  0.59550  0.65555  1.0000
  H   H14       1.0  0.90282  0.34445  0.40450  1.0000
  H   H15       1.0  0.40282  0.40450  0.34445  1.0000
  H   H16       1.0  0.09718  0.65555  0.59551  1.0000
  H   H17       1.0  0.59107  0.72977  0.48645  1.0000
  H   H18       1.0  0.90893  0.51355  0.27023  1.0000
  H   H19       1.0  0.40893  0.27023  0.51355  1.0000
  H   H20       1.0  0.09108  0.48645  0.72977  1.0000
  H   H21       1.0  0.71476  0.66624  0.43662  1.0000
  H   H22       1.0  0.78524  0.56338  0.33376  1.0000
  H   H23       1.0  0.28524  0.33376  0.56338  1.0000
  H   H24       1.0  0.21476  0.43662  0.66624  1.0000
  H   H25       1.0  0.33938  0.33119  0.79622  1.0000
  H   H26       1.0  0.16062  0.20378  0.66881  1.0000
  H   H27       1.0  0.66062  0.66881  0.20378  1.0000
  H   H28       1.0  0.83938  0.79622  0.33119  1.0000
  H   H29       1.0  0.84071  0.65485  0.02707  1.0000
  H   H30       1.0  0.65929  0.97293  0.34515  1.0000
  H   H31       1.0  0.15929  0.34514  0.97293  1.0000
  H   H32       1.0  0.34071  0.02707  0.65485  1.0000
  H   H33       1.0  0.88350  0.53066  0.05868  1.0000
  H   H34       1.0  0.61650  0.94132  0.46934  1.0000
  H   H35       1.0  0.11650  0.46933  0.94132  1.0000
  H   H36       1.0  0.38350  0.05868  0.53066  1.0000
  H   H37       1.0  0.13703  0.80270  0.42292  1.0000
  H   H38       1.0  0.36297  0.57708  0.19729  1.0000
  H   H39       1.0  0.86297  0.19730  0.57708  1.0000
  H   H40       1.0  0.63703  0.42292  0.80271  1.0000
  H   H41       1.0  0.32330  0.82069  0.47460  1.0000
  H   H42       1.0  0.17670  0.52540  0.17931  1.0000
  H   H43       1.0  0.67670  0.17931  0.52540  1.0000
  H   H44       1.0  0.82330  0.47460  0.82069  1.0000
  C   C1        1.0  0.03267  0.88374  0.61616  1.0000
  C   C2        1.0  0.46733  0.38384  0.11626  1.0000
  C   C3        1.0  0.96733  0.11626  0.38384  1.0000
  C   C4        1.0  0.53267  0.61616  0.88374  1.0000
  C   C5        1.0  0.87686  0.83082  0.64484  1.0000
  C   C6        1.0  0.62314  0.35516  0.16918  1.0000
  C   C7        1.0  0.12314  0.16918  0.35516  1.0000
  C   C8        1.0  0.37686  0.64484  0.83082  1.0000
  C   C9        1.0  0.86009  0.95239  0.71162  1.0000
  C   C10       1.0  0.63991  0.28838  0.04762  1.0000
  C   C11       1.0  0.13991  0.04762  0.28839  1.0000
  C   C12       1.0  0.36009  0.71162  0.95238  1.0000
  C   C13       1.0  0.88462  0.73239  0.74148  1.0000
  C   C14       1.0  0.61538  0.25851  0.26761  1.0000
  C   C15       1.0  0.11538  0.26761  0.25851  1.0000
  C   C16       1.0  0.38462  0.74149  0.73239  1.0000
  C   C17       1.0  0.70074  0.61625  0.62521  1.0000
  C   C18       1.0  0.79925  0.37479  0.38375  1.0000
  C   C19       1.0  0.29925  0.38375  0.37478  1.0000
  C   C20       1.0  0.20075  0.62522  0.61625  1.0000
  C   C21       1.0  0.70159  0.70715  0.52607  1.0000
  C   C22       1.0  0.79841  0.47393  0.29284  1.0000
  C   C23       1.0  0.29841  0.29284  0.47393  1.0000
  C   C24       1.0  0.20159  0.52607  0.70716  1.0000
  O   O1        1.0  0.25000  0.99326  0.00674  1.0000
  O   O2        1.0  0.75000  0.00674  0.99326  1.0000
  O   O3        1.0  0.25000  0.23165  0.76835  1.0000
  O   O4        1.0  0.75000  0.76835  0.23166  1.0000
  O   O5        1.0  0.18828  0.96388  0.72282  1.0000
  O   O6        1.0  0.31171  0.27718  0.03612  1.0000
  O   O7        1.0  0.81171  0.03612  0.27718  1.0000
  O   O8        1.0  0.68829  0.72282  0.96388  1.0000
  O   O9        1.0  0.20831  0.77503  0.39047  1.0000
  O   O10       1.0  0.29169  0.60953  0.22497  1.0000
  O   O11       1.0  0.79169  0.22497  0.60953  1.0000
  O   O12       1.0  0.70831  0.39047  0.77503  1.0000
  O   O13       1.0  0.93388  0.62607  0.05136  1.0000
  O   O14       1.0  0.56612  0.94864  0.37393  1.0000
  O   O15       1.0  0.06612  0.37393  0.94864  1.0000
  O   O16       1.0  0.43388  0.05136  0.62607  1.0000
  O   O17       1.0  0.01202  0.84712  0.49374  1.0000
  O   O18       1.0  0.48798  0.50626  0.15288  1.0000
  O   O19       1.0  0.98798  0.15288  0.50626  1.0000
  O   O20       1.0  0.51203  0.49374  0.84712  1.0000
  O   O21       1.0  0.99596  0.05303  0.82242  1.0000
  O   O22       1.0  0.50404  0.17758  0.94697  1.0000
  O   O23       1.0  0.00404  0.94696  0.17758  1.0000
  O   O24       1.0  0.49596  0.82242  0.05303  1.0000
  O   O25       1.0  0.71341  0.95066  0.66241  1.0000
  O   O26       1.0  0.78659  0.33759  0.04935  1.0000
  O   O27       1.0  0.28659  0.04934  0.33759  1.0000
  O   O28       1.0  0.21341  0.66242  0.95065  1.0000
