data_image0
_chemical_formula_structural       Ag4H24C28N20
_chemical_formula_sum              "Ag4 H24 C28 N20"
_cell_length_a       8.48371
_cell_length_b       8.57787
_cell_length_c       11.1212
_cell_angle_alpha    97.4348
_cell_angle_beta     90.8772
_cell_angle_gamma    94.6646

_space_group_name_H-M_alt    "P 1"
_space_group_IT_number       1

loop_
  _space_group_symop_operation_xyz
  'x, y, z'

loop_
  _atom_site_type_symbol
  _atom_site_label
  _atom_site_symmetry_multiplicity
  _atom_site_fract_x
  _atom_site_fract_y
  _atom_site_fract_z
  _atom_site_occupancy
  Ag  Ag1       1.0  0.79681  0.53935  0.62216  1.0000
  Ag  Ag2       1.0  0.20319  0.46065  0.37784  1.0000
  Ag  Ag3       1.0  0.48777  0.68296  0.90074  1.0000
  Ag  Ag4       1.0  0.51223  0.31704  0.09927  1.0000
  H   H1        1.0  0.52927  0.91257  0.68961  1.0000
  H   H2        1.0  0.47073  0.08743  0.31039  1.0000
  H   H3        1.0  0.78900  0.78148  0.36750  1.0000
  H   H4        1.0  0.21100  0.21852  0.63250  1.0000
  H   H5        1.0  0.90620  0.05876  0.37709  1.0000
  H   H6        1.0  0.09381  0.94124  0.62291  1.0000
  H   H7        1.0  0.84099  0.26098  0.54412  1.0000
  H   H8        1.0  0.15901  0.73902  0.45588  1.0000
  H   H9        1.0  0.86143  0.82266  0.78565  1.0000
  H   H10       1.0  0.13857  0.17734  0.21435  1.0000
  H   H11       1.0  0.79076  0.86510  0.17054  1.0000
  H   H12       1.0  0.20924  0.13489  0.82946  1.0000
  H   H13       1.0  0.03165  0.72441  0.19735  1.0000
  H   H14       1.0  0.96835  0.27559  0.80265  1.0000
  H   H15       1.0  0.18351  0.62524  0.01750  1.0000
  H   H16       1.0  0.81649  0.37476  0.98250  1.0000
  H   H17       1.0  0.58944  0.60664  0.44617  1.0000
  H   H18       1.0  0.41056  0.39336  0.55383  1.0000
  H   H19       1.0  0.49509  0.65479  0.57678  1.0000
  H   H20       1.0  0.50491  0.34521  0.42322  1.0000
  H   H21       1.0  0.66059  0.99406  0.89937  1.0000
  H   H22       1.0  0.33941  0.00595  0.10063  1.0000
  H   H23       1.0  0.62004  0.96071  0.04079  1.0000
  H   H24       1.0  0.37996  0.03929  0.95921  1.0000
  C   C1        1.0  0.63133  0.21700  0.72459  1.0000
  C   C2        1.0  0.36867  0.78300  0.27541  1.0000
  C   C3        1.0  0.67889  0.10043  0.62717  1.0000
  C   C4        1.0  0.32111  0.89958  0.37282  1.0000
  C   C5        1.0  0.61419  0.94404  0.62230  1.0000
  C   C6        1.0  0.38580  0.05596  0.37770  1.0000
  C   C7        1.0  0.65472  0.82894  0.52985  1.0000
  C   C8        1.0  0.34528  0.17106  0.47015  1.0000
  C   C9        1.0  0.75789  0.87163  0.43965  1.0000
  C   C10       1.0  0.24211  0.12837  0.56035  1.0000
  C   C11       1.0  0.82278  0.02678  0.44526  1.0000
  C   C12       1.0  0.17722  0.97322  0.55473  1.0000
  C   C13       1.0  0.78593  0.14113  0.53919  1.0000
  C   C14       1.0  0.21407  0.85887  0.46081  1.0000
  C   C15       1.0  0.11985  0.66035  0.78377  1.0000
  C   C16       1.0  0.88015  0.33966  0.21623  1.0000
  C   C17       1.0  0.03514  0.72204  0.89082  1.0000
  C   C18       1.0  0.96487  0.27796  0.10918  1.0000
  C   C19       1.0  0.89953  0.80135  0.87594  1.0000
  C   C20       1.0  0.10046  0.19865  0.12406  1.0000
  C   C21       1.0  0.81000  0.85047  0.97636  1.0000
  C   C22       1.0  0.18999  0.14953  0.02364  1.0000
  C   C23       1.0  0.86028  0.82504  0.09252  1.0000
  C   C24       1.0  0.13972  0.17496  0.90748  1.0000
  C   C25       1.0  0.99542  0.74670  0.10704  1.0000
  C   C26       1.0  0.00458  0.25330  0.89296  1.0000
  C   C27       1.0  0.08286  0.69360  0.00695  1.0000
  C   C28       1.0  0.91714  0.30640  0.99305  1.0000
  N   N1        1.0  0.65155  0.37574  0.72930  1.0000
  N   N2        1.0  0.34846  0.62426  0.27070  1.0000
  N   N3        1.0  0.58969  0.43442  0.83475  1.0000
  N   N4        1.0  0.41031  0.56558  0.16525  1.0000
  N   N5        1.0  0.53411  0.31556  0.89092  1.0000
  N   N6        1.0  0.46589  0.68444  0.10908  1.0000
  N   N7        1.0  0.55835  0.17806  0.82478  1.0000
  N   N8        1.0  0.44165  0.82194  0.17523  1.0000
  N   N9        1.0  0.59791  0.67072  0.53056  1.0000
  N   N10       1.0  0.40209  0.32929  0.46944  1.0000
  N   N11       1.0  0.04885  0.60193  0.67568  1.0000
  N   N12       1.0  0.95115  0.39807  0.32432  1.0000
  N   N13       1.0  0.16445  0.55198  0.60288  1.0000
  N   N14       1.0  0.83555  0.44803  0.39712  1.0000
  N   N15       1.0  0.30075  0.57908  0.66282  1.0000
  N   N16       1.0  0.69925  0.42092  0.33719  1.0000
  N   N17       1.0  0.27690  0.64684  0.77642  1.0000
  N   N18       1.0  0.72310  0.35316  0.22358  1.0000
  N   N19       1.0  0.66393  0.91394  0.96023  1.0000
  N   N20       1.0  0.33607  0.08606  0.03977  1.0000
