data_image0
_chemical_formula_structural       Ag4H24C28N20
_chemical_formula_sum              "Ag4 H24 C28 N20"
_cell_length_a       8.34387
_cell_length_b       8.34385
_cell_length_c       12.5848
_cell_angle_alpha    71.2752
_cell_angle_beta     71.2753
_cell_angle_gamma    72.3658

_space_group_name_H-M_alt    "P 1"
_space_group_IT_number       1

loop_
  _space_group_symop_operation_xyz
  'x, y, z'

loop_
  _atom_site_type_symbol
  _atom_site_label
  _atom_site_symmetry_multiplicity
  _atom_site_fract_x
  _atom_site_fract_y
  _atom_site_fract_z
  _atom_site_occupancy
  Ag  Ag1       1.0  0.87377  0.94753  0.90838  1.0000
  Ag  Ag2       1.0  0.05247  0.12623  0.59162  1.0000
  Ag  Ag3       1.0  0.12623  0.05247  0.09162  1.0000
  Ag  Ag4       1.0  0.94753  0.87377  0.40838  1.0000
  H   H1        1.0  0.66803  0.43124  0.79573  1.0000
  H   H2        1.0  0.56876  0.33197  0.70427  1.0000
  H   H3        1.0  0.33197  0.56876  0.20427  1.0000
  H   H4        1.0  0.43124  0.66803  0.29573  1.0000
  H   H5        1.0  0.63735  0.18169  0.15642  1.0000
  H   H6        1.0  0.81831  0.36265  0.34358  1.0000
  H   H7        1.0  0.36266  0.81831  0.84358  1.0000
  H   H8        1.0  0.18169  0.63735  0.65642  1.0000
  H   H9        1.0  0.77555  0.39909  0.16830  1.0000
  H   H10       1.0  0.60091  0.22446  0.33170  1.0000
  H   H11       1.0  0.22445  0.60091  0.83170  1.0000
  H   H12       1.0  0.39909  0.77555  0.66830  1.0000
  H   H13       1.0  0.85994  0.63103  0.99571  1.0000
  H   H14       1.0  0.36897  0.14006  0.50429  1.0000
  H   H15       1.0  0.14005  0.36898  0.00429  1.0000
  H   H16       1.0  0.63103  0.85994  0.49571  1.0000
  H   H17       1.0  0.50045  0.20227  0.90891  1.0000
  H   H18       1.0  0.79773  0.49955  0.59110  1.0000
  H   H19       1.0  0.49956  0.79773  0.09110  1.0000
  H   H20       1.0  0.20227  0.50045  0.40890  1.0000
  H   H21       1.0  0.51606  0.09644  0.04399  1.0000
  H   H22       1.0  0.90356  0.48394  0.45601  1.0000
  H   H23       1.0  0.48395  0.90356  0.95601  1.0000
  H   H24       1.0  0.09644  0.51605  0.54399  1.0000
  C   C1        1.0  0.81172  0.68486  0.78114  1.0000
  C   C2        1.0  0.31515  0.18828  0.71886  1.0000
  C   C3        1.0  0.18828  0.31514  0.21886  1.0000
  C   C4        1.0  0.68486  0.81172  0.28114  1.0000
  C   C5        1.0  0.76832  0.54657  0.88429  1.0000
  C   C6        1.0  0.45343  0.23167  0.61571  1.0000
  C   C7        1.0  0.23167  0.45343  0.11572  1.0000
  C   C8        1.0  0.54657  0.76833  0.38428  1.0000
  C   C9        1.0  0.69266  0.42278  0.87743  1.0000
  C   C10       1.0  0.57722  0.30733  0.62257  1.0000
  C   C11       1.0  0.30734  0.57722  0.12257  1.0000
  C   C12       1.0  0.42279  0.69266  0.37743  1.0000
  C   C13       1.0  0.64617  0.29039  0.97458  1.0000
  C   C14       1.0  0.70961  0.35383  0.52542  1.0000
  C   C15       1.0  0.35383  0.70961  0.02542  1.0000
  C   C16       1.0  0.29039  0.64617  0.47458  1.0000
  C   C17       1.0  0.67639  0.28294  0.07985  1.0000
  C   C18       1.0  0.71706  0.32361  0.42015  1.0000
  C   C19       1.0  0.32361  0.71706  0.92015  1.0000
  C   C20       1.0  0.28294  0.67639  0.57985  1.0000
  C   C21       1.0  0.75304  0.40506  0.08636  1.0000
  C   C22       1.0  0.59494  0.24696  0.41364  1.0000
  C   C23       1.0  0.24696  0.59494  0.91364  1.0000
  C   C24       1.0  0.40506  0.75304  0.58636  1.0000
  C   C25       1.0  0.79942  0.53694  0.98948  1.0000
  C   C26       1.0  0.46306  0.20058  0.51052  1.0000
  C   C27       1.0  0.20058  0.46306  0.01052  1.0000
  C   C28       1.0  0.53694  0.79942  0.48948  1.0000
  N   N1        1.0  0.85388  0.83121  0.77786  1.0000
  N   N2        1.0  0.16879  0.14611  0.72214  1.0000
  N   N3        1.0  0.14612  0.16879  0.22214  1.0000
  N   N4        1.0  0.83121  0.85388  0.27786  1.0000
  N   N5        1.0  0.88376  0.92022  0.66604  1.0000
  N   N6        1.0  0.07978  0.11624  0.83396  1.0000
  N   N7        1.0  0.11624  0.07978  0.33396  1.0000
  N   N8        1.0  0.92022  0.88376  0.16604  1.0000
  N   N9        1.0  0.85945  0.83170  0.60442  1.0000
  N   N10       1.0  0.16830  0.14055  0.89558  1.0000
  N   N11       1.0  0.14055  0.16829  0.39558  1.0000
  N   N12       1.0  0.83171  0.85945  0.10442  1.0000
  N   N13       1.0  0.81462  0.68406  0.67342  1.0000
  N   N14       1.0  0.31594  0.18538  0.82658  1.0000
  N   N15       1.0  0.18538  0.31594  0.32658  1.0000
  N   N16       1.0  0.68406  0.81462  0.17342  1.0000
  N   N17       1.0  0.57810  0.16224  0.96569  1.0000
  N   N18       1.0  0.83776  0.42190  0.53431  1.0000
  N   N19       1.0  0.42190  0.83777  0.03431  1.0000
  N   N20       1.0  0.16223  0.57810  0.46569  1.0000
