data_image0
_chemical_formula_structural       Ag8H16C16N24O8
_chemical_formula_sum              "Ag8 H16 C16 N24 O8"
_cell_length_a       6.66242
_cell_length_b       9.82217
_cell_length_c       12.5667
_cell_angle_alpha    90.0002
_cell_angle_beta     89.9999
_cell_angle_gamma    90

_space_group_name_H-M_alt    "P 1"
_space_group_IT_number       1

loop_
  _space_group_symop_operation_xyz
  'x, y, z'

loop_
  _atom_site_type_symbol
  _atom_site_label
  _atom_site_symmetry_multiplicity
  _atom_site_fract_x
  _atom_site_fract_y
  _atom_site_fract_z
  _atom_site_occupancy
  Ag  Ag1       1.0  0.57550  0.23784  0.33468  1.0000
  Ag  Ag2       1.0  0.92451  0.76217  0.83468  1.0000
  Ag  Ag3       1.0  0.07550  0.26217  0.66531  1.0000
  Ag  Ag4       1.0  0.42450  0.73783  0.16531  1.0000
  Ag  Ag5       1.0  0.42453  0.76217  0.66532  1.0000
  Ag  Ag6       1.0  0.07546  0.23782  0.16532  1.0000
  Ag  Ag7       1.0  0.92454  0.73785  0.33468  1.0000
  Ag  Ag8       1.0  0.57546  0.26216  0.83468  1.0000
  H   H1        1.0  0.33588  0.76221  0.41184  1.0000
  H   H2        1.0  0.16412  0.23779  0.91185  1.0000
  H   H3        1.0  0.83588  0.73779  0.58816  1.0000
  H   H4        1.0  0.66411  0.26220  0.08815  1.0000
  H   H5        1.0  0.66415  0.23780  0.58816  1.0000
  H   H6        1.0  0.83585  0.76221  0.08815  1.0000
  H   H7        1.0  0.16414  0.26221  0.41184  1.0000
  H   H8        1.0  0.33585  0.73780  0.91184  1.0000
  H   H9        1.0  0.51284  0.87989  0.46116  1.0000
  H   H10       1.0  0.98716  0.12012  0.96115  1.0000
  H   H11       1.0  0.01283  0.62012  0.53885  1.0000
  H   H12       1.0  0.48718  0.37988  0.03885  1.0000
  H   H13       1.0  0.48720  0.12012  0.53886  1.0000
  H   H14       1.0  0.01281  0.87987  0.03886  1.0000
  H   H15       1.0  0.98720  0.37988  0.46114  1.0000
  H   H16       1.0  0.51282  0.62012  0.96114  1.0000
  C   C1        1.0  0.94297  0.02723  0.34502  1.0000
  C   C2        1.0  0.55704  0.97278  0.84503  1.0000
  C   C3        1.0  0.44296  0.47279  0.65498  1.0000
  C   C4        1.0  0.05706  0.52721  0.15497  1.0000
  C   C5        1.0  0.05706  0.97278  0.65499  1.0000
  C   C6        1.0  0.44294  0.02722  0.15500  1.0000
  C   C7        1.0  0.55707  0.52723  0.34501  1.0000
  C   C8        1.0  0.94294  0.47278  0.84501  1.0000
  C   C9        1.0  0.25365  0.96433  0.40777  1.0000
  C   C10       1.0  0.24633  0.03569  0.90777  1.0000
  C   C11       1.0  0.75366  0.53569  0.59223  1.0000
  C   C12       1.0  0.74633  0.46428  0.09222  1.0000
  C   C13       1.0  0.74636  0.03570  0.59224  1.0000
  C   C14       1.0  0.75364  0.96432  0.09224  1.0000
  C   C15       1.0  0.24637  0.46433  0.40775  1.0000
  C   C16       1.0  0.25362  0.53568  0.90776  1.0000
  N   N1        1.0  0.82294  0.11083  0.32266  1.0000
  N   N2        1.0  0.67707  0.88918  0.82266  1.0000
  N   N3        1.0  0.32293  0.38918  0.67734  1.0000
  N   N4        1.0  0.17707  0.61081  0.17733  1.0000
  N   N5        1.0  0.17708  0.88917  0.67735  1.0000
  N   N6        1.0  0.32291  0.11083  0.17736  1.0000
  N   N7        1.0  0.67708  0.61083  0.32265  1.0000
  N   N8        1.0  0.82290  0.38917  0.82265  1.0000
  N   N9        1.0  0.06926  0.92965  0.36334  1.0000
  N   N10       1.0  0.43074  0.07035  0.86334  1.0000
  N   N11       1.0  0.56927  0.57034  0.63666  1.0000
  N   N12       1.0  0.93073  0.42967  0.13665  1.0000
  N   N13       1.0  0.93075  0.07034  0.63667  1.0000
  N   N14       1.0  0.56926  0.92967  0.13667  1.0000
  N   N15       1.0  0.43076  0.42966  0.36333  1.0000
  N   N16       1.0  0.06924  0.57033  0.86333  1.0000
  N   N17       1.0  0.38370  0.86104  0.41886  1.0000
  N   N18       1.0  0.11630  0.13895  0.91886  1.0000
  N   N19       1.0  0.88370  0.63897  0.58114  1.0000
  N   N20       1.0  0.61631  0.36104  0.08113  1.0000
  N   N21       1.0  0.61633  0.13897  0.58115  1.0000
  N   N22       1.0  0.88368  0.86103  0.08115  1.0000
  N   N23       1.0  0.11632  0.36103  0.41884  1.0000
  N   N24       1.0  0.38368  0.63896  0.91884  1.0000
  O   O1        1.0  0.29438  0.08569  0.43413  1.0000
  O   O2        1.0  0.20563  0.91431  0.93412  1.0000
  O   O3        1.0  0.79437  0.41433  0.56588  1.0000
  O   O4        1.0  0.70564  0.58566  0.06588  1.0000
  O   O5        1.0  0.70565  0.91433  0.56590  1.0000
  O   O6        1.0  0.79435  0.08566  0.06591  1.0000
  O   O7        1.0  0.20564  0.58567  0.43410  1.0000
  O   O8        1.0  0.29436  0.41432  0.93410  1.0000
