data_image0
_chemical_formula_structural       Cs2H38C44Br2N6O6
_chemical_formula_sum              "Cs2 H38 C44 Br2 N6 O6"
_cell_length_a       8.05686
_cell_length_b       11.47
_cell_length_c       14.619
_cell_angle_alpha    106.301
_cell_angle_beta     102.777
_cell_angle_gamma    99.2312

_space_group_name_H-M_alt    "P 1"
_space_group_IT_number       1

loop_
  _space_group_symop_operation_xyz
  'x, y, z'

loop_
  _atom_site_type_symbol
  _atom_site_label
  _atom_site_symmetry_multiplicity
  _atom_site_fract_x
  _atom_site_fract_y
  _atom_site_fract_z
  _atom_site_occupancy
  Cs  Cs1       1.0  0.35439  0.49235  0.36943  1.0000
  Cs  Cs2       1.0  0.64561  0.50765  0.63057  1.0000
  H   H1        1.0  0.23886  0.54633  0.79587  1.0000
  H   H2        1.0  0.76114  0.45367  0.20413  1.0000
  H   H3        1.0  0.13391  0.99047  0.42695  1.0000
  H   H4        1.0  0.86608  0.00953  0.57305  1.0000
  H   H5        1.0  0.28273  0.03970  0.36518  1.0000
  H   H6        1.0  0.71727  0.96030  0.63482  1.0000
  H   H7        1.0  0.95615  0.15680  0.08136  1.0000
  H   H8        1.0  0.04385  0.84321  0.91864  1.0000
  H   H9        1.0  0.65822  0.37216  0.88053  1.0000
  H   H10       1.0  0.34178  0.62784  0.11947  1.0000
  H   H11       1.0  0.01725  0.44974  0.64933  1.0000
  H   H12       1.0  0.98275  0.55026  0.35067  1.0000
  H   H13       1.0  0.97651  0.28331  0.59016  1.0000
  H   H14       1.0  0.02348  0.71669  0.40985  1.0000
  H   H15       1.0  0.10132  0.38799  0.54859  1.0000
  H   H16       1.0  0.89868  0.61200  0.45140  1.0000
  H   H17       1.0  0.50786  0.54588  0.91935  1.0000
  H   H18       1.0  0.49215  0.45412  0.08065  1.0000
  H   H19       1.0  0.82720  0.93507  0.18592  1.0000
  H   H20       1.0  0.17281  0.06494  0.81408  1.0000
  H   H21       1.0  0.90863  0.86922  0.27828  1.0000
  H   H22       1.0  0.09136  0.13078  0.72171  1.0000
  H   H23       1.0  0.04180  0.90652  0.20349  1.0000
  H   H24       1.0  0.95821  0.09348  0.79650  1.0000
  H   H25       1.0  0.58425  0.14980  0.18748  1.0000
  H   H26       1.0  0.41575  0.85020  0.81252  1.0000
  H   H27       1.0  0.40477  0.15383  0.30445  1.0000
  H   H28       1.0  0.59522  0.84618  0.69555  1.0000
  H   H29       1.0  0.14037  0.16406  0.96664  1.0000
  H   H30       1.0  0.85963  0.83594  0.03336  1.0000
  H   H31       1.0  0.60754  0.16358  0.64176  1.0000
  H   H32       1.0  0.39246  0.83641  0.35824  1.0000
  H   H33       1.0  0.48392  0.07955  0.69804  1.0000
  H   H34       1.0  0.51607  0.92045  0.30196  1.0000
  H   H35       1.0  0.68772  0.18613  0.77075  1.0000
  H   H36       1.0  0.31227  0.81386  0.22925  1.0000
  H   H37       1.0  0.22163  0.08736  0.57846  1.0000
  H   H38       1.0  0.77837  0.91264  0.42154  1.0000
  C   C1        1.0  0.88412  0.11640  0.36710  1.0000
  C   C2        1.0  0.11587  0.88360  0.63290  1.0000
  C   C3        1.0  0.32595  0.27764  0.66653  1.0000
  C   C4        1.0  0.67405  0.72235  0.33347  1.0000
  C   C5        1.0  0.86166  0.22667  0.34630  1.0000
  C   C6        1.0  0.13834  0.77333  0.65370  1.0000
  C   C7        1.0  0.76357  0.30662  0.38591  1.0000
  C   C8        1.0  0.23642  0.69338  0.61409  1.0000
  C   C9        1.0  0.16602  0.15156  0.19994  1.0000
  C   C10       1.0  0.83398  0.84845  0.80007  1.0000
  C   C11       1.0  0.96958  0.25252  0.28348  1.0000
  C   C12       1.0  0.03041  0.74748  0.71652  1.0000
  C   C13       1.0  0.02199  0.06807  0.31706  1.0000
  C   C14       1.0  0.97801  0.93194  0.68294  1.0000
  C   C15       1.0  0.23728  0.37398  0.68795  1.0000
  C   C16       1.0  0.76272  0.62602  0.31205  1.0000
  C   C17       1.0  0.25691  0.18763  0.48479  1.0000
  C   C18       1.0  0.74309  0.81237  0.51521  1.0000
  C   C19       1.0  0.30581  0.47062  0.77967  1.0000
  C   C20       1.0  0.69419  0.52938  0.22033  1.0000
  C   C21       1.0  0.47754  0.27514  0.73544  1.0000
  C   C22       1.0  0.52246  0.72486  0.26456  1.0000
  C   C23       1.0  0.17914  0.06547  0.39887  1.0000
  C   C24       1.0  0.82086  0.93453  0.60113  1.0000
  C   C25       1.0  0.09352  0.15497  0.10437  1.0000
  C   C26       1.0  0.90648  0.84503  0.89563  1.0000
  C   C27       1.0  0.54082  0.37265  0.82654  1.0000
  C   C28       1.0  0.45918  0.62735  0.17346  1.0000
  C   C29       1.0  0.07315  0.37339  0.61527  1.0000
  C   C30       1.0  0.92685  0.62661  0.38474  1.0000
  C   C31       1.0  0.45630  0.47003  0.84846  1.0000
  C   C32       1.0  0.54370  0.52997  0.15154  1.0000
  C   C33       1.0  0.94484  0.93660  0.24149  1.0000
  C   C34       1.0  0.05516  0.06340  0.75850  1.0000
  C   C35       1.0  0.37240  0.15663  0.07031  1.0000
  C   C36       1.0  0.62761  0.84337  0.92970  1.0000
  C   C37       1.0  0.44631  0.14998  0.16376  1.0000
  C   C38       1.0  0.55369  0.85002  0.83624  1.0000
  C   C39       1.0  0.34322  0.14904  0.22893  1.0000
  C   C40       1.0  0.65678  0.85096  0.77108  1.0000
  C   C41       1.0  0.19657  0.15907  0.03988  1.0000
  C   C42       1.0  0.80344  0.84092  0.96012  1.0000
  C   C43       1.0  0.56928  0.17096  0.71060  1.0000
  C   C44       1.0  0.43072  0.82904  0.28940  1.0000
  Br  Br1       1.0  0.51503  0.16512  0.98293  1.0000
  Br  Br2       1.0  0.48498  0.83487  0.01708  1.0000
  N   N1        1.0  0.06156  0.15947  0.26676  1.0000
  N   N2        1.0  0.93843  0.84053  0.73324  1.0000
  N   N3        1.0  0.25857  0.17686  0.57494  1.0000
  N   N4        1.0  0.74143  0.82314  0.42506  1.0000
  N   N5        1.0  0.68215  0.37445  0.42023  1.0000
  N   N6        1.0  0.31783  0.62554  0.57977  1.0000
  O   O1        1.0  0.98501  0.34180  0.25072  1.0000
  O   O2        1.0  0.01499  0.65820  0.74928  1.0000
  O   O3        1.0  0.31563  0.28794  0.47249  1.0000
  O   O4        1.0  0.68437  0.71205  0.52752  1.0000
  O   O5        1.0  0.81462  0.06325  0.41825  1.0000
  O   O6        1.0  0.18538  0.93675  0.58175  1.0000
