data_image0
_chemical_formula_structural       Ag3H18C45S12N6O9F9
_chemical_formula_sum              "Ag3 H18 C45 S12 N6 O9 F9"
_cell_length_a       11.5917
_cell_length_b       12.3427
_cell_length_c       13.933
_cell_angle_alpha    80.3881
_cell_angle_beta     77.8979
_cell_angle_gamma    64.4046

_space_group_name_H-M_alt    "P 1"
_space_group_IT_number       1

loop_
  _space_group_symop_operation_xyz
  'x, y, z'

loop_
  _atom_site_type_symbol
  _atom_site_label
  _atom_site_symmetry_multiplicity
  _atom_site_fract_x
  _atom_site_fract_y
  _atom_site_fract_z
  _atom_site_occupancy
  Ag  Ag1       1.0  0.32905  0.13687  0.31668  1.0000
  Ag  Ag2       1.0  0.08962  0.14639  0.57752  1.0000
  Ag  Ag3       1.0  0.83229  0.05558  0.55935  1.0000
  H   H1        1.0  0.98856  0.59736  0.20486  1.0000
  H   H2        1.0  0.86261  0.72597  0.05865  1.0000
  H   H3        1.0  0.01525  0.45037  0.79581  1.0000
  H   H4        1.0  0.88873  0.57726  0.65441  1.0000
  H   H5        1.0  0.63028  0.97944  0.77634  1.0000
  H   H6        1.0  0.48517  0.10664  0.64011  1.0000
  H   H7        1.0  0.46325  0.70098  0.66312  1.0000
  H   H8        1.0  0.59568  0.55996  0.80166  1.0000
  H   H9        1.0  0.44787  0.80532  0.08373  1.0000
  H   H10       1.0  0.57895  0.66668  0.21891  1.0000
  H   H11       1.0  0.86372  0.28939  0.06260  1.0000
  H   H12       1.0  0.00495  0.14575  0.19720  1.0000
  H   H13       1.0  0.70116  0.09789  0.21887  1.0000
  H   H14       1.0  0.57257  0.23388  0.07708  1.0000
  H   H15       1.0  0.29717  0.62916  0.20489  1.0000
  H   H16       1.0  0.17959  0.75585  0.05861  1.0000
  H   H17       1.0  0.33420  0.47105  0.80179  1.0000
  H   H18       1.0  0.21121  0.59152  0.65398  1.0000
  C   C1        1.0  0.16371  0.35727  0.17198  1.0000
  C   C2        1.0  0.08175  0.44727  0.11245  1.0000
  C   C3        1.0  0.99847  0.56459  0.13453  1.0000
  C   C4        1.0  0.93251  0.63238  0.05641  1.0000
  C   C5        1.0  0.96509  0.56791  0.97417  1.0000
  C   C6        1.0  0.91712  0.60846  0.88195  1.0000
  C   C7        1.0  0.94650  0.54417  0.80039  1.0000
  C   C8        1.0  0.87785  0.61289  0.72370  1.0000
  C   C9        1.0  0.79604  0.73074  0.74552  1.0000
  C   C10       1.0  0.70982  0.82591  0.68686  1.0000
  C   C11       1.0  0.62992  0.94404  0.70995  1.0000
  C   C12       1.0  0.55396  0.01277  0.63722  1.0000
  C   C13       1.0  0.57623  0.94706  0.55789  1.0000
  C   C14       1.0  0.51650  0.98870  0.47413  1.0000
  C   C15       1.0  0.17391  0.85314  0.37003  1.0000
  C   C16       1.0  0.29692  0.93994  0.70627  1.0000
  C   C17       1.0  0.37921  0.84444  0.76233  1.0000
  C   C18       1.0  0.45877  0.72862  0.73442  1.0000
  C   C19       1.0  0.52877  0.65389  0.80858  1.0000
  C   C20       1.0  0.50294  0.71141  0.89371  1.0000
  C   C21       1.0  0.55571  0.66222  0.98368  1.0000
  C   C22       1.0  0.52356  0.71571  0.07156  1.0000
  C   C23       1.0  0.59408  0.63969  0.14516  1.0000
  C   C24       1.0  0.68138  0.52701  0.11441  1.0000
  C   C25       1.0  0.76981  0.42655  0.16810  1.0000
  C   C26       1.0  0.85591  0.31386  0.13590  1.0000
  C   C27       1.0  0.93029  0.23645  0.20679  1.0000
  C   C28       1.0  0.90061  0.28992  0.29447  1.0000
  C   C29       1.0  0.95270  0.23902  0.38104  1.0000
  C   C30       1.0  0.08091  0.49613  0.43947  1.0000
  C   C31       1.0  0.64932  0.20137  0.39553  1.0000
  C   C32       1.0  0.59289  0.24871  0.31052  1.0000
  C   C33       1.0  0.62763  0.18955  0.22497  1.0000
  C   C34       1.0  0.55882  0.26221  0.15000  1.0000
  C   C35       1.0  0.47186  0.37718  0.17719  1.0000
  C   C36       1.0  0.38939  0.47351  0.11671  1.0000
  C   C37       1.0  0.30831  0.59215  0.13621  1.0000
  C   C38       1.0  0.24439  0.66060  0.05692  1.0000
  C   C39       1.0  0.27552  0.59513  0.97582  1.0000
  C   C40       1.0  0.22990  0.63304  0.88234  1.0000
  C   C41       1.0  0.26471  0.56494  0.80200  1.0000
  C   C42       1.0  0.20065  0.62946  0.72221  1.0000
  C   C43       1.0  0.11708  0.74795  0.74167  1.0000
  C   C44       1.0  0.03578  0.83348  0.67905  1.0000
  C   C45       1.0  0.79086  0.25456  0.85347  1.0000
  S   S1        1.0  0.07763  0.42202  0.99470  1.0000
  S   S2        1.0  0.80533  0.75521  0.86182  1.0000
  S   S3        1.0  0.69257  0.80122  0.57315  1.0000
  S   S4        1.0  0.25359  0.91570  0.25810  1.0000
  S   S5        1.0  0.39125  0.85960  0.88105  1.0000
  S   S6        1.0  0.67417  0.51690  0.99365  1.0000
  S   S7        1.0  0.78130  0.43590  0.28797  1.0000
  S   S8        1.0  0.17432  0.37975  0.53219  1.0000
  S   S9        1.0  0.47352  0.39338  0.29750  1.0000
  S   S10       1.0  0.38554  0.44828  0.99892  1.0000
  S   S11       1.0  0.11760  0.77812  0.85888  1.0000
  S   S12       1.0  0.84445  0.11901  0.78555  1.0000
  N   N1        1.0  0.23445  0.28212  0.22089  1.0000
  N   N2        1.0  0.46562  0.02596  0.40425  1.0000
  N   N3        1.0  0.22897  0.01953  0.65832  1.0000
  N   N4        1.0  0.99218  0.19795  0.45549  1.0000
  N   N5        1.0  0.70184  0.15720  0.46428  1.0000
  N   N6        1.0  0.96758  0.90298  0.62554  1.0000
  O   O1        1.0  0.19348  0.04542  0.27182  1.0000
  O   O2        1.0  0.39032  0.85595  0.26758  1.0000
  O   O3        1.0  0.21568  0.88496  0.17662  1.0000
  O   O4        1.0  0.07179  0.35621  0.60194  1.0000
  O   O5        1.0  0.26213  0.27921  0.47377  1.0000
  O   O6        1.0  0.23533  0.44112  0.57039  1.0000
  O   O7        1.0  0.85811  0.17062  0.68237  1.0000
  O   O8        1.0  0.73720  0.08287  0.81409  1.0000
  O   O9        1.0  0.96569  0.03728  0.81960  1.0000
  F   F1        1.0  0.21462  0.73188  0.37009  1.0000
  F   F2        1.0  0.20122  0.87406  0.45363  1.0000
  F   F3        1.0  0.04261  0.90444  0.37451  1.0000
  F   F4        1.0  0.00790  0.45721  0.40083  1.0000
  F   F5        1.0  0.99841  0.60025  0.48118  1.0000
  F   F6        1.0  0.16030  0.52408  0.36269  1.0000
  F   F7        1.0  0.88029  0.30187  0.83523  1.0000
  F   F8        1.0  0.77011  0.22614  0.95283  1.0000
  F   F9        1.0  0.67774  0.34249  0.82807  1.0000
