data_image0
_chemical_formula_structural       Cu2H32C20N4O12
_chemical_formula_sum              "Cu2 H32 C20 N4 O12"
_cell_length_a       5.41517
_cell_length_b       8.57431
_cell_length_c       13.2714
_cell_angle_alpha    90.0003
_cell_angle_beta     98.4084
_cell_angle_gamma    89.9998

_space_group_name_H-M_alt    "P 1"
_space_group_IT_number       1

loop_
  _space_group_symop_operation_xyz
  'x, y, z'

loop_
  _atom_site_type_symbol
  _atom_site_label
  _atom_site_symmetry_multiplicity
  _atom_site_fract_x
  _atom_site_fract_y
  _atom_site_fract_z
  _atom_site_occupancy
  Cu  Cu1       1.0  0.49999  0.46701  0.25000  1.0000
  Cu  Cu2       1.0  0.50000  0.53299  0.75000  1.0000
  H   H1        1.0  0.02477  0.40348  0.34017  1.0000
  H   H2        1.0  0.97523  0.40348  0.15983  1.0000
  H   H3        1.0  0.97522  0.59652  0.65983  1.0000
  H   H4        1.0  0.02478  0.59652  0.84017  1.0000
  H   H5        1.0  0.28297  0.42759  0.40872  1.0000
  H   H6        1.0  0.71703  0.42759  0.09129  1.0000
  H   H7        1.0  0.71703  0.57241  0.59129  1.0000
  H   H8        1.0  0.28298  0.57241  0.90871  1.0000
  H   H9        1.0  0.58396  0.65027  0.40399  1.0000
  H   H10       1.0  0.41605  0.65026  0.09601  1.0000
  H   H11       1.0  0.41604  0.34973  0.59601  1.0000
  H   H12       1.0  0.58396  0.34973  0.90399  1.0000
  H   H13       1.0  0.85329  0.61388  0.36097  1.0000
  H   H14       1.0  0.14671  0.61388  0.13903  1.0000
  H   H15       1.0  0.14671  0.38612  0.63903  1.0000
  H   H16       1.0  0.85330  0.38612  0.86097  1.0000
  H   H17       1.0  0.66868  0.88950  0.32637  1.0000
  H   H18       1.0  0.33132  0.88950  0.17363  1.0000
  H   H19       1.0  0.33132  0.11050  0.67363  1.0000
  H   H20       1.0  0.66869  0.11050  0.82637  1.0000
  H   H21       1.0  0.76718  0.78360  0.22438  1.0000
  H   H22       1.0  0.23283  0.78360  0.27562  1.0000
  H   H23       1.0  0.23283  0.21639  0.77563  1.0000
  H   H24       1.0  0.76717  0.21640  0.72437  1.0000
  H   H25       1.0  0.36192  0.08426  0.91912  1.0000
  H   H26       1.0  0.63808  0.08426  0.58089  1.0000
  H   H27       1.0  0.63807  0.91575  0.08088  1.0000
  H   H28       1.0  0.36191  0.91574  0.41911  1.0000
  H   H29       1.0  0.90657  0.13488  0.15616  1.0000
  H   H30       1.0  0.09340  0.13488  0.34383  1.0000
  H   H31       1.0  0.09343  0.86513  0.84384  1.0000
  H   H32       1.0  0.90659  0.86513  0.65617  1.0000
  C   C1        1.0  0.63233  0.78470  0.27869  1.0000
  C   C2        1.0  0.36768  0.78470  0.22131  1.0000
  C   C3        1.0  0.36767  0.21530  0.72131  1.0000
  C   C4        1.0  0.63233  0.21530  0.77868  1.0000
  C   C5        1.0  0.31966  0.25460  0.08495  1.0000
  C   C6        1.0  0.68033  0.25460  0.41506  1.0000
  C   C7        1.0  0.68034  0.74540  0.91505  1.0000
  C   C8        1.0  0.31965  0.74540  0.58494  1.0000
  C   C9        1.0  0.15104  0.12452  0.04119  1.0000
  C   C10       1.0  0.84896  0.12452  0.45881  1.0000
  C   C11       1.0  0.84896  0.87548  0.95880  1.0000
  C   C12       1.0  0.15103  0.87548  0.54119  1.0000
  C   C13       1.0  0.20113  0.04730  0.95336  1.0000
  C   C14       1.0  0.79887  0.04731  0.54665  1.0000
  C   C15       1.0  0.79886  0.95270  0.04664  1.0000
  C   C16       1.0  0.20112  0.95270  0.45335  1.0000
  C   C17       1.0  0.94765  0.07588  0.08784  1.0000
  C   C18       1.0  0.05233  0.07588  0.41216  1.0000
  C   C19       1.0  0.05236  0.92413  0.91216  1.0000
  C   C20       1.0  0.94766  0.92412  0.58784  1.0000
  N   N1        1.0  0.66737  0.64014  0.33925  1.0000
  N   N2        1.0  0.33263  0.64014  0.16075  1.0000
  N   N3        1.0  0.33262  0.35986  0.66075  1.0000
  N   N4        1.0  0.66738  0.35986  0.83925  1.0000
  O   O1        1.0  0.28744  0.30113  0.17482  1.0000
  O   O2        1.0  0.71255  0.30114  0.32518  1.0000
  O   O3        1.0  0.71256  0.69887  0.82518  1.0000
  O   O4        1.0  0.28744  0.69886  0.67482  1.0000
  O   O5        1.0  0.47983  0.30880  0.03457  1.0000
  O   O6        1.0  0.52016  0.30878  0.46544  1.0000
  O   O7        1.0  0.52017  0.69121  0.96543  1.0000
  O   O8        1.0  0.47982  0.69121  0.53456  1.0000
  O   O9        1.0  0.15032  0.48383  0.36266  1.0000
  O   O10       1.0  0.84969  0.48384  0.13734  1.0000
  O   O11       1.0  0.84968  0.51616  0.63734  1.0000
  O   O12       1.0  0.15033  0.51616  0.86266  1.0000
