data_image0
_chemical_formula_structural       Zn3H32C16S2N6O16
_chemical_formula_sum              "Zn3 H32 C16 S2 N6 O16"
_cell_length_a       8.41706
_cell_length_b       9.46528
_cell_length_c       9.57889
_cell_angle_alpha    107.897
_cell_angle_beta     115.813
_cell_angle_gamma    90.2667

_space_group_name_H-M_alt    "P 1"
_space_group_IT_number       1

loop_
  _space_group_symop_operation_xyz
  'x, y, z'

loop_
  _atom_site_type_symbol
  _atom_site_label
  _atom_site_symmetry_multiplicity
  _atom_site_fract_x
  _atom_site_fract_y
  _atom_site_fract_z
  _atom_site_occupancy
  Zn  Zn1       1.0  0.19275  0.51529  0.82867  1.0000
  Zn  Zn2       1.0  0.80725  0.48470  0.17132  1.0000
  Zn  Zn3       1.0  0.50000  0.00000  0.50000  1.0000
  H   H1        1.0  0.50833  0.05635  0.18074  1.0000
  H   H2        1.0  0.49167  0.94365  0.81926  1.0000
  H   H3        1.0  0.34243  0.04058  0.97917  1.0000
  H   H4        1.0  0.65757  0.95943  0.02083  1.0000
  H   H5        1.0  0.11212  0.08295  0.07301  1.0000
  H   H6        1.0  0.88788  0.91705  0.92699  1.0000
  H   H7        1.0  0.21440  0.92542  0.11514  1.0000
  H   H8        1.0  0.78560  0.07458  0.88486  1.0000
  H   H9        1.0  0.46020  0.45801  0.34522  1.0000
  H   H10       1.0  0.53980  0.54200  0.65478  1.0000
  H   H11       1.0  0.59082  0.32152  0.40602  1.0000
  H   H12       1.0  0.40917  0.67848  0.59398  1.0000
  H   H13       1.0  0.36275  0.33527  0.50396  1.0000
  H   H14       1.0  0.63725  0.66474  0.49604  1.0000
  H   H15       1.0  0.19123  0.32449  0.30599  1.0000
  H   H16       1.0  0.80877  0.67552  0.69401  1.0000
  H   H17       1.0  0.00299  0.10327  0.25566  1.0000
  H   H18       1.0  0.99701  0.89673  0.74434  1.0000
  H   H19       1.0  0.14893  0.16482  0.47049  1.0000
  H   H20       1.0  0.85107  0.83518  0.52951  1.0000
  H   H21       1.0  0.98641  0.89816  0.35640  1.0000
  H   H22       1.0  0.01358  0.10184  0.64360  1.0000
  H   H23       1.0  0.10010  0.84372  0.23709  1.0000
  H   H24       1.0  0.89990  0.15628  0.76291  1.0000
  H   H25       1.0  0.51434  0.28639  0.12677  1.0000
  H   H26       1.0  0.48566  0.71361  0.87323  1.0000
  H   H27       1.0  0.30113  0.29184  0.07498  1.0000
  H   H28       1.0  0.69887  0.70816  0.92502  1.0000
  H   H29       1.0  0.25821  0.80217  0.48442  1.0000
  H   H30       1.0  0.74179  0.19784  0.51559  1.0000
  H   H31       1.0  0.27038  0.97803  0.59999  1.0000
  H   H32       1.0  0.72962  0.02198  0.40001  1.0000
  C   C1        1.0  0.04056  0.43025  0.01602  1.0000
  C   C2        1.0  0.95946  0.56975  0.98397  1.0000
  C   C3        1.0  0.93888  0.42734  0.47998  1.0000
  C   C4        1.0  0.06112  0.57264  0.52003  1.0000
  C   C5        1.0  0.38227  0.09108  0.11119  1.0000
  C   C6        1.0  0.61773  0.90892  0.88881  1.0000
  C   C7        1.0  0.23643  0.04806  0.14894  1.0000
  C   C8        1.0  0.76357  0.95194  0.85106  1.0000
  C   C9        1.0  0.45630  0.33814  0.32915  1.0000
  C   C10       1.0  0.54369  0.66186  0.67085  1.0000
  C   C11       1.0  0.31722  0.28549  0.37060  1.0000
  C   C12       1.0  0.68278  0.71451  0.62940  1.0000
  C   C13       1.0  0.12733  0.08490  0.35042  1.0000
  C   C14       1.0  0.87267  0.91510  0.64959  1.0000
  C   C15       1.0  0.10962  0.92609  0.35074  1.0000
  C   C16       1.0  0.89038  0.07391  0.64926  1.0000
  S   S1        1.0  0.46366  0.26596  0.81447  1.0000
  S   S2        1.0  0.53634  0.73404  0.18553  1.0000
  N   N1        1.0  0.41387  0.25702  0.15404  1.0000
  N   N2        1.0  0.58613  0.74299  0.84597  1.0000
  N   N3        1.0  0.28230  0.12010  0.32493  1.0000
  N   N4        1.0  0.71770  0.87990  0.67508  1.0000
  N   N5        1.0  0.27019  0.91212  0.49153  1.0000
  N   N6        1.0  0.72981  0.08788  0.50847  1.0000
  O   O1        1.0  0.38528  0.40058  0.77957  1.0000
  O   O2        1.0  0.61473  0.59942  0.22043  1.0000
  O   O3        1.0  0.55540  0.21087  0.71045  1.0000
  O   O4        1.0  0.44461  0.78914  0.28955  1.0000
  O   O5        1.0  0.32344  0.14854  0.78246  1.0000
  O   O6        1.0  0.67657  0.85146  0.21754  1.0000
  O   O7        1.0  0.60017  0.30905  0.99338  1.0000
  O   O8        1.0  0.39984  0.69096  0.00662  1.0000
  O   O9        1.0  0.98757  0.36499  0.08800  1.0000
  O   O10       1.0  0.01243  0.63500  0.91200  1.0000
  O   O11       1.0  0.15716  0.39097  0.96625  1.0000
  O   O12       1.0  0.84284  0.60902  0.03375  1.0000
  O   O13       1.0  0.96301  0.38340  0.59918  1.0000
  O   O14       1.0  0.03699  0.61659  0.40081  1.0000
  O   O15       1.0  0.82323  0.36324  0.33082  1.0000
  O   O16       1.0  0.17675  0.63674  0.66916  1.0000
