data_image0
_chemical_formula_structural       H40Pb4C56S8N8O28
_chemical_formula_sum              "H40 Pb4 C56 S8 N8 O28"
_cell_length_a       8.01086
_cell_length_b       13.51
_cell_length_c       16.0967
_cell_angle_alpha    89.9996
_cell_angle_beta     93.1163
_cell_angle_gamma    89.9989

_space_group_name_H-M_alt    "P 1"
_space_group_IT_number       1

loop_
  _space_group_symop_operation_xyz
  'x, y, z'

loop_
  _atom_site_type_symbol
  _atom_site_label
  _atom_site_symmetry_multiplicity
  _atom_site_fract_x
  _atom_site_fract_y
  _atom_site_fract_z
  _atom_site_occupancy
  H   H1        1.0  0.21638  0.90191  0.59256  1.0000
  H   H2        1.0  0.28362  0.40192  0.40743  1.0000
  H   H3        1.0  0.78372  0.09806  0.40744  1.0000
  H   H4        1.0  0.71629  0.59806  0.59256  1.0000
  H   H5        1.0  0.20202  0.82383  0.66512  1.0000
  H   H6        1.0  0.29800  0.32384  0.33488  1.0000
  H   H7        1.0  0.79808  0.17615  0.33488  1.0000
  H   H8        1.0  0.70191  0.67615  0.66512  1.0000
  H   H9        1.0  0.06133  0.51241  0.34311  1.0000
  H   H10       1.0  0.43866  0.01242  0.65688  1.0000
  H   H11       1.0  0.93869  0.48760  0.65690  1.0000
  H   H12       1.0  0.56136  0.98758  0.34312  1.0000
  H   H13       1.0  0.15291  0.56547  0.20418  1.0000
  H   H14       1.0  0.34709  0.06547  0.79582  1.0000
  H   H15       1.0  0.84707  0.43454  0.79582  1.0000
  H   H16       1.0  0.65293  0.93454  0.20419  1.0000
  H   H17       1.0  0.14882  0.74256  0.16397  1.0000
  H   H18       1.0  0.35117  0.24256  0.83603  1.0000
  H   H19       1.0  0.85117  0.25744  0.83602  1.0000
  H   H20       1.0  0.64882  0.75744  0.16397  1.0000
  H   H21       1.0  0.04805  0.87134  0.26030  1.0000
  H   H22       1.0  0.45194  0.37134  0.73971  1.0000
  H   H23       1.0  0.95195  0.12867  0.73969  1.0000
  H   H24       1.0  0.54803  0.62866  0.26029  1.0000
  H   H25       1.0  0.89769  0.87000  0.04036  1.0000
  H   H26       1.0  0.60231  0.37000  0.95964  1.0000
  H   H27       1.0  0.10230  0.13001  0.95964  1.0000
  H   H28       1.0  0.39769  0.63000  0.04036  1.0000
  H   H29       1.0  0.88505  0.68753  0.07207  1.0000
  H   H30       1.0  0.61495  0.18753  0.92793  1.0000
  H   H31       1.0  0.11496  0.31247  0.92793  1.0000
  H   H32       1.0  0.38505  0.81247  0.07207  1.0000
  H   H33       1.0  0.83369  0.56595  0.96108  1.0000
  H   H34       1.0  0.66632  0.06595  0.03893  1.0000
  H   H35       1.0  0.16633  0.43405  0.03892  1.0000
  H   H36       1.0  0.33368  0.93405  0.96108  1.0000
  H   H37       1.0  0.79094  0.61998  0.81202  1.0000
  H   H38       1.0  0.70906  0.11998  0.18798  1.0000
  H   H39       1.0  0.20906  0.38003  0.18798  1.0000
  H   H40       1.0  0.29095  0.88002  0.81202  1.0000
  Pb  Pb1       1.0  0.86733  0.92729  0.59901  1.0000
  Pb  Pb2       1.0  0.63267  0.42730  0.40097  1.0000
  Pb  Pb3       1.0  0.13271  0.07270  0.40099  1.0000
  Pb  Pb4       1.0  0.36729  0.57267  0.59902  1.0000
  C   C1        1.0  0.00728  0.66383  0.37835  1.0000
  C   C2        1.0  0.49272  0.16384  0.62165  1.0000
  C   C3        1.0  0.99272  0.33618  0.62165  1.0000
  C   C4        1.0  0.50729  0.83616  0.37835  1.0000
  C   C5        1.0  0.05834  0.59020  0.32529  1.0000
  C   C6        1.0  0.44164  0.09020  0.67470  1.0000
  C   C7        1.0  0.94166  0.40981  0.67471  1.0000
  C   C8        1.0  0.55835  0.90980  0.32530  1.0000
  C   C9        1.0  0.10977  0.62075  0.24738  1.0000
  C   C10       1.0  0.39022  0.12075  0.75261  1.0000
  C   C11       1.0  0.89023  0.37925  0.75262  1.0000
  C   C12       1.0  0.60978  0.87925  0.24739  1.0000
  C   C13       1.0  0.10774  0.72084  0.22478  1.0000
  C   C14       1.0  0.39224  0.22083  0.77522  1.0000
  C   C15       1.0  0.89226  0.27917  0.77521  1.0000
  C   C16       1.0  0.60773  0.77917  0.22478  1.0000
  C   C17       1.0  0.05324  0.79379  0.27887  1.0000
  C   C18       1.0  0.44675  0.29379  0.72114  1.0000
  C   C19       1.0  0.94676  0.20622  0.72113  1.0000
  C   C20       1.0  0.55323  0.70622  0.27887  1.0000
  C   C21       1.0  0.00350  0.76418  0.35654  1.0000
  C   C22       1.0  0.49651  0.26419  0.64346  1.0000
  C   C23       1.0  0.99650  0.23583  0.64345  1.0000
  C   C24       1.0  0.50349  0.73581  0.35654  1.0000
  C   C25       1.0  0.94265  0.82605  0.42534  1.0000
  C   C26       1.0  0.55737  0.32605  0.57467  1.0000
  C   C27       1.0  0.05735  0.17396  0.57465  1.0000
  C   C28       1.0  0.44265  0.67395  0.42534  1.0000
  C   C29       1.0  0.84714  0.84351  0.90854  1.0000
  C   C30       1.0  0.65286  0.34351  0.09146  1.0000
  C   C31       1.0  0.15285  0.15649  0.09146  1.0000
  C   C32       1.0  0.34714  0.65649  0.90854  1.0000
  C   C33       1.0  0.87231  0.81564  0.99119  1.0000
  C   C34       1.0  0.62770  0.31563  0.00881  1.0000
  C   C35       1.0  0.12769  0.18437  0.00881  1.0000
  C   C36       1.0  0.37230  0.68436  0.99119  1.0000
  C   C37       1.0  0.86696  0.71390  0.00825  1.0000
  C   C38       1.0  0.63304  0.21390  0.99176  1.0000
  C   C39       1.0  0.13305  0.28610  0.99176  1.0000
  C   C40       1.0  0.36695  0.78610  0.00824  1.0000
  C   C41       1.0  0.83785  0.64407  0.94482  1.0000
  C   C42       1.0  0.66215  0.14406  0.05519  1.0000
  C   C43       1.0  0.16215  0.35594  0.05519  1.0000
  C   C44       1.0  0.33786  0.85593  0.94482  1.0000
  C   C45       1.0  0.81384  0.67376  0.86183  1.0000
  C   C46       1.0  0.68615  0.17375  0.13817  1.0000
  C   C47       1.0  0.18615  0.32625  0.13817  1.0000
  C   C48       1.0  0.31385  0.82624  0.86183  1.0000
  C   C49       1.0  0.81886  0.77470  0.84435  1.0000
  C   C50       1.0  0.68115  0.27469  0.15565  1.0000
  C   C51       1.0  0.18114  0.22531  0.15565  1.0000
  C   C52       1.0  0.31886  0.72530  0.84435  1.0000
  C   C53       1.0  0.80421  0.82519  0.76245  1.0000
  C   C54       1.0  0.69579  0.32519  0.23754  1.0000
  C   C55       1.0  0.19581  0.17481  0.23755  1.0000
  C   C56       1.0  0.30419  0.67480  0.76245  1.0000
  S   S1        1.0  0.93412  0.65573  0.48048  1.0000
  S   S2        1.0  0.56589  0.15573  0.51952  1.0000
  S   S3        1.0  0.06585  0.34429  0.51951  1.0000
  S   S4        1.0  0.43414  0.84426  0.48049  1.0000
  S   S5        1.0  0.84491  0.96373  0.86238  1.0000
  S   S6        1.0  0.65509  0.46374  0.13761  1.0000
  S   S7        1.0  0.15510  0.03627  0.13761  1.0000
  S   S8        1.0  0.34490  0.53626  0.86238  1.0000
  N   N1        1.0  0.90632  0.77322  0.49375  1.0000
  N   N2        1.0  0.59371  0.27322  0.50625  1.0000
  N   N3        1.0  0.09363  0.22680  0.50623  1.0000
  N   N4        1.0  0.40635  0.72678  0.49377  1.0000
  N   N5        1.0  0.81448  0.92414  0.76567  1.0000
  N   N6        1.0  0.68554  0.42414  0.23432  1.0000
  N   N7        1.0  0.18554  0.07586  0.23432  1.0000
  N   N8        1.0  0.31446  0.57586  0.76568  1.0000
  O   O1        1.0  0.77408  0.60295  0.47930  1.0000
  O   O2        1.0  0.72592  0.10294  0.52070  1.0000
  O   O3        1.0  0.22590  0.39705  0.52067  1.0000
  O   O4        1.0  0.27411  0.89705  0.47933  1.0000
  O   O5        1.0  0.05575  0.61570  0.54192  1.0000
  O   O6        1.0  0.44426  0.11572  0.45808  1.0000
  O   O7        1.0  0.94422  0.38433  0.45809  1.0000
  O   O8        1.0  0.55578  0.88430  0.54192  1.0000
  O   O9        1.0  0.92483  0.91847  0.42288  1.0000
  O   O10       1.0  0.57520  0.41847  0.57713  1.0000
  O   O11       1.0  0.07521  0.08155  0.57711  1.0000
  O   O12       1.0  0.42478  0.58153  0.42288  1.0000
  O   O13       1.0  0.00722  0.01168  0.87219  1.0000
  O   O14       1.0  0.49278  0.51168  0.12782  1.0000
  O   O15       1.0  0.99277  0.98833  0.12782  1.0000
  O   O16       1.0  0.50722  0.48832  0.87218  1.0000
  O   O17       1.0  0.70143  0.02024  0.88626  1.0000
  O   O18       1.0  0.79856  0.52024  0.11373  1.0000
  O   O19       1.0  0.29856  0.97976  0.11373  1.0000
  O   O20       1.0  0.20143  0.47976  0.88627  1.0000
  O   O21       1.0  0.79031  0.78027  0.69250  1.0000
  O   O22       1.0  0.70968  0.28027  0.30750  1.0000
  O   O23       1.0  0.20972  0.21972  0.30751  1.0000
  O   O24       1.0  0.29027  0.71971  0.69249  1.0000
  O   O25       1.0  0.16167  0.89054  0.64499  1.0000
  O   O26       1.0  0.33833  0.39054  0.35500  1.0000
  O   O27       1.0  0.83844  0.10945  0.35502  1.0000
  O   O28       1.0  0.66157  0.60944  0.64499  1.0000
