data_image0
_chemical_formula_structural       Cu4H48C48S4N24O20
_chemical_formula_sum              "Cu4 H48 C48 S4 N24 O20"
_cell_length_a       7.28002
_cell_length_b       10.9174
_cell_length_c       17.598
_cell_angle_alpha    90
_cell_angle_beta     90
_cell_angle_gamma    90.4383

_space_group_name_H-M_alt    "P 1"
_space_group_IT_number       1

loop_
  _space_group_symop_operation_xyz
  'x, y, z'

loop_
  _atom_site_type_symbol
  _atom_site_label
  _atom_site_symmetry_multiplicity
  _atom_site_fract_x
  _atom_site_fract_y
  _atom_site_fract_z
  _atom_site_occupancy
  Cu  Cu1       1.0  0.97615  0.73112  0.13216  1.0000
  Cu  Cu2       1.0  0.52384  0.26887  0.63216  1.0000
  Cu  Cu3       1.0  0.02385  0.26888  0.86784  1.0000
  Cu  Cu4       1.0  0.47615  0.73112  0.36784  1.0000
  H   H1        1.0  0.15110  0.77428  0.98596  1.0000
  H   H2        1.0  0.34890  0.22572  0.48596  1.0000
  H   H3        1.0  0.84890  0.22572  0.01404  1.0000
  H   H4        1.0  0.65109  0.77427  0.51404  1.0000
  H   H5        1.0  0.30875  0.95145  0.91834  1.0000
  H   H6        1.0  0.19125  0.04855  0.41834  1.0000
  H   H7        1.0  0.69124  0.04855  0.08166  1.0000
  H   H8        1.0  0.80875  0.95144  0.58166  1.0000
  H   H9        1.0  0.34748  0.14809  0.98684  1.0000
  H   H10       1.0  0.15252  0.85191  0.48684  1.0000
  H   H11       1.0  0.65252  0.85191  0.01315  1.0000
  H   H12       1.0  0.84748  0.14808  0.51316  1.0000
  H   H13       1.0  0.07411  0.97802  0.18037  1.0000
  H   H14       1.0  0.42588  0.02198  0.68038  1.0000
  H   H15       1.0  0.92589  0.02198  0.81962  1.0000
  H   H16       1.0  0.57411  0.97802  0.31963  1.0000
  H   H17       1.0  0.09403  0.25913  0.35614  1.0000
  H   H18       1.0  0.40597  0.74087  0.85614  1.0000
  H   H19       1.0  0.90597  0.74086  0.64385  1.0000
  H   H20       1.0  0.59404  0.25913  0.14386  1.0000
  H   H21       1.0  0.10472  0.38031  0.47691  1.0000
  H   H22       1.0  0.39528  0.61969  0.97692  1.0000
  H   H23       1.0  0.89528  0.61969  0.52308  1.0000
  H   H24       1.0  0.60473  0.38031  0.02309  1.0000
  H   H25       1.0  0.26648  0.58409  0.47728  1.0000
  H   H26       1.0  0.23353  0.41591  0.97728  1.0000
  H   H27       1.0  0.73352  0.41591  0.52272  1.0000
  H   H28       1.0  0.76647  0.58409  0.02273  1.0000
  H   H29       1.0  0.39056  0.55837  0.24826  1.0000
  H   H30       1.0  0.10943  0.44164  0.74827  1.0000
  H   H31       1.0  0.60944  0.44163  0.75174  1.0000
  H   H32       1.0  0.89057  0.55837  0.25174  1.0000
  H   H33       1.0  0.36300  0.15798  0.30046  1.0000
  H   H34       1.0  0.13700  0.84202  0.80047  1.0000
  H   H35       1.0  0.63700  0.84202  0.69953  1.0000
  H   H36       1.0  0.86299  0.15798  0.19953  1.0000
  H   H37       1.0  0.33249  0.04699  0.23709  1.0000
  H   H38       1.0  0.16751  0.95301  0.73710  1.0000
  H   H39       1.0  0.66751  0.95301  0.76290  1.0000
  H   H40       1.0  0.83250  0.04699  0.26291  1.0000
  H   H41       1.0  0.31112  0.67327  0.11019  1.0000
  H   H42       1.0  0.18888  0.32673  0.61020  1.0000
  H   H43       1.0  0.68888  0.32674  0.88981  1.0000
  H   H44       1.0  0.81112  0.67327  0.38981  1.0000
  H   H45       1.0  0.19683  0.54453  0.12280  1.0000
  H   H46       1.0  0.30317  0.45548  0.62280  1.0000
  H   H47       1.0  0.80317  0.45548  0.87720  1.0000
  H   H48       1.0  0.69683  0.54452  0.37720  1.0000
  C   C1        1.0  0.17285  0.86274  0.01320  1.0000
  C   C2        1.0  0.32714  0.13726  0.51320  1.0000
  C   C3        1.0  0.82715  0.13726  0.98680  1.0000
  C   C4        1.0  0.67285  0.86274  0.48680  1.0000
  C   C5        1.0  0.25958  0.95980  0.97655  1.0000
  C   C6        1.0  0.24042  0.04020  0.47656  1.0000
  C   C7        1.0  0.74042  0.04020  0.02344  1.0000
  C   C8        1.0  0.75958  0.95980  0.52345  1.0000
  C   C9        1.0  0.28076  0.07049  0.01484  1.0000
  C   C10       1.0  0.21924  0.92951  0.51484  1.0000
  C   C11       1.0  0.71924  0.92951  0.98516  1.0000
  C   C12       1.0  0.78076  0.07049  0.48516  1.0000
  C   C13       1.0  0.21484  0.07970  0.08936  1.0000
  C   C14       1.0  0.28516  0.92031  0.58937  1.0000
  C   C15       1.0  0.78517  0.92031  0.91063  1.0000
  C   C16       1.0  0.71483  0.07969  0.41064  1.0000
  C   C17       1.0  0.12981  0.97741  0.12277  1.0000
  C   C18       1.0  0.37019  0.02259  0.62277  1.0000
  C   C19       1.0  0.87019  0.02259  0.87723  1.0000
  C   C20       1.0  0.62981  0.97741  0.37724  1.0000
  C   C21       1.0  0.22461  0.19667  0.12895  1.0000
  C   C22       1.0  0.27539  0.80333  0.62895  1.0000
  C   C23       1.0  0.77539  0.80333  0.87105  1.0000
  C   C24       1.0  0.72461  0.19667  0.37105  1.0000
  C   C25       1.0  0.23562  0.33718  0.21848  1.0000
  C   C26       1.0  0.26437  0.66282  0.71848  1.0000
  C   C27       1.0  0.76438  0.66282  0.78152  1.0000
  C   C28       1.0  0.73562  0.33718  0.28152  1.0000
  C   C29       1.0  0.24247  0.39801  0.29207  1.0000
  C   C30       1.0  0.25754  0.60199  0.79207  1.0000
  C   C31       1.0  0.75753  0.60199  0.70793  1.0000
  C   C32       1.0  0.74246  0.39801  0.20793  1.0000
  C   C33       1.0  0.16183  0.34845  0.35787  1.0000
  C   C34       1.0  0.33817  0.65155  0.85788  1.0000
  C   C35       1.0  0.83817  0.65155  0.64212  1.0000
  C   C36       1.0  0.66183  0.34845  0.14213  1.0000
  C   C37       1.0  0.16714  0.41543  0.42504  1.0000
  C   C38       1.0  0.33286  0.58457  0.92504  1.0000
  C   C39       1.0  0.83285  0.58456  0.57496  1.0000
  C   C40       1.0  0.66714  0.41543  0.07496  1.0000
  C   C41       1.0  0.25528  0.52906  0.42565  1.0000
  C   C42       1.0  0.24473  0.47094  0.92565  1.0000
  C   C43       1.0  0.74472  0.47094  0.57435  1.0000
  C   C44       1.0  0.75528  0.52906  0.07435  1.0000
  C   C45       1.0  0.32526  0.51403  0.29687  1.0000
  C   C46       1.0  0.17474  0.48597  0.79688  1.0000
  C   C47       1.0  0.67475  0.48597  0.70312  1.0000
  C   C48       1.0  0.82526  0.51403  0.20313  1.0000
  S   S1        1.0  0.57756  0.80961  0.17759  1.0000
  S   S2        1.0  0.92243  0.19039  0.67759  1.0000
  S   S3        1.0  0.42244  0.19039  0.82241  1.0000
  S   S4        1.0  0.07756  0.80961  0.32241  1.0000
  N   N1        1.0  0.10882  0.87235  0.08478  1.0000
  N   N2        1.0  0.39118  0.12765  0.58478  1.0000
  N   N3        1.0  0.89119  0.12765  0.91522  1.0000
  N   N4        1.0  0.60882  0.87235  0.41522  1.0000
  N   N5        1.0  0.20486  0.30629  0.09595  1.0000
  N   N6        1.0  0.29514  0.69371  0.59596  1.0000
  N   N7        1.0  0.79514  0.69372  0.90404  1.0000
  N   N8        1.0  0.70486  0.30628  0.40405  1.0000
  N   N9        1.0  0.21307  0.39277  0.15142  1.0000
  N   N10       1.0  0.28693  0.60723  0.65142  1.0000
  N   N11       1.0  0.78694  0.60723  0.84858  1.0000
  N   N12       1.0  0.71306  0.39277  0.34858  1.0000
  N   N13       1.0  0.24674  0.21332  0.20601  1.0000
  N   N14       1.0  0.25326  0.78668  0.70602  1.0000
  N   N15       1.0  0.75326  0.78668  0.79398  1.0000
  N   N16       1.0  0.74674  0.21332  0.29399  1.0000
  N   N17       1.0  0.27198  0.12322  0.26163  1.0000
  N   N18       1.0  0.22802  0.87678  0.76164  1.0000
  N   N19       1.0  0.72802  0.87678  0.73836  1.0000
  N   N20       1.0  0.77198  0.12321  0.23837  1.0000
  N   N21       1.0  0.33212  0.57605  0.36232  1.0000
  N   N22       1.0  0.16788  0.42395  0.86232  1.0000
  N   N23       1.0  0.66788  0.42395  0.63768  1.0000
  N   N24       1.0  0.83212  0.57605  0.13768  1.0000
  O   O1        1.0  0.77449  0.84500  0.15600  1.0000
  O   O2        1.0  0.72550  0.15500  0.65601  1.0000
  O   O3        1.0  0.22551  0.15500  0.84400  1.0000
  O   O4        1.0  0.27450  0.84500  0.34399  1.0000
  O   O5        1.0  0.48379  0.92588  0.19370  1.0000
  O   O6        1.0  0.01620  0.07411  0.69371  1.0000
  O   O7        1.0  0.51620  0.07412  0.80630  1.0000
  O   O8        1.0  0.98380  0.92588  0.30630  1.0000
  O   O9        1.0  0.49634  0.74612  0.11001  1.0000
  O   O10       1.0  0.00367  0.25387  0.61001  1.0000
  O   O11       1.0  0.50366  0.25388  0.88999  1.0000
  O   O12       1.0  0.99634  0.74612  0.38999  1.0000
  O   O13       1.0  0.57960  0.72602  0.24388  1.0000
  O   O14       1.0  0.92040  0.27397  0.74388  1.0000
  O   O15       1.0  0.42040  0.27398  0.75612  1.0000
  O   O16       1.0  0.07960  0.72603  0.25612  1.0000
  O   O17       1.0  0.19078  0.62822  0.09918  1.0000
  O   O18       1.0  0.30922  0.37178  0.59918  1.0000
  O   O19       1.0  0.80922  0.37178  0.90082  1.0000
  O   O20       1.0  0.69078  0.62822  0.40082  1.0000
