data_image0
_chemical_formula_structural       Er2H34C36N8O24
_chemical_formula_sum              "Er2 H34 C36 N8 O24"
_cell_length_a       7.46666
_cell_length_b       12.09
_cell_length_c       13.845
_cell_angle_alpha    71.4946
_cell_angle_beta     82.6694
_cell_angle_gamma    78.7758

_space_group_name_H-M_alt    "P 1"
_space_group_IT_number       1

loop_
  _space_group_symop_operation_xyz
  'x, y, z'

loop_
  _atom_site_type_symbol
  _atom_site_label
  _atom_site_symmetry_multiplicity
  _atom_site_fract_x
  _atom_site_fract_y
  _atom_site_fract_z
  _atom_site_occupancy
  Er  Er1       1.0  0.99448  0.06782  0.16941  1.0000
  Er  Er2       1.0  0.00551  0.93219  0.83059  1.0000
  H   H1        1.0  0.80557  0.32459  0.21548  1.0000
  H   H2        1.0  0.19442  0.67542  0.78453  1.0000
  H   H3        1.0  0.26997  0.60184  0.46189  1.0000
  H   H4        1.0  0.73004  0.39816  0.53811  1.0000
  H   H5        1.0  0.34427  0.10948  0.37152  1.0000
  H   H6        1.0  0.65573  0.89053  0.62847  1.0000
  H   H7        1.0  0.80473  0.11892  0.98418  1.0000
  H   H8        1.0  0.19528  0.88108  0.01581  1.0000
  H   H9        1.0  0.78896  0.98904  0.04388  1.0000
  H   H10       1.0  0.21105  0.01096  0.95612  1.0000
  H   H11       1.0  0.90282  0.53902  0.05881  1.0000
  H   H12       1.0  0.09719  0.46097  0.94120  1.0000
  H   H13       1.0  0.80615  0.68574  0.36662  1.0000
  H   H14       1.0  0.19385  0.31426  0.63338  1.0000
  H   H15       1.0  0.70677  0.27336  0.40124  1.0000
  H   H16       1.0  0.29323  0.72665  0.59876  1.0000
  H   H17       1.0  0.14632  0.38662  0.49620  1.0000
  H   H18       1.0  0.85369  0.61339  0.50380  1.0000
  H   H19       1.0  0.39002  0.44856  0.12980  1.0000
  H   H20       1.0  0.60997  0.55144  0.87019  1.0000
  H   H21       1.0  0.39410  0.75817  0.29948  1.0000
  H   H22       1.0  0.60592  0.24182  0.70051  1.0000
  H   H23       1.0  0.08083  0.03543  0.38132  1.0000
  H   H24       1.0  0.91917  0.96456  0.61867  1.0000
  H   H25       1.0  0.97457  0.92873  0.39783  1.0000
  H   H26       1.0  0.02542  0.07126  0.60217  1.0000
  H   H27       1.0  0.72187  0.10986  0.30677  1.0000
  H   H28       1.0  0.27811  0.89014  0.69323  1.0000
  H   H29       1.0  0.60434  0.18154  0.20729  1.0000
  H   H30       1.0  0.39564  0.81847  0.79271  1.0000
  H   H31       1.0  0.37926  0.06203  0.17117  1.0000
  H   H32       1.0  0.62074  0.93798  0.82883  1.0000
  H   H33       1.0  0.37109  0.93902  0.15405  1.0000
  H   H34       1.0  0.62891  0.06097  0.84596  1.0000
  C   C1        1.0  0.92730  0.84001  0.20114  1.0000
  C   C2        1.0  0.07270  0.15999  0.79886  1.0000
  C   C3        1.0  0.88515  0.72218  0.20708  1.0000
  C   C4        1.0  0.11486  0.27782  0.79292  1.0000
  C   C5        1.0  0.91061  0.68228  0.11938  1.0000
  C   C6        1.0  0.08940  0.31772  0.88062  1.0000
  C   C7        1.0  0.94451  0.76572  0.01608  1.0000
  C   C8        1.0  0.05551  0.23428  0.98393  1.0000
  C   C9        1.0  0.88682  0.56840  0.12655  1.0000
  C   C10       1.0  0.11319  0.43159  0.87346  1.0000
  C   C11       1.0  0.83382  0.49677  0.22258  1.0000
  C   C12       1.0  0.16619  0.50323  0.77742  1.0000
  C   C13       1.0  0.80329  0.53589  0.31091  1.0000
  C   C14       1.0  0.19672  0.46411  0.68909  1.0000
  C   C15       1.0  0.82858  0.65038  0.30220  1.0000
  C   C16       1.0  0.17143  0.34963  0.69780  1.0000
  C   C17       1.0  0.74326  0.35857  0.35696  1.0000
  C   C18       1.0  0.25673  0.64144  0.64304  1.0000
  C   C19       1.0  0.26968  0.23817  0.21557  1.0000
  C   C20       1.0  0.73030  0.76183  0.78442  1.0000
  C   C21       1.0  0.28036  0.32936  0.26690  1.0000
  C   C22       1.0  0.71962  0.67064  0.73311  1.0000
  C   C23       1.0  0.21243  0.31221  0.37103  1.0000
  C   C24       1.0  0.78756  0.68779  0.62897  1.0000
  C   C25       1.0  0.15926  0.20189  0.44016  1.0000
  C   C26       1.0  0.84073  0.79811  0.55984  1.0000
  C   C27       1.0  0.20241  0.40047  0.41780  1.0000
  C   C28       1.0  0.79759  0.59953  0.58220  1.0000
  C   C29       1.0  0.26923  0.50230  0.36105  1.0000
  C   C30       1.0  0.73076  0.49771  0.63895  1.0000
  C   C31       1.0  0.33730  0.52242  0.25699  1.0000
  C   C32       1.0  0.66269  0.47758  0.74301  1.0000
  C   C33       1.0  0.34194  0.43455  0.20983  1.0000
  C   C34       1.0  0.65806  0.56545  0.79017  1.0000
  C   C35       1.0  0.36278  0.67374  0.30024  1.0000
  C   C36       1.0  0.63723  0.32626  0.69976  1.0000
  N   N1        1.0  0.74713  0.44630  0.39438  1.0000
  N   N2        1.0  0.25287  0.55371  0.60563  1.0000
  N   N3        1.0  0.79303  0.38400  0.25538  1.0000
  N   N4        1.0  0.20697  0.61600  0.74463  1.0000
  N   N5        1.0  0.28740  0.60035  0.38627  1.0000
  N   N6        1.0  0.71261  0.39965  0.61373  1.0000
  N   N7        1.0  0.39307  0.63163  0.22080  1.0000
  N   N8        1.0  0.60693  0.36837  0.77920  1.0000
  O   O1        1.0  0.82509  0.90361  0.25083  1.0000
  O   O2        1.0  0.17489  0.09640  0.74917  1.0000
  O   O3        1.0  0.06891  0.87698  0.14580  1.0000
  O   O4        1.0  0.93109  0.12302  0.85419  1.0000
  O   O5        1.0  0.84707  0.87022  0.99206  1.0000
  O   O6        1.0  0.15294  0.12978  0.00795  1.0000
  O   O7        1.0  0.06366  0.73483  0.95145  1.0000
  O   O8        1.0  0.93636  0.26516  0.04856  1.0000
  O   O9        1.0  0.11728  0.20308  0.22429  1.0000
  O   O10       1.0  0.88271  0.79691  0.77573  1.0000
  O   O11       1.0  0.41426  0.19776  0.16900  1.0000
  O   O12       1.0  0.58573  0.80224  0.83100  1.0000
  O   O13       1.0  0.25142  0.09584  0.42884  1.0000
  O   O14       1.0  0.74857  0.90417  0.57115  1.0000
  O   O15       1.0  0.04293  0.19759  0.51212  1.0000
  O   O16       1.0  0.95709  0.80241  0.48787  1.0000
  O   O17       1.0  0.31634  0.99087  0.19491  1.0000
  O   O18       1.0  0.68364  0.00914  0.80509  1.0000
  O   O19       1.0  0.99089  0.00902  0.35171  1.0000
  O   O20       1.0  0.00912  0.99097  0.64828  1.0000
  O   O21       1.0  0.72814  0.16487  0.23798  1.0000
  O   O22       1.0  0.27185  0.83513  0.76202  1.0000
  O   O23       1.0  0.77835  0.06794  0.05393  1.0000
  O   O24       1.0  0.22164  0.93206  0.94607  1.0000
