data_image0
_chemical_formula_structural       Nd2Cu2H22C30N4O24
_chemical_formula_sum              "Nd2 Cu2 H22 C30 N4 O24"
_cell_length_a       8.15887
_cell_length_b       9.65786
_cell_length_c       14.3534
_cell_angle_alpha    79.724
_cell_angle_beta     71.7642
_cell_angle_gamma    65.2618

_space_group_name_H-M_alt    "P 1"
_space_group_IT_number       1

loop_
  _space_group_symop_operation_xyz
  'x, y, z'

loop_
  _atom_site_type_symbol
  _atom_site_label
  _atom_site_symmetry_multiplicity
  _atom_site_fract_x
  _atom_site_fract_y
  _atom_site_fract_z
  _atom_site_occupancy
  Nd  Nd1       1.0  0.89086  0.81860  0.37572  1.0000
  Nd  Nd2       1.0  0.10914  0.18140  0.62428  1.0000
  Cu  Cu1       1.0  0.56773  0.61909  0.05610  1.0000
  Cu  Cu2       1.0  0.43226  0.38092  0.94390  1.0000
  H   H1        1.0  0.60009  0.71135  0.47108  1.0000
  H   H2        1.0  0.39990  0.28865  0.52893  1.0000
  H   H3        1.0  0.44256  0.88130  0.46778  1.0000
  H   H4        1.0  0.55744  0.11870  0.53222  1.0000
  H   H5        1.0  0.30682  0.68414  0.84392  1.0000
  H   H6        1.0  0.69316  0.31586  0.15608  1.0000
  H   H7        1.0  0.02102  0.93137  0.88165  1.0000
  H   H8        1.0  0.97896  0.06862  0.11835  1.0000
  H   H9        1.0  0.49226  0.09378  0.07368  1.0000
  H   H10       1.0  0.50774  0.90622  0.92631  1.0000
  H   H11       1.0  0.91408  0.48568  0.25351  1.0000
  H   H12       1.0  0.08594  0.51431  0.74649  1.0000
  H   H13       1.0  0.32200  0.02383  0.24350  1.0000
  H   H14       1.0  0.67801  0.97618  0.75649  1.0000
  H   H15       1.0  0.03003  0.23138  0.33398  1.0000
  H   H16       1.0  0.97000  0.76862  0.66602  1.0000
  H   H17       1.0  0.78442  0.94296  0.04182  1.0000
  H   H18       1.0  0.21556  0.05704  0.95818  1.0000
  H   H19       1.0  0.57926  0.06418  0.29351  1.0000
  H   H20       1.0  0.42074  0.93582  0.70649  1.0000
  H   H21       1.0  0.55265  0.13388  0.39118  1.0000
  H   H22       1.0  0.44735  0.86613  0.60882  1.0000
  C   C1        1.0  0.04677  0.53012  0.52707  1.0000
  C   C2        1.0  0.95324  0.46986  0.47294  1.0000
  C   C3        1.0  0.08989  0.57597  0.06263  1.0000
  C   C4        1.0  0.91010  0.42403  0.93737  1.0000
  C   C5        1.0  0.14073  0.42788  0.11969  1.0000
  C   C6        1.0  0.85928  0.57211  0.88031  1.0000
  C   C7        1.0  0.28452  0.62695  0.21752  1.0000
  C   C8        1.0  0.71549  0.37305  0.78247  1.0000
  C   C9        1.0  0.22586  0.78879  0.16700  1.0000
  C   C10       1.0  0.77416  0.21120  0.83299  1.0000
  C   C11       1.0  0.19639  0.69777  0.91235  1.0000
  C   C12       1.0  0.80361  0.30222  0.08765  1.0000
  C   C13       1.0  0.04028  0.83315  0.93429  1.0000
  C   C14       1.0  0.95973  0.16684  0.06570  1.0000
  C   C15       1.0  0.36404  0.17652  0.11680  1.0000
  C   C16       1.0  0.63597  0.82348  0.88320  1.0000
  C   C17       1.0  0.04056  0.39780  0.21395  1.0000
  C   C18       1.0  0.95945  0.60221  0.78605  1.0000
  C   C19       1.0  0.27025  0.13932  0.21055  1.0000
  C   C20       1.0  0.72975  0.86068  0.78944  1.0000
  C   C21       1.0  0.10663  0.25281  0.25965  1.0000
  C   C22       1.0  0.89337  0.74719  0.74035  1.0000
  C   C23       1.0  0.92827  0.70924  0.08921  1.0000
  C   C24       1.0  0.07173  0.29077  0.91079  1.0000
  C   C25       1.0  0.76592  0.72836  0.18051  1.0000
  C   C26       1.0  0.23408  0.27163  0.81949  1.0000
  C   C27       1.0  0.90767  0.83775  0.02336  1.0000
  C   C28       1.0  0.09233  0.16227  0.97665  1.0000
  C   C29       1.0  0.10075  0.97213  0.46517  1.0000
  C   C30       1.0  0.89924  0.02788  0.53485  1.0000
  N   N1        1.0  0.21880  0.57562  0.97527  1.0000
  N   N2        1.0  0.78120  0.42438  0.02474  1.0000
  N   N3        1.0  0.30167  0.31635  0.07329  1.0000
  N   N4        1.0  0.69834  0.68366  0.92671  1.0000
  O   O1        1.0  0.01669  0.67054  0.51410  1.0000
  O   O2        1.0  0.98331  0.32946  0.48590  1.0000
  O   O3        1.0  0.33182  0.80651  0.08232  1.0000
  O   O4        1.0  0.66818  0.19349  0.91767  1.0000
  O   O5        1.0  0.42882  0.52356  0.16824  1.0000
  O   O6        1.0  0.57118  0.47644  0.83177  1.0000
  O   O7        1.0  0.18392  0.60604  0.30036  1.0000
  O   O8        1.0  0.81607  0.39396  0.69965  1.0000
  O   O9        1.0  0.56508  0.81785  0.48412  1.0000
  O   O10       1.0  0.43491  0.18215  0.51589  1.0000
  O   O11       1.0  0.64803  0.07815  0.33318  1.0000
  O   O12       1.0  0.35197  0.92186  0.66681  1.0000
  O   O13       1.0  0.76553  0.78862  0.25251  1.0000
  O   O14       1.0  0.23448  0.21138  0.74749  1.0000
  O   O15       1.0  0.07639  0.88971  0.21069  1.0000
  O   O16       1.0  0.92361  0.11029  0.78931  1.0000
  O   O17       1.0  0.63648  0.69413  0.17590  1.0000
  O   O18       1.0  0.36353  0.30586  0.82410  1.0000
  O   O19       1.0  0.14556  0.43330  0.58050  1.0000
  O   O20       1.0  0.85444  0.56670  0.41950  1.0000
  O   O21       1.0  0.13166  0.90476  0.39069  1.0000
  O   O22       1.0  0.86835  0.09524  0.60931  1.0000
  O   O23       1.0  0.22026  0.00104  0.48986  1.0000
  O   O24       1.0  0.77971  0.99897  0.51015  1.0000
