data_image0
_chemical_formula_structural       Zn2H48C68N4O12
_chemical_formula_sum              "Zn2 H48 C68 N4 O12"
_cell_length_a       8.94406
_cell_length_b       9.86788
_cell_length_c       17.122
_cell_angle_alpha    80.0129
_cell_angle_beta     84.0909
_cell_angle_gamma    73.8922

_space_group_name_H-M_alt    "P 1"
_space_group_IT_number       1

loop_
  _space_group_symop_operation_xyz
  'x, y, z'

loop_
  _atom_site_type_symbol
  _atom_site_label
  _atom_site_symmetry_multiplicity
  _atom_site_fract_x
  _atom_site_fract_y
  _atom_site_fract_z
  _atom_site_occupancy
  Zn  Zn1       1.0  0.07257  0.14225  0.07385  1.0000
  Zn  Zn2       1.0  0.26014  0.28448  0.23136  1.0000
  H   H1        1.0  0.50774  0.99726  0.64651  1.0000
  H   H2        1.0  0.66663  0.16603  0.59070  1.0000
  H   H3        1.0  0.61815  0.39634  0.64260  1.0000
  H   H4        1.0  0.41087  0.45951  0.74683  1.0000
  H   H5        1.0  0.29607  0.93646  0.73654  1.0000
  H   H6        1.0  0.08295  0.00019  0.83774  1.0000
  H   H7        1.0  0.85360  0.16210  0.84270  1.0000
  H   H8        1.0  0.76308  0.29066  0.90494  1.0000
  H   H9        1.0  0.93478  0.42581  0.75014  1.0000
  H   H10       1.0  0.68066  0.59894  0.72639  1.0000
  H   H11       1.0  0.61158  0.83127  0.77944  1.0000
  H   H12       1.0  0.79806  0.88419  0.85989  1.0000
  H   H13       1.0  0.29557  0.63249  0.95653  1.0000
  H   H14       1.0  0.04437  0.80843  0.92732  1.0000
  H   H15       1.0  0.47537  0.44795  0.99784  1.0000
  H   H16       1.0  0.54566  0.26422  0.98598  1.0000
  H   H17       1.0  0.64993  0.62947  0.49963  1.0000
  H   H18       1.0  0.82611  0.70073  0.58016  1.0000
  H   H19       1.0  0.08032  0.53137  0.61691  1.0000
  H   H20       1.0  0.16321  0.29501  0.57327  1.0000
  H   H21       1.0  0.60229  0.45989  0.42306  1.0000
  H   H22       1.0  0.68863  0.23172  0.37086  1.0000
  H   H23       1.0  0.80656  0.05703  0.31361  1.0000
  H   H24       1.0  0.96513  0.90238  0.32337  1.0000
  H   H25       1.0  0.94354  0.01074  0.58537  1.0000
  H   H26       1.0  0.98505  0.79602  0.68813  1.0000
  H   H27       1.0  0.25068  0.63589  0.70753  1.0000
  H   H28       1.0  0.47823  0.68934  0.62432  1.0000
  H   H29       1.0  0.54366  0.07397  0.42116  1.0000
  H   H30       1.0  0.58657  0.85330  0.51956  1.0000
  H   H31       1.0  0.42075  0.32968  0.44562  1.0000
  H   H32       1.0  0.23089  0.44576  0.43303  1.0000
  H   H33       1.0  0.79981  0.26445  0.18882  1.0000
  H   H34       1.0  0.57530  0.47607  0.19106  1.0000
  H   H35       1.0  0.75305  0.64433  0.96002  1.0000
  H   H36       1.0  0.97457  0.42761  0.97067  1.0000
  H   H37       1.0  0.36496  0.61703  0.16483  1.0000
  H   H38       1.0  0.15240  0.84264  0.16018  1.0000
  H   H39       1.0  0.38952  0.05334  0.98098  1.0000
  H   H40       1.0  0.61536  0.84417  0.98051  1.0000
  H   H41       1.0  0.31997  0.96498  0.31027  1.0000
  H   H42       1.0  0.52852  0.73987  0.30546  1.0000
  H   H43       1.0  0.79362  0.98473  0.14042  1.0000
  H   H44       1.0  0.56950  0.19731  0.15086  1.0000
  H   H45       1.0  0.77046  0.62377  0.34626  1.0000
  H   H46       1.0  0.99401  0.40798  0.34159  1.0000
  H   H47       1.0  0.12203  0.54903  0.10919  1.0000
  H   H48       1.0  0.90319  0.77125  0.10282  1.0000
  C   C1        1.0  0.48669  0.09909  0.66789  1.0000
  C   C2        1.0  0.57518  0.19238  0.63719  1.0000
  C   C3        1.0  0.54653  0.32355  0.66620  1.0000
  C   C4        1.0  0.42905  0.35981  0.72375  1.0000
  C   C5        1.0  0.33197  0.26856  0.75486  1.0000
  C   C6        1.0  0.36416  0.13382  0.72665  1.0000
  C   C7        1.0  0.27158  0.03901  0.75765  1.0000
  C   C8        1.0  0.15145  0.07511  0.81359  1.0000
  C   C9        1.0  0.11721  0.20933  0.83992  1.0000
  C   C10       1.0  0.20374  0.30720  0.81114  1.0000
  C   C11       1.0  0.86324  0.19769  0.89890  1.0000
  C   C12       1.0  0.84799  0.07924  0.96787  1.0000
  C   C13       1.0  0.90515  0.52517  0.77484  1.0000
  C   C14       1.0  0.76291  0.62301  0.76124  1.0000
  C   C15       1.0  0.72359  0.75412  0.79120  1.0000
  C   C16       1.0  0.82778  0.78428  0.83538  1.0000
  C   C17       1.0  0.97354  0.68409  0.85212  1.0000
  C   C18       1.0  0.01490  0.55145  0.82077  1.0000
  C   C19       1.0  0.16023  0.44868  0.83889  1.0000
  C   C20       1.0  0.25814  0.48067  0.88705  1.0000
  C   C21       1.0  0.21700  0.61082  0.91854  1.0000
  C   C22       1.0  0.07751  0.70984  0.90151  1.0000
  C   C23       1.0  0.44243  0.35671  0.98269  1.0000
  C   C24       1.0  0.31910  0.31675  0.04442  1.0000
  C   C25       1.0  0.76326  0.55801  0.51549  1.0000
  C   C26       1.0  0.86011  0.59688  0.56005  1.0000
  C   C27       1.0  0.00509  0.50062  0.58091  1.0000
  C   C28       1.0  0.05198  0.36874  0.55609  1.0000
  C   C29       1.0  0.95751  0.32780  0.50729  1.0000
  C   C30       1.0  0.80889  0.42386  0.48803  1.0000
  C   C31       1.0  0.71374  0.38510  0.43929  1.0000
  C   C32       1.0  0.76266  0.25773  0.40959  1.0000
  C   C33       1.0  0.90961  0.16304  0.42804  1.0000
  C   C34       1.0  0.00722  0.19743  0.47527  1.0000
  C   C35       1.0  0.93122  0.01744  0.32584  1.0000
  C   C36       1.0  0.02445  0.09047  0.25947  1.0000
  C   C37       1.0  0.06018  0.94006  0.59380  1.0000
  C   C38       1.0  0.08340  0.82044  0.65086  1.0000
  C   C39       1.0  0.23498  0.72960  0.66196  1.0000
  C   C40       1.0  0.36115  0.75974  0.61589  1.0000
  C   C41       1.0  0.34148  0.88321  0.55723  1.0000
  C   C42       1.0  0.18738  0.97502  0.54588  1.0000
  C   C43       1.0  0.16522  0.10128  0.48856  1.0000
  C   C44       1.0  0.29346  0.13476  0.44545  1.0000
  C   C45       1.0  0.44577  0.04474  0.45652  1.0000
  C   C46       1.0  0.46877  0.92159  0.51093  1.0000
  C   C47       1.0  0.32630  0.37044  0.40424  1.0000
  C   C48       1.0  0.38653  0.45037  0.32853  1.0000
  C   C49       1.0  0.78590  0.35230  0.13976  1.0000
  C   C50       1.0  0.66009  0.47173  0.14041  1.0000
  C   C51       1.0  0.64335  0.58120  0.07501  1.0000
  C   C52       1.0  0.75883  0.56449  0.01292  1.0000
  C   C53       1.0  0.88314  0.44303  0.01784  1.0000
  C   C54       1.0  0.51008  0.70927  0.07213  1.0000
  C   C55       1.0  0.37591  0.71097  0.12288  1.0000
  C   C56       1.0  0.25659  0.83602  0.12057  1.0000
  C   C57       1.0  0.38874  0.95457  0.02067  1.0000
  C   C58       1.0  0.51403  0.83446  0.01971  1.0000
  C   C59       1.0  0.42724  0.96442  0.27380  1.0000
  C   C60       1.0  0.54650  0.83957  0.27232  1.0000
  C   C61       1.0  0.68329  0.84383  0.22492  1.0000
  C   C62       1.0  0.69155  0.97435  0.17918  1.0000
  C   C63       1.0  0.56728  0.09374  0.18466  1.0000
  C   C64       1.0  0.81580  0.71568  0.22432  1.0000
  C   C65       1.0  0.84423  0.61150  0.29197  1.0000
  C   C66       1.0  0.96919  0.49127  0.29017  1.0000
  C   C67       1.0  0.04065  0.57040  0.16022  1.0000
  C   C68       1.0  0.91866  0.69390  0.15723  1.0000
  N   N1        1.0  0.89609  0.33632  0.07977  1.0000
  N   N2        1.0  0.26253  0.95685  0.07109  1.0000
  N   N3        1.0  0.43686  0.09029  0.23127  1.0000
  N   N4        1.0  0.06585  0.47004  0.22518  1.0000
  O   O1        1.0  0.99961  0.24781  0.89664  1.0000
  O   O2        1.0  0.94229  0.04486  0.02434  1.0000
  O   O3        1.0  0.73951  0.02375  0.96437  1.0000
  O   O4        1.0  0.39685  0.37974  0.90314  1.0000
  O   O5        1.0  0.22429  0.25970  0.02167  1.0000
  O   O6        1.0  0.32762  0.34334  0.11337  1.0000
  O   O7        1.0  0.96130  0.03119  0.40355  1.0000
  O   O8        1.0  0.01487  0.06256  0.19071  1.0000
  O   O9        1.0  0.09838  0.17021  0.27856  1.0000
  O   O10       1.0  0.27065  0.25518  0.38775  1.0000
  O   O11       1.0  0.39367  0.40168  0.26278  1.0000
  O   O12       1.0  0.42831  0.55797  0.33611  1.0000
