data_image0
_chemical_formula_structural       Zn4H40C48N8O20
_chemical_formula_sum              "Zn4 H40 C48 N8 O20"
_cell_length_a       8.00001
_cell_length_b       9.91371
_cell_length_c       16.9925
_cell_angle_alpha    83.4959
_cell_angle_beta     76.6458
_cell_angle_gamma    66.2098

_space_group_name_H-M_alt    "P 1"
_space_group_IT_number       1

loop_
  _space_group_symop_operation_xyz
  'x, y, z'

loop_
  _atom_site_type_symbol
  _atom_site_label
  _atom_site_symmetry_multiplicity
  _atom_site_fract_x
  _atom_site_fract_y
  _atom_site_fract_z
  _atom_site_occupancy
  Zn  Zn1       1.0  0.96316  0.81306  0.71285  1.0000
  Zn  Zn2       1.0  0.48902  0.68717  0.78618  1.0000
  Zn  Zn3       1.0  0.03684  0.18694  0.28715  1.0000
  Zn  Zn4       1.0  0.51098  0.31283  0.21382  1.0000
  H   H1        1.0  0.85048  0.26075  0.86497  1.0000
  H   H2        1.0  0.97684  0.23951  0.63508  1.0000
  H   H3        1.0  0.14951  0.73925  0.13503  1.0000
  H   H4        1.0  0.02316  0.76049  0.36492  1.0000
  H   H5        1.0  0.25962  0.60536  0.96020  1.0000
  H   H6        1.0  0.82474  0.89462  0.53985  1.0000
  H   H7        1.0  0.74038  0.39464  0.03980  1.0000
  H   H8        1.0  0.17525  0.10539  0.46016  1.0000
  H   H9        1.0  0.28137  0.17550  0.04556  1.0000
  H   H10       1.0  0.50168  0.32493  0.45449  1.0000
  H   H11       1.0  0.71864  0.82450  0.95443  1.0000
  H   H12       1.0  0.49832  0.67508  0.54552  1.0000
  H   H13       1.0  0.11898  0.34928  0.81710  1.0000
  H   H14       1.0  0.28665  0.15040  0.68221  1.0000
  H   H15       1.0  0.88102  0.65072  0.18289  1.0000
  H   H16       1.0  0.71335  0.84960  0.31779  1.0000
  H   H17       1.0  0.37340  0.96000  0.97027  1.0000
  H   H18       1.0  0.30381  0.54021  0.53000  1.0000
  H   H19       1.0  0.62660  0.04000  0.02973  1.0000
  H   H20       1.0  0.69619  0.45979  0.46999  1.0000
  H   H21       1.0  0.20089  0.91396  0.94301  1.0000
  H   H22       1.0  0.05853  0.58632  0.55675  1.0000
  H   H23       1.0  0.79911  0.08604  0.05698  1.0000
  H   H24       1.0  0.94147  0.41368  0.44325  1.0000
  H   H25       1.0  0.13806  0.02905  0.02842  1.0000
  H   H26       1.0  0.19522  0.47154  0.47132  1.0000
  H   H27       1.0  0.86194  0.97096  0.97157  1.0000
  H   H28       1.0  0.80479  0.52845  0.52868  1.0000
  H   H29       1.0  0.55722  0.02509  0.81152  1.0000
  H   H30       1.0  0.39513  0.47321  0.68824  1.0000
  H   H31       1.0  0.44277  0.97491  0.18847  1.0000
  H   H32       1.0  0.60487  0.52678  0.31175  1.0000
  H   H33       1.0  0.52880  0.27806  0.88164  1.0000
  H   H34       1.0  0.68969  0.22048  0.61857  1.0000
  H   H35       1.0  0.47119  0.72194  0.11835  1.0000
  H   H36       1.0  0.31032  0.77951  0.38143  1.0000
  H   H37       1.0  0.09691  0.02214  0.78887  1.0000
  H   H38       1.0  0.90821  0.47900  0.71087  1.0000
  H   H39       1.0  0.90308  0.97786  0.21113  1.0000
  H   H40       1.0  0.09178  0.52100  0.28914  1.0000
  C   C1        1.0  0.18659  0.48918  0.88189  1.0000
  C   C2        1.0  0.55802  0.01069  0.61773  1.0000
  C   C3        1.0  0.81341  0.51082  0.11811  1.0000
  C   C4        1.0  0.44197  0.98932  0.38228  1.0000
  C   C5        1.0  0.24158  0.50546  0.95149  1.0000
  C   C6        1.0  0.69835  0.99459  0.54847  1.0000
  C   C7        1.0  0.75842  0.49454  0.04851  1.0000
  C   C8        1.0  0.30165  0.00542  0.45154  1.0000
  C   C9        1.0  0.27318  0.39262  0.01007  1.0000
  C   C10       1.0  0.67538  0.10762  0.48998  1.0000
  C   C11       1.0  0.72682  0.60738  0.98993  1.0000
  C   C12       1.0  0.32462  0.89238  0.51003  1.0000
  C   C13       1.0  0.25282  0.26224  0.99918  1.0000
  C   C14       1.0  0.51400  0.23801  0.50075  1.0000
  C   C15       1.0  0.74719  0.73775  0.00082  1.0000
  C   C16       1.0  0.48601  0.76200  0.49926  1.0000
  C   C17       1.0  0.19742  0.24686  0.92948  1.0000
  C   C18       1.0  0.37421  0.25326  0.57023  1.0000
  C   C19       1.0  0.80258  0.75314  0.07052  1.0000
  C   C20       1.0  0.62579  0.74674  0.42977  1.0000
  C   C21       1.0  0.16262  0.36109  0.87118  1.0000
  C   C22       1.0  0.39567  0.13884  0.62838  1.0000
  C   C23       1.0  0.83739  0.63891  0.12882  1.0000
  C   C24       1.0  0.60434  0.86116  0.37163  1.0000
  C   C25       1.0  0.14890  0.61118  0.82027  1.0000
  C   C26       1.0  0.58069  0.88843  0.67910  1.0000
  C   C27       1.0  0.85110  0.38882  0.17973  1.0000
  C   C28       1.0  0.41931  0.11156  0.32090  1.0000
  C   C29       1.0  0.33501  0.41157  0.08351  1.0000
  C   C30       1.0  0.82920  0.08848  0.41684  1.0000
  C   C31       1.0  0.66499  0.58843  0.91649  1.0000
  C   C32       1.0  0.17080  0.91152  0.58316  1.0000
  C   C33       1.0  0.22511  0.00026  0.96764  1.0000
  C   C34       1.0  0.19330  0.50003  0.53225  1.0000
  C   C35       1.0  0.77489  0.99974  0.03236  1.0000
  C   C36       1.0  0.80670  0.49997  0.46775  1.0000
  C   C37       1.0  0.66437  0.06197  0.81699  1.0000
  C   C38       1.0  0.54442  0.43695  0.68278  1.0000
  C   C39       1.0  0.33563  0.93802  0.18301  1.0000
  C   C40       1.0  0.45558  0.56304  0.31722  1.0000
  C   C41       1.0  0.64716  0.18602  0.85234  1.0000
  C   C42       1.0  0.68660  0.31296  0.64770  1.0000
  C   C43       1.0  0.35283  0.81398  0.14766  1.0000
  C   C44       1.0  0.31340  0.68703  0.35230  1.0000
  C   C45       1.0  0.94664  0.05571  0.80442  1.0000
  C   C46       1.0  0.80733  0.44473  0.69534  1.0000
  C   C47       1.0  0.05335  0.94429  0.19558  1.0000
  C   C48       1.0  0.19267  0.55526  0.30466  1.0000
  N   N1        1.0  0.85207  0.98212  0.78686  1.0000
  N   N2        1.0  0.62183  0.51772  0.71268  1.0000
  N   N3        1.0  0.14793  0.01788  0.21314  1.0000
  N   N4        1.0  0.37816  0.48228  0.28732  1.0000
  N   N5        1.0  0.82532  0.17910  0.84409  1.0000
  N   N6        1.0  0.84925  0.32080  0.65593  1.0000
  N   N7        1.0  0.17467  0.82090  0.15591  1.0000
  N   N8        1.0  0.15075  0.67920  0.34407  1.0000
  O   O1        1.0  0.03964  0.61841  0.77422  1.0000
  O   O2        1.0  0.43274  0.88141  0.72461  1.0000
  O   O3        1.0  0.96037  0.38159  0.22578  1.0000
  O   O4        1.0  0.56727  0.11858  0.27538  1.0000
  O   O5        1.0  0.22027  0.70699  0.81633  1.0000
  O   O6        1.0  0.74353  0.79233  0.68342  1.0000
  O   O7        1.0  0.77973  0.29302  0.18367  1.0000
  O   O8        1.0  0.25647  0.20766  0.31658  1.0000
  O   O9        1.0  0.30067  0.53798  0.10542  1.0000
  O   O10       1.0  0.94247  0.96200  0.39509  1.0000
  O   O11       1.0  0.69932  0.46202  0.89459  1.0000
  O   O12       1.0  0.05753  0.03801  0.60491  1.0000
  O   O13       1.0  0.42725  0.28975  0.11902  1.0000
  O   O14       1.0  0.83567  0.21013  0.38148  1.0000
  O   O15       1.0  0.57275  0.71025  0.88098  1.0000
  O   O16       1.0  0.16433  0.78987  0.61853  1.0000
  O   O17       1.0  0.17568  0.12403  0.91251  1.0000
  O   O18       1.0  0.21300  0.37608  0.58717  1.0000
  O   O19       1.0  0.82433  0.87597  0.08748  1.0000
  O   O20       1.0  0.78700  0.62393  0.41283  1.0000
