data_image0
_chemical_formula_structural       Co2H36C42N4O10
_chemical_formula_sum              "Co2 H36 C42 N4 O10"
_cell_length_a       9.33947
_cell_length_b       10.1985
_cell_length_c       11.4313
_cell_angle_alpha    74.0451
_cell_angle_beta     80.0867
_cell_angle_gamma    64.7658

_space_group_name_H-M_alt    "P 1"
_space_group_IT_number       1

loop_
  _space_group_symop_operation_xyz
  'x, y, z'

loop_
  _atom_site_type_symbol
  _atom_site_label
  _atom_site_symmetry_multiplicity
  _atom_site_fract_x
  _atom_site_fract_y
  _atom_site_fract_z
  _atom_site_occupancy
  Co  Co1       1.0  0.45624  0.37231  0.38466  1.0000
  Co  Co2       1.0  0.54376  0.62769  0.61534  1.0000
  H   H1        1.0  0.57251  0.07823  0.57593  1.0000
  H   H2        1.0  0.42749  0.92177  0.42407  1.0000
  H   H3        1.0  0.66720  0.78476  0.93258  1.0000
  H   H4        1.0  0.33279  0.21524  0.06743  1.0000
  H   H5        1.0  0.69019  0.21423  0.85751  1.0000
  H   H6        1.0  0.30981  0.78577  0.14249  1.0000
  H   H7        1.0  0.84195  0.08240  0.03202  1.0000
  H   H8        1.0  0.15805  0.91759  0.96798  1.0000
  H   H9        1.0  0.74221  0.02450  0.17264  1.0000
  H   H10       1.0  0.25779  0.97550  0.82736  1.0000
  H   H11       1.0  0.63156  0.17646  0.05746  1.0000
  H   H12       1.0  0.36844  0.82354  0.94254  1.0000
  H   H13       1.0  0.47536  0.55792  0.13428  1.0000
  H   H14       1.0  0.52464  0.44208  0.86572  1.0000
  H   H15       1.0  0.66656  0.55784  0.95121  1.0000
  H   H16       1.0  0.33344  0.44217  0.04879  1.0000
  H   H17       1.0  0.01983  0.17956  0.16796  1.0000
  H   H18       1.0  0.98017  0.82043  0.83203  1.0000
  H   H19       1.0  0.81140  0.19275  0.34001  1.0000
  H   H20       1.0  0.18860  0.80724  0.65999  1.0000
  H   H21       1.0  0.09685  0.28765  0.96140  1.0000
  H   H22       1.0  0.90316  0.71234  0.03859  1.0000
  H   H23       1.0  0.98014  0.47895  0.90675  1.0000
  H   H24       1.0  0.01987  0.52105  0.09325  1.0000
  H   H25       1.0  0.93654  0.22085  0.85129  1.0000
  H   H26       1.0  0.06347  0.77915  0.14871  1.0000
  H   H27       1.0  0.81361  0.41196  0.80255  1.0000
  H   H28       1.0  0.18639  0.58804  0.19745  1.0000
  H   H29       1.0  0.21805  0.57560  0.53994  1.0000
  H   H30       1.0  0.78194  0.42441  0.46006  1.0000
  H   H31       1.0  0.01603  0.57126  0.71111  1.0000
  H   H32       1.0  0.98397  0.42875  0.28889  1.0000
  H   H33       1.0  0.10423  0.12925  0.68428  1.0000
  H   H34       1.0  0.89577  0.87075  0.31572  1.0000
  H   H35       1.0  0.30285  0.15028  0.51550  1.0000
  H   H36       1.0  0.69716  0.84972  0.48450  1.0000
  C   C1        1.0  0.63221  0.15936  0.70853  1.0000
  C   C2        1.0  0.36779  0.84063  0.29147  1.0000
  C   C3        1.0  0.60338  0.05524  0.66916  1.0000
  C   C4        1.0  0.39662  0.94475  0.33084  1.0000
  C   C5        1.0  0.61632  0.92007  0.74993  1.0000
  C   C6        1.0  0.38367  0.07992  0.25008  1.0000
  C   C7        1.0  0.65674  0.88965  0.86930  1.0000
  C   C8        1.0  0.34326  0.11035  0.13071  1.0000
  C   C9        1.0  0.67926  0.99691  0.90996  1.0000
  C   C10       1.0  0.32074  0.00309  0.09005  1.0000
  C   C11       1.0  0.66942  0.13075  0.82934  1.0000
  C   C12       1.0  0.33058  0.86925  0.17066  1.0000
  C   C13       1.0  0.62110  0.30320  0.62238  1.0000
  C   C14       1.0  0.37890  0.69680  0.37762  1.0000
  C   C15       1.0  0.58625  0.80907  0.70671  1.0000
  C   C16       1.0  0.41374  0.19093  0.29330  1.0000
  C   C17       1.0  0.73298  0.06785  0.07433  1.0000
  C   C18       1.0  0.26702  0.93214  0.92567  1.0000
  C   C19       1.0  0.59703  0.47529  0.13700  1.0000
  C   C20       1.0  0.40298  0.52471  0.86300  1.0000
  C   C21       1.0  0.70378  0.47520  0.03630  1.0000
  C   C22       1.0  0.29622  0.52480  0.96370  1.0000
  C   C23       1.0  0.86018  0.36805  0.04392  1.0000
  C   C24       1.0  0.13982  0.63195  0.95608  1.0000
  C   C25       1.0  0.89965  0.26488  0.15561  1.0000
  C   C26       1.0  0.10035  0.73512  0.84438  1.0000
  C   C27       1.0  0.78479  0.27177  0.25213  1.0000
  C   C28       1.0  0.21521  0.72823  0.74787  1.0000
  C   C29       1.0  0.97737  0.36791  0.93595  1.0000
  C   C30       1.0  0.02263  0.63209  0.06405  1.0000
  C   C31       1.0  0.93459  0.33363  0.82659  1.0000
  C   C32       1.0  0.06541  0.66637  0.17341  1.0000
  C   C33       1.0  0.18838  0.47898  0.57388  1.0000
  C   C34       1.0  0.81162  0.52102  0.42612  1.0000
  C   C35       1.0  0.07723  0.47462  0.67095  1.0000
  C   C36       1.0  0.92277  0.52539  0.32905  1.0000
  C   C37       1.0  0.04575  0.34664  0.71655  1.0000
  C   C38       1.0  0.95425  0.65337  0.28345  1.0000
  C   C39       1.0  0.12541  0.23102  0.65563  1.0000
  C   C40       1.0  0.87459  0.76898  0.34436  1.0000
  C   C41       1.0  0.23548  0.24312  0.55911  1.0000
  C   C42       1.0  0.76452  0.75688  0.44089  1.0000
  N   N1        1.0  0.63507  0.37522  0.24394  1.0000
  N   N2        1.0  0.36493  0.62478  0.75606  1.0000
  N   N3        1.0  0.26957  0.36450  0.51864  1.0000
  N   N4        1.0  0.73043  0.63551  0.48136  1.0000
  O   O1        1.0  0.60421  0.31923  0.51009  1.0000
  O   O2        1.0  0.39580  0.68076  0.48991  1.0000
  O   O3        1.0  0.63437  0.40075  0.66441  1.0000
  O   O4        1.0  0.36563  0.59925  0.33558  1.0000
  O   O5        1.0  0.48160  0.85548  0.62940  1.0000
  O   O6        1.0  0.51839  0.14453  0.37061  1.0000
  O   O7        1.0  0.66669  0.66984  0.74477  1.0000
  O   O8        1.0  0.33330  0.33016  0.25523  1.0000
  O   O9        1.0  0.71044  0.96059  0.02994  1.0000
  O   O10       1.0  0.28956  0.03941  0.97006  1.0000
