data_image0
_chemical_formula_structural       CuH28C20N10O8
_chemical_formula_sum              "Cu1 H28 C20 N10 O8"
_cell_length_a       8.62807
_cell_length_b       8.81108
_cell_length_c       10.3217
_cell_angle_alpha    83.3134
_cell_angle_beta     65.8886
_cell_angle_gamma    60.6289

_space_group_name_H-M_alt    "P 1"
_space_group_IT_number       1

loop_
  _space_group_symop_operation_xyz
  'x, y, z'

loop_
  _atom_site_type_symbol
  _atom_site_label
  _atom_site_symmetry_multiplicity
  _atom_site_fract_x
  _atom_site_fract_y
  _atom_site_fract_z
  _atom_site_occupancy
  Cu  Cu1       1.0  1.00000  0.50000  0.50000  1.0000
  H   H1        1.0  0.83455  0.92013  0.56313  1.0000
  H   H2        1.0  0.16545  0.07987  0.43687  1.0000
  H   H3        1.0  0.54726  0.62132  0.65067  1.0000
  H   H4        1.0  0.45274  0.37868  0.34933  1.0000
  H   H5        1.0  0.27110  0.97436  0.72088  1.0000
  H   H6        1.0  0.72890  0.02564  0.27913  1.0000
  H   H7        1.0  0.31175  0.25669  0.65936  1.0000
  H   H8        1.0  0.68825  0.74330  0.34063  1.0000
  H   H9        1.0  0.55031  0.22623  0.59820  1.0000
  H   H10       1.0  0.44969  0.77376  0.40180  1.0000
  H   H11       1.0  0.34125  0.38523  0.84106  1.0000
  H   H12       1.0  0.65875  0.61478  0.15894  1.0000
  H   H13       1.0  0.30558  0.20288  0.90812  1.0000
  H   H14       1.0  0.69442  0.79712  0.09188  1.0000
  H   H15       1.0  0.52816  0.11486  0.05025  1.0000
  H   H16       1.0  0.47183  0.88515  0.94975  1.0000
  H   H17       1.0  0.49140  0.32910  0.00915  1.0000
  H   H18       1.0  0.50860  0.67091  0.99085  1.0000
  H   H19       1.0  0.80409  0.12795  0.04762  1.0000
  H   H20       1.0  0.19591  0.87205  0.95238  1.0000
  H   H21       1.0  0.89091  0.99598  0.88783  1.0000
  H   H22       1.0  0.10908  0.00402  0.11217  1.0000
  H   H23       1.0  0.87253  0.20630  0.65519  1.0000
  H   H24       1.0  0.12747  0.79370  0.34481  1.0000
  H   H25       1.0  0.98466  0.55370  0.80477  1.0000
  H   H26       1.0  0.01535  0.44629  0.19523  1.0000
  H   H27       1.0  0.88561  0.35676  0.02447  1.0000
  H   H28       1.0  0.11439  0.64324  0.97553  1.0000
  C   C1        1.0  0.72216  0.88325  0.59573  1.0000
  C   C2        1.0  0.27784  0.11675  0.40427  1.0000
  C   C3        1.0  0.56576  0.73515  0.64586  1.0000
  C   C4        1.0  0.43423  0.26485  0.35414  1.0000
  C   C5        1.0  0.42816  0.90926  0.68233  1.0000
  C   C6        1.0  0.57184  0.09074  0.31767  1.0000
  C   C7        1.0  0.44604  0.18930  0.67667  1.0000
  C   C8        1.0  0.55396  0.81070  0.32333  1.0000
  C   C9        1.0  0.40757  0.24152  0.82610  1.0000
  C   C10       1.0  0.59243  0.75848  0.17390  1.0000
  C   C11       1.0  0.58592  0.18861  0.96910  1.0000
  C   C12       1.0  0.41408  0.81139  0.03090  1.0000
  C   C13       1.0  0.79421  0.12858  0.94499  1.0000
  C   C14       1.0  0.20579  0.87142  0.05501  1.0000
  C   C15       1.0  0.88986  0.27563  0.72388  1.0000
  C   C16       1.0  0.11014  0.72436  0.27612  1.0000
  C   C17       1.0  0.94335  0.45491  0.80732  1.0000
  C   C18       1.0  0.05665  0.54509  0.19268  1.0000
  C   C19       1.0  0.89623  0.35871  0.91593  1.0000
  C   C20       1.0  0.10377  0.64128  0.08407  1.0000
  N   N1        1.0  0.74814  0.72135  0.59108  1.0000
  N   N2        1.0  0.25185  0.27864  0.40892  1.0000
  N   N3        1.0  0.52943  0.00063  0.64982  1.0000
  N   N4        1.0  0.47057  0.99937  0.35018  1.0000
  N   N5        1.0  0.86260  0.24648  0.86189  1.0000
  N   N6        1.0  0.13740  0.75352  0.13811  1.0000
  N   N7        1.0  0.93961  0.40098  0.68855  1.0000
  N   N8        1.0  0.06040  0.59902  0.31145  1.0000
  N   N9        1.0  0.15444  0.72733  0.64179  1.0000
  N   N10       1.0  0.84555  0.27268  0.35821  1.0000
  O   O1        1.0  0.20636  0.58919  0.57166  1.0000
  O   O2        1.0  0.79365  0.41081  0.42835  1.0000
  O   O3        1.0  0.11435  0.87006  0.58593  1.0000
  O   O4        1.0  0.88566  0.12994  0.41406  1.0000
  O   O5        1.0  0.14214  0.72218  0.76957  1.0000
  O   O6        1.0  0.85783  0.27784  0.23044  1.0000
  O   O7        1.0  0.59115  0.15632  0.83525  1.0000
  O   O8        1.0  0.40885  0.84368  0.16474  1.0000
