data_image0
_chemical_formula_structural       Zn4H40C24O28
_chemical_formula_sum              "Zn4 H40 C24 O28"
_cell_length_a       7.41623
_cell_length_b       9.78953
_cell_length_c       13.6803
_cell_angle_alpha    89.9997
_cell_angle_beta     89.9998
_cell_angle_gamma    107.993

_space_group_name_H-M_alt    "P 1"
_space_group_IT_number       1

loop_
  _space_group_symop_operation_xyz
  'x, y, z'

loop_
  _atom_site_type_symbol
  _atom_site_label
  _atom_site_symmetry_multiplicity
  _atom_site_fract_x
  _atom_site_fract_y
  _atom_site_fract_z
  _atom_site_occupancy
  Zn  Zn1       1.0  0.07893  0.27742  0.81508  1.0000
  Zn  Zn2       1.0  0.92106  0.22257  0.31508  1.0000
  Zn  Zn3       1.0  0.92107  0.72257  0.18492  1.0000
  Zn  Zn4       1.0  0.07893  0.77742  0.68492  1.0000
  H   H1        1.0  0.61335  0.73537  0.89119  1.0000
  H   H2        1.0  0.38664  0.76462  0.39119  1.0000
  H   H3        1.0  0.38665  0.26463  0.10881  1.0000
  H   H4        1.0  0.61335  0.23537  0.60881  1.0000
  H   H5        1.0  0.50180  0.84622  0.95844  1.0000
  H   H6        1.0  0.49819  0.65377  0.45843  1.0000
  H   H7        1.0  0.49819  0.15378  0.04157  1.0000
  H   H8        1.0  0.50181  0.34623  0.54157  1.0000
  H   H9        1.0  0.34441  0.30546  0.95085  1.0000
  H   H10       1.0  0.65559  0.19454  0.45085  1.0000
  H   H11       1.0  0.65559  0.69454  0.04915  1.0000
  H   H12       1.0  0.34442  0.80547  0.54915  1.0000
  H   H13       1.0  0.26905  0.13791  0.92851  1.0000
  H   H14       1.0  0.73094  0.36208  0.42851  1.0000
  H   H15       1.0  0.73094  0.86208  0.07149  1.0000
  H   H16       1.0  0.26906  0.63792  0.57149  1.0000
  H   H17       1.0  0.49689  0.80866  0.73599  1.0000
  H   H18       1.0  0.50311  0.69134  0.23599  1.0000
  H   H19       1.0  0.50312  0.19134  0.26401  1.0000
  H   H20       1.0  0.49688  0.30866  0.76401  1.0000
  H   H21       1.0  0.14022  0.51028  0.93469  1.0000
  H   H22       1.0  0.85978  0.98973  0.43469  1.0000
  H   H23       1.0  0.85978  0.48972  0.06531  1.0000
  H   H24       1.0  0.14022  0.01027  0.56531  1.0000
  H   H25       1.0  0.14399  0.54172  0.82146  1.0000
  H   H26       1.0  0.85601  0.95828  0.32146  1.0000
  H   H27       1.0  0.85601  0.45828  0.17854  1.0000
  H   H28       1.0  0.14399  0.04172  0.67854  1.0000
  H   H29       1.0  0.52229  0.08922  0.84502  1.0000
  H   H30       1.0  0.47771  0.41078  0.34502  1.0000
  H   H31       1.0  0.47771  0.91078  0.15498  1.0000
  H   H32       1.0  0.52229  0.58922  0.65498  1.0000
  H   H33       1.0  0.64109  0.07699  0.73338  1.0000
  H   H34       1.0  0.35892  0.42301  0.23337  1.0000
  H   H35       1.0  0.35892  0.92302  0.26663  1.0000
  H   H36       1.0  0.64108  0.57698  0.76663  1.0000
  H   H37       1.0  0.23007  0.87495  0.86592  1.0000
  H   H38       1.0  0.76993  0.62505  0.36592  1.0000
  H   H39       1.0  0.76993  0.12505  0.13408  1.0000
  H   H40       1.0  0.23007  0.37495  0.63408  1.0000
  C   C1        1.0  0.89009  0.95462  0.80120  1.0000
  C   C2        1.0  0.10992  0.54539  0.30119  1.0000
  C   C3        1.0  0.10992  0.04538  0.19881  1.0000
  C   C4        1.0  0.89008  0.45461  0.69880  1.0000
  C   C5        1.0  0.81699  0.07877  0.95283  1.0000
  C   C6        1.0  0.18300  0.42124  0.45283  1.0000
  C   C7        1.0  0.18302  0.92125  0.04716  1.0000
  C   C8        1.0  0.81698  0.57875  0.54716  1.0000
  C   C9        1.0  0.73543  0.97627  0.86771  1.0000
  C   C10       1.0  0.26457  0.52373  0.36771  1.0000
  C   C11       1.0  0.26458  0.02374  0.13229  1.0000
  C   C12       1.0  0.73543  0.47627  0.63229  1.0000
  C   C13       1.0  0.57548  0.83513  0.89083  1.0000
  C   C14       1.0  0.42451  0.66487  0.39082  1.0000
  C   C15       1.0  0.42452  0.16487  0.10917  1.0000
  C   C16       1.0  0.57548  0.33513  0.60917  1.0000
  C   C17       1.0  0.46744  0.86343  0.80086  1.0000
  C   C18       1.0  0.53256  0.63656  0.30086  1.0000
  C   C19       1.0  0.53256  0.13657  0.19914  1.0000
  C   C20       1.0  0.46744  0.36344  0.69914  1.0000
  C   C21       1.0  0.58895  0.02287  0.80250  1.0000
  C   C22       1.0  0.41105  0.47713  0.30249  1.0000
  C   C23       1.0  0.41105  0.97713  0.19751  1.0000
  C   C24       1.0  0.58895  0.52287  0.69751  1.0000
  O   O1        1.0  0.90133  0.21056  0.93558  1.0000
  O   O2        1.0  0.09865  0.28944  0.43558  1.0000
  O   O3        1.0  0.09867  0.78943  0.06443  1.0000
  O   O4        1.0  0.90134  0.71058  0.56443  1.0000
  O   O5        1.0  0.78862  0.02771  0.03931  1.0000
  O   O6        1.0  0.21139  0.47230  0.53930  1.0000
  O   O7        1.0  0.21138  0.97229  0.96070  1.0000
  O   O8        1.0  0.78862  0.52771  0.46070  1.0000
  O   O9        1.0  0.01575  0.06697  0.76838  1.0000
  O   O10       1.0  0.98424  0.43303  0.26838  1.0000
  O   O11       1.0  0.98424  0.93303  0.23162  1.0000
  O   O12       1.0  0.01576  0.56697  0.73162  1.0000
  O   O13       1.0  0.88293  0.82841  0.77738  1.0000
  O   O14       1.0  0.11707  0.67158  0.27738  1.0000
  O   O15       1.0  0.11708  0.17159  0.22263  1.0000
  O   O16       1.0  0.88293  0.32841  0.72262  1.0000
  O   O17       1.0  0.30550  0.23681  0.89773  1.0000
  O   O18       1.0  0.69449  0.26319  0.39773  1.0000
  O   O19       1.0  0.69450  0.76319  0.10227  1.0000
  O   O20       1.0  0.30551  0.73681  0.60227  1.0000
  O   O21       1.0  0.19706  0.49198  0.87396  1.0000
  O   O22       1.0  0.80294  0.00802  0.37396  1.0000
  O   O23       1.0  0.80294  0.50802  0.12603  1.0000
  O   O24       1.0  0.19706  0.99198  0.62604  1.0000
  O   O25       1.0  0.26664  0.82795  0.80678  1.0000
  O   O26       1.0  0.73335  0.67204  0.30677  1.0000
  O   O27       1.0  0.73336  0.17205  0.19322  1.0000
  O   O28       1.0  0.26664  0.32796  0.69322  1.0000
