data_image0
_chemical_formula_structural       Cd2H30C40N2O12
_chemical_formula_sum              "Cd2 H30 C40 N2 O12"
_cell_length_a       9.48376
_cell_length_b       9.76523
_cell_length_c       10.772
_cell_angle_alpha    88.4993
_cell_angle_beta     72.5754
_cell_angle_gamma    69.4568

_space_group_name_H-M_alt    "P 1"
_space_group_IT_number       1

loop_
  _space_group_symop_operation_xyz
  'x, y, z'

loop_
  _atom_site_type_symbol
  _atom_site_label
  _atom_site_symmetry_multiplicity
  _atom_site_fract_x
  _atom_site_fract_y
  _atom_site_fract_z
  _atom_site_occupancy
  Cd  Cd1       1.0  0.65064  0.57310  0.15169  1.0000
  Cd  Cd2       1.0  0.34936  0.42690  0.84831  1.0000
  H   H1        1.0  0.73175  0.42678  0.90890  1.0000
  H   H2        1.0  0.26825  0.57322  0.09110  1.0000
  H   H3        1.0  0.88983  0.45950  0.90209  1.0000
  H   H4        1.0  0.11017  0.54051  0.09791  1.0000
  H   H5        1.0  0.66492  0.41819  0.40823  1.0000
  H   H6        1.0  0.33508  0.58181  0.59177  1.0000
  H   H7        1.0  0.61953  0.20646  0.52420  1.0000
  H   H8        1.0  0.38047  0.79354  0.47580  1.0000
  H   H9        1.0  0.46268  0.10948  0.21061  1.0000
  H   H10       1.0  0.53732  0.89052  0.78939  1.0000
  H   H11       1.0  0.50512  0.33262  0.11156  1.0000
  H   H12       1.0  0.49487  0.66738  0.88845  1.0000
  H   H13       1.0  0.48816  0.93868  0.37387  1.0000
  H   H14       1.0  0.51185  0.06132  0.62613  1.0000
  H   H15       1.0  0.37671  0.04904  0.04509  1.0000
  H   H16       1.0  0.62329  0.95096  0.95491  1.0000
  H   H17       1.0  0.15114  0.26732  0.02960  1.0000
  H   H18       1.0  0.84886  0.73268  0.97040  1.0000
  H   H19       1.0  0.87903  0.26176  0.10259  1.0000
  H   H20       1.0  0.12097  0.73824  0.89741  1.0000
  H   H21       1.0  0.83487  0.03478  0.18854  1.0000
  H   H22       1.0  0.16513  0.96522  0.81146  1.0000
  H   H23       1.0  0.12991  0.88888  0.39012  1.0000
  H   H24       1.0  0.87008  0.11112  0.60988  1.0000
  H   H25       1.0  0.05279  0.83647  0.62239  1.0000
  H   H26       1.0  0.94721  0.16353  0.37761  1.0000
  H   H27       1.0  0.88086  0.68804  0.69725  1.0000
  H   H28       1.0  0.11914  0.31196  0.30274  1.0000
  H   H29       1.0  0.78445  0.59642  0.53690  1.0000
  H   H30       1.0  0.21555  0.40358  0.46309  1.0000
  C   C1        1.0  0.61871  0.34724  0.36905  1.0000
  C   C2        1.0  0.38129  0.65276  0.63095  1.0000
  C   C3        1.0  0.59352  0.22875  0.43244  1.0000
  C   C4        1.0  0.40649  0.77125  0.56756  1.0000
  C   C5        1.0  0.53617  0.13892  0.37700  1.0000
  C   C6        1.0  0.46384  0.86107  0.62300  1.0000
  C   C7        1.0  0.50670  0.17599  0.25772  1.0000
  C   C8        1.0  0.49331  0.82401  0.74228  1.0000
  C   C9        1.0  0.53125  0.29867  0.20175  1.0000
  C   C10       1.0  0.46875  0.70133  0.79825  1.0000
  C   C11       1.0  0.50499  0.01329  0.43726  1.0000
  C   C12       1.0  0.49502  0.98671  0.56274  1.0000
  C   C13       1.0  0.37626  0.79114  0.13307  1.0000
  C   C14       1.0  0.62374  0.20886  0.86693  1.0000
  C   C15       1.0  0.23503  0.91840  0.12591  1.0000
  C   C16       1.0  0.76497  0.08159  0.87409  1.0000
  C   C17       1.0  0.25719  0.04728  0.07817  1.0000
  C   C18       1.0  0.74281  0.95271  0.92182  1.0000
  C   C19       1.0  0.13109  0.16981  0.06918  1.0000
  C   C20       1.0  0.86891  0.83018  0.93082  1.0000
  C   C21       1.0  0.97811  0.16688  0.11063  1.0000
  C   C22       1.0  0.02189  0.83312  0.88937  1.0000
  C   C23       1.0  0.95245  0.04125  0.15923  1.0000
  C   C24       1.0  0.04755  0.95875  0.84077  1.0000
  C   C25       1.0  0.07996  0.91749  0.16526  1.0000
  C   C26       1.0  0.92004  0.08251  0.83474  1.0000
  C   C27       1.0  0.00580  0.76691  0.33253  1.0000
  C   C28       1.0  0.99419  0.23309  0.66747  1.0000
  C   C29       1.0  0.05712  0.82192  0.42231  1.0000
  C   C30       1.0  0.94288  0.17809  0.57769  1.0000
  C   C31       1.0  0.01234  0.79319  0.55297  1.0000
  C   C32       1.0  0.98765  0.20681  0.44703  1.0000
  C   C33       1.0  0.91541  0.71070  0.59526  1.0000
  C   C34       1.0  0.08458  0.28930  0.40474  1.0000
  C   C35       1.0  0.86244  0.65873  0.50572  1.0000
  C   C36       1.0  0.13755  0.34127  0.49428  1.0000
  C   C37       1.0  0.90703  0.68435  0.37337  1.0000
  C   C38       1.0  0.09296  0.31565  0.62663  1.0000
  C   C39       1.0  0.83937  0.63178  0.28390  1.0000
  C   C40       1.0  0.16063  0.36821  0.71609  1.0000
  N   N1        1.0  0.58802  0.38260  0.25541  1.0000
  N   N2        1.0  0.41198  0.61740  0.74459  1.0000
  O   O1        1.0  0.49387  0.81882  0.14517  1.0000
  O   O2        1.0  0.50614  0.18118  0.85483  1.0000
  O   O3        1.0  0.38004  0.65925  0.12555  1.0000
  O   O4        1.0  0.61996  0.34075  0.87447  1.0000
  O   O5        1.0  0.04737  0.79168  0.20237  1.0000
  O   O6        1.0  0.95263  0.20832  0.79763  1.0000
  O   O7        1.0  0.91736  0.58526  0.16468  1.0000
  O   O8        1.0  0.08264  0.41474  0.83532  1.0000
  O   O9        1.0  0.69671  0.63671  0.33388  1.0000
  O   O10       1.0  0.30329  0.36328  0.66612  1.0000
  O   O11       1.0  0.77059  0.49853  0.93943  1.0000
  O   O12       1.0  0.22941  0.50147  0.06056  1.0000
