data_image0
_chemical_formula_structural       Na2H26C28S2I2N10
_chemical_formula_sum              "Na2 H26 C28 S2 I2 N10"
_cell_length_a       10.0415
_cell_length_b       10.2592
_cell_length_c       10.3086
_cell_angle_alpha    108.917
_cell_angle_beta     117.126
_cell_angle_gamma    102.155

_space_group_name_H-M_alt    "P 1"
_space_group_IT_number       1

loop_
  _space_group_symop_operation_xyz
  'x, y, z'

loop_
  _atom_site_type_symbol
  _atom_site_label
  _atom_site_symmetry_multiplicity
  _atom_site_fract_x
  _atom_site_fract_y
  _atom_site_fract_z
  _atom_site_occupancy
  Na  Na1       1.0  0.52458  0.18857  0.46156  1.0000
  Na  Na2       1.0  0.47543  0.81143  0.53844  1.0000
  H   H1        1.0  0.83912  0.80675  0.75189  1.0000
  H   H2        1.0  0.16087  0.19325  0.24811  1.0000
  H   H3        1.0  0.98114  0.87037  0.05587  1.0000
  H   H4        1.0  0.01885  0.12963  0.94413  1.0000
  H   H5        1.0  0.96256  0.65884  0.12178  1.0000
  H   H6        1.0  0.03744  0.34116  0.87822  1.0000
  H   H7        1.0  0.79283  0.38790  0.88540  1.0000
  H   H8        1.0  0.20717  0.61210  0.11460  1.0000
  H   H9        1.0  0.38655  0.18179  0.87869  1.0000
  H   H10       1.0  0.61345  0.81820  0.12131  1.0000
  H   H11       1.0  0.21090  0.90432  0.68791  1.0000
  H   H12       1.0  0.78910  0.09567  0.31210  1.0000
  H   H13       1.0  0.14701  0.73907  0.80800  1.0000
  H   H14       1.0  0.85299  0.26093  0.19200  1.0000
  H   H15       1.0  0.27199  0.86294  0.11518  1.0000
  H   H16       1.0  0.72801  0.13707  0.88482  1.0000
  H   H17       1.0  0.75961  0.64854  0.16673  1.0000
  H   H18       1.0  0.24040  0.35145  0.83327  1.0000
  H   H19       1.0  0.85487  0.79426  0.37417  1.0000
  H   H20       1.0  0.14513  0.20574  0.62583  1.0000
  H   H21       1.0  0.01918  0.63868  0.37042  1.0000
  H   H22       1.0  0.98082  0.36132  0.62958  1.0000
  H   H23       1.0  0.93569  0.61551  0.48458  1.0000
  H   H24       1.0  0.06431  0.38449  0.51542  1.0000
  H   H25       1.0  0.84058  0.46916  0.27771  1.0000
  H   H26       1.0  0.15942  0.53084  0.72229  1.0000
  C   C1        1.0  0.66107  0.52409  0.48601  1.0000
  C   C2        1.0  0.33893  0.47591  0.51399  1.0000
  C   C3        1.0  0.51710  0.33463  0.21168  1.0000
  C   C4        1.0  0.48290  0.66537  0.78832  1.0000
  C   C5        1.0  0.74340  0.56505  0.66558  1.0000
  C   C6        1.0  0.25660  0.43495  0.33442  1.0000
  C   C7        1.0  0.83236  0.71849  0.78864  1.0000
  C   C8        1.0  0.16764  0.28151  0.21136  1.0000
  C   C9        1.0  0.91008  0.75303  0.95481  1.0000
  C   C10       1.0  0.08992  0.24697  0.04519  1.0000
  C   C11       1.0  0.89844  0.63402  0.99228  1.0000
  C   C12       1.0  0.10156  0.36599  0.00772  1.0000
  C   C13       1.0  0.80611  0.48452  0.86148  1.0000
  C   C14       1.0  0.19389  0.51548  0.13852  1.0000
  C   C15       1.0  0.41758  0.16701  0.09436  1.0000
  C   C16       1.0  0.58241  0.83299  0.90564  1.0000
  C   C17       1.0  0.35603  0.10740  0.92546  1.0000
  C   C18       1.0  0.64397  0.89260  0.07454  1.0000
  C   C19       1.0  0.25789  0.95172  0.81956  1.0000
  C   C20       1.0  0.74212  0.04828  0.18044  1.0000
  C   C21       1.0  0.22466  0.86108  0.88629  1.0000
  C   C22       1.0  0.77534  0.13892  0.11371  1.0000
  C   C23       1.0  0.29352  0.92940  0.05683  1.0000
  C   C24       1.0  0.70648  0.07060  0.94317  1.0000
  C   C25       1.0  0.79642  0.67006  0.29263  1.0000
  C   C26       1.0  0.20358  0.32994  0.70737  1.0000
  C   C27       1.0  0.90323  0.59279  0.35985  1.0000
  C   C28       1.0  0.09677  0.40721  0.64015  1.0000
  S   S1        1.0  0.59874  0.61013  0.26746  1.0000
  S   S2        1.0  0.40127  0.38987  0.73254  1.0000
  I   I1        1.0  0.76496  0.03863  0.56304  1.0000
  I   I2        1.0  0.23505  0.96137  0.43696  1.0000
  N   N1        1.0  0.59883  0.37624  0.37612  1.0000
  N   N2        1.0  0.40117  0.62376  0.62388  1.0000
  N   N3        1.0  0.72901  0.44940  0.70110  1.0000
  N   N4        1.0  0.27099  0.55060  0.29890  1.0000
  N   N5        1.0  0.38818  0.07884  0.15949  1.0000
  N   N6        1.0  0.61182  0.92116  0.84051  1.0000
  N   N7        1.0  0.50758  0.42196  0.13988  1.0000
  N   N8        1.0  0.49242  0.57804  0.86012  1.0000
  N   N9        1.0  0.65226  0.63965  0.45570  1.0000
  N   N10       1.0  0.34774  0.36034  0.54429  1.0000
