data_image0
_chemical_formula_structural       Ag2H24C12S6Cl2O8
_chemical_formula_sum              "Ag2 H24 C12 S6 Cl2 O8"
_cell_length_a       8.38206
_cell_length_b       8.38199
_cell_length_c       8.38207
_cell_angle_alpha    82.4001
_cell_angle_beta     82.3991
_cell_angle_gamma    82.3997

_space_group_name_H-M_alt    "P 1"
_space_group_IT_number       1

loop_
  _space_group_symop_operation_xyz
  'x, y, z'

loop_
  _atom_site_type_symbol
  _atom_site_label
  _atom_site_symmetry_multiplicity
  _atom_site_fract_x
  _atom_site_fract_y
  _atom_site_fract_z
  _atom_site_occupancy
  Ag  Ag1       1.0  0.89812  0.89813  0.89813  1.0000
  Ag  Ag2       1.0  0.10187  0.10187  0.10187  1.0000
  H   H1        1.0  0.26044  0.61354  0.84399  1.0000
  H   H2        1.0  0.84400  0.26044  0.61354  1.0000
  H   H3        1.0  0.15601  0.38646  0.73956  1.0000
  H   H4        1.0  0.61353  0.84400  0.26043  1.0000
  H   H5        1.0  0.26043  0.84400  0.61353  1.0000
  H   H6        1.0  0.61354  0.26044  0.84400  1.0000
  H   H7        1.0  0.15600  0.73957  0.38646  1.0000
  H   H8        1.0  0.38648  0.15600  0.73956  1.0000
  H   H9        1.0  0.73957  0.38646  0.15600  1.0000
  H   H10       1.0  0.84400  0.61354  0.26043  1.0000
  H   H11       1.0  0.73957  0.15600  0.38647  1.0000
  H   H12       1.0  0.38646  0.73957  0.15599  1.0000
  H   H13       1.0  0.24908  0.44875  0.99931  1.0000
  H   H14       1.0  0.99931  0.24908  0.44874  1.0000
  H   H15       1.0  0.00069  0.55125  0.75091  1.0000
  H   H16       1.0  0.44874  0.99932  0.24908  1.0000
  H   H17       1.0  0.24908  0.99932  0.44874  1.0000
  H   H18       1.0  0.44874  0.24908  0.99931  1.0000
  H   H19       1.0  0.00069  0.75092  0.55125  1.0000
  H   H20       1.0  0.55126  0.00068  0.75092  1.0000
  H   H21       1.0  0.75092  0.55125  0.00068  1.0000
  H   H22       1.0  0.99932  0.44875  0.24907  1.0000
  H   H23       1.0  0.75092  0.00068  0.55126  1.0000
  H   H24       1.0  0.55126  0.75092  0.00069  1.0000
  C   C1        1.0  0.17648  0.53911  0.92305  1.0000
  C   C2        1.0  0.92306  0.17648  0.53910  1.0000
  C   C3        1.0  0.07694  0.46090  0.82352  1.0000
  C   C4        1.0  0.53910  0.92306  0.17647  1.0000
  C   C5        1.0  0.17647  0.92306  0.53910  1.0000
  C   C6        1.0  0.53911  0.17647  0.92306  1.0000
  C   C7        1.0  0.07694  0.82353  0.46089  1.0000
  C   C8        1.0  0.46090  0.07694  0.82353  1.0000
  C   C9        1.0  0.82353  0.46090  0.07693  1.0000
  C   C10       1.0  0.92306  0.53911  0.17647  1.0000
  C   C11       1.0  0.82353  0.07694  0.46090  1.0000
  C   C12       1.0  0.46089  0.82353  0.07694  1.0000
  S   S1        1.0  0.05729  0.67461  0.05728  1.0000
  S   S2        1.0  0.05729  0.05729  0.67460  1.0000
  S   S3        1.0  0.94272  0.32539  0.94270  1.0000
  S   S4        1.0  0.67460  0.05730  0.05729  1.0000
  S   S5        1.0  0.94271  0.94271  0.32540  1.0000
  S   S6        1.0  0.32540  0.94271  0.94271  1.0000
  Cl  Cl1       1.0  0.64606  0.64605  0.64605  1.0000
  Cl  Cl2       1.0  0.35395  0.35396  0.35395  1.0000
  O   O1        1.0  0.73690  0.73687  0.73691  1.0000
  O   O2        1.0  0.26311  0.26311  0.26310  1.0000
  O   O3        1.0  0.54540  0.54541  0.76213  1.0000
  O   O4        1.0  0.76214  0.54542  0.54539  1.0000
  O   O5        1.0  0.23787  0.45458  0.45460  1.0000
  O   O6        1.0  0.54542  0.76218  0.54542  1.0000
  O   O7        1.0  0.45460  0.23784  0.45459  1.0000
  O   O8        1.0  0.45460  0.45459  0.23786  1.0000
