data_image0
_chemical_formula_structural       Cu4H12C16I8N8
_chemical_formula_sum              "Cu4 H12 C16 I8 N8"
_cell_length_a       4.16703
_cell_length_b       12.9032
_cell_length_c       13.7992
_cell_angle_alpha    89.9996
_cell_angle_beta     90.0008
_cell_angle_gamma    92.7227

_space_group_name_H-M_alt    "P 1"
_space_group_IT_number       1

loop_
  _space_group_symop_operation_xyz
  'x, y, z'

loop_
  _atom_site_type_symbol
  _atom_site_label
  _atom_site_symmetry_multiplicity
  _atom_site_fract_x
  _atom_site_fract_y
  _atom_site_fract_z
  _atom_site_occupancy
  Cu  Cu1       1.0  0.51446  0.17600  0.67481  1.0000
  Cu  Cu2       1.0  0.51445  0.67599  0.82519  1.0000
  Cu  Cu3       1.0  0.48554  0.82400  0.32519  1.0000
  Cu  Cu4       1.0  0.48555  0.32401  0.17481  1.0000
  H   H1        1.0  0.74979  0.37658  0.59350  1.0000
  H   H2        1.0  0.74980  0.87658  0.90651  1.0000
  H   H3        1.0  0.25020  0.62342  0.40650  1.0000
  H   H4        1.0  0.25021  0.12342  0.09349  1.0000
  H   H5        1.0  0.28239  0.47526  0.90097  1.0000
  H   H6        1.0  0.28242  0.97526  0.59903  1.0000
  H   H7        1.0  0.71761  0.52475  0.09903  1.0000
  H   H8        1.0  0.71759  0.02474  0.40097  1.0000
  H   H9        1.0  0.30441  0.28959  0.85363  1.0000
  H   H10       1.0  0.30443  0.78960  0.64637  1.0000
  H   H11       1.0  0.69559  0.71041  0.14637  1.0000
  H   H12       1.0  0.69558  0.21040  0.35363  1.0000
  C   C1        1.0  0.64318  0.39896  0.66214  1.0000
  C   C2        1.0  0.64319  0.89897  0.83786  1.0000
  C   C3        1.0  0.35682  0.60104  0.33786  1.0000
  C   C4        1.0  0.35682  0.10104  0.16213  1.0000
  C   C5        1.0  0.62503  0.50288  0.68821  1.0000
  C   C6        1.0  0.62504  0.00288  0.81180  1.0000
  C   C7        1.0  0.37497  0.49711  0.31179  1.0000
  C   C8        1.0  0.37496  0.99711  0.18820  1.0000
  C   C9        1.0  0.38609  0.45360  0.83173  1.0000
  C   C10       1.0  0.38612  0.95361  0.66827  1.0000
  C   C11       1.0  0.61390  0.54639  0.16826  1.0000
  C   C12       1.0  0.61389  0.04639  0.33174  1.0000
  C   C13       1.0  0.39890  0.35042  0.80545  1.0000
  C   C14       1.0  0.39890  0.85042  0.69455  1.0000
  C   C15       1.0  0.60111  0.64959  0.19455  1.0000
  C   C16       1.0  0.60110  0.14959  0.30544  1.0000
  I   I1        1.0  0.01347  0.17056  0.55187  1.0000
  I   I2        1.0  0.01348  0.67056  0.94813  1.0000
  I   I3        1.0  0.98654  0.82944  0.44813  1.0000
  I   I4        1.0  0.98653  0.32944  0.05187  1.0000
  I   I5        1.0  0.78611  0.62112  0.59108  1.0000
  I   I6        1.0  0.78612  0.12112  0.90893  1.0000
  I   I7        1.0  0.21389  0.37888  0.40893  1.0000
  I   I8        1.0  0.21389  0.87888  0.09107  1.0000
  N   N1        1.0  0.52961  0.32155  0.72039  1.0000
  N   N2        1.0  0.52962  0.82154  0.77962  1.0000
  N   N3        1.0  0.47038  0.67845  0.27962  1.0000
  N   N4        1.0  0.47038  0.17845  0.22038  1.0000
  N   N5        1.0  0.49883  0.53188  0.77366  1.0000
  N   N6        1.0  0.49884  0.03187  0.72634  1.0000
  N   N7        1.0  0.50117  0.46813  0.22634  1.0000
  N   N8        1.0  0.50117  0.96812  0.27365  1.0000
