data_image0
_chemical_formula_structural       Cu4H12C16I8N8
_chemical_formula_sum              "Cu4 H12 C16 I8 N8"
_cell_length_a       4.07857
_cell_length_b       10.7403
_cell_length_c       17.5046
_cell_angle_alpha    90.0004
_cell_angle_beta     89.9995
_cell_angle_gamma    90.0004

_space_group_name_H-M_alt    "P 1"
_space_group_IT_number       1

loop_
  _space_group_symop_operation_xyz
  'x, y, z'

loop_
  _atom_site_type_symbol
  _atom_site_label
  _atom_site_symmetry_multiplicity
  _atom_site_fract_x
  _atom_site_fract_y
  _atom_site_fract_z
  _atom_site_occupancy
  Cu  Cu1       1.0  0.35138  0.72014  0.45218  1.0000
  Cu  Cu2       1.0  0.14863  0.27986  0.95219  1.0000
  Cu  Cu3       1.0  0.64864  0.22015  0.04781  1.0000
  Cu  Cu4       1.0  0.85137  0.77986  0.54781  1.0000
  H   H1        1.0  0.13385  0.45361  0.46420  1.0000
  H   H2        1.0  0.36614  0.54639  0.96420  1.0000
  H   H3        1.0  0.86616  0.95361  0.03580  1.0000
  H   H4        1.0  0.63384  0.04639  0.53580  1.0000
  H   H5        1.0  0.65292  0.46972  0.21360  1.0000
  H   H6        1.0  0.84712  0.53026  0.71360  1.0000
  H   H7        1.0  0.34709  0.96973  0.28640  1.0000
  H   H8        1.0  0.15285  0.03027  0.78640  1.0000
  H   H9        1.0  0.59160  0.66357  0.29415  1.0000
  H   H10       1.0  0.90845  0.33641  0.79415  1.0000
  H   H11       1.0  0.40842  0.16358  0.20584  1.0000
  H   H12       1.0  0.09155  0.83642  0.70584  1.0000
  C   C1        1.0  0.24873  0.45707  0.40789  1.0000
  C   C2        1.0  0.25128  0.54294  0.90789  1.0000
  C   C3        1.0  0.75128  0.95707  0.09211  1.0000
  C   C4        1.0  0.74872  0.04293  0.59211  1.0000
  C   C5        1.0  0.27939  0.35185  0.36126  1.0000
  C   C6        1.0  0.22062  0.64815  0.86127  1.0000
  C   C7        1.0  0.72064  0.85185  0.13873  1.0000
  C   C8        1.0  0.77936  0.14815  0.63874  1.0000
  C   C9        1.0  0.53573  0.46617  0.26964  1.0000
  C   C10       1.0  0.96430  0.53382  0.76964  1.0000
  C   C11       1.0  0.46429  0.96618  0.23035  1.0000
  C   C12       1.0  0.03569  0.03383  0.73036  1.0000
  C   C13       1.0  0.50577  0.57292  0.31416  1.0000
  C   C14       1.0  0.99426  0.42706  0.81415  1.0000
  C   C15       1.0  0.49424  0.07293  0.18584  1.0000
  C   C16       1.0  0.00573  0.92707  0.68585  1.0000
  I   I1        1.0  0.35789  0.64059  0.59263  1.0000
  I   I2        1.0  0.14211  0.35942  0.09263  1.0000
  I   I3        1.0  0.64210  0.14058  0.90737  1.0000
  I   I4        1.0  0.85790  0.85941  0.40737  1.0000
  I   I5        1.0  0.09388  0.17701  0.39734  1.0000
  I   I6        1.0  0.40610  0.82299  0.89733  1.0000
  I   I7        1.0  0.90612  0.67702  0.10266  1.0000
  I   I8        1.0  0.59386  0.32299  0.60267  1.0000
  N   N1        1.0  0.36585  0.56769  0.38410  1.0000
  N   N2        1.0  0.13417  0.43232  0.88410  1.0000
  N   N3        1.0  0.63416  0.06769  0.11590  1.0000
  N   N4        1.0  0.86582  0.93231  0.61590  1.0000
  N   N5        1.0  0.42378  0.35502  0.29326  1.0000
  N   N6        1.0  0.07624  0.64496  0.79326  1.0000
  N   N7        1.0  0.57624  0.85504  0.20674  1.0000
  N   N8        1.0  0.92374  0.14497  0.70675  1.0000
