data_image0
_chemical_formula_structural       Zn2H30C28N4O8
_chemical_formula_sum              "Zn2 H30 C28 N4 O8"
_cell_length_a       8.65819
_cell_length_b       9.44981
_cell_length_c       10.5739
_cell_angle_alpha    70.0081
_cell_angle_beta     80.2859
_cell_angle_gamma    79.3256

_space_group_name_H-M_alt    "P 1"
_space_group_IT_number       1

loop_
  _space_group_symop_operation_xyz
  'x, y, z'

loop_
  _atom_site_type_symbol
  _atom_site_label
  _atom_site_symmetry_multiplicity
  _atom_site_fract_x
  _atom_site_fract_y
  _atom_site_fract_z
  _atom_site_occupancy
  Zn  Zn1       1.0  0.48069  0.15827  0.93173  1.0000
  Zn  Zn2       1.0  0.51931  0.84173  0.06827  1.0000
  H   H1        1.0  0.19692  0.08504  0.37515  1.0000
  H   H2        1.0  0.80308  0.91496  0.62485  1.0000
  H   H3        1.0  0.94315  0.23625  0.32804  1.0000
  H   H4        1.0  0.05686  0.76375  0.67196  1.0000
  H   H5        1.0  0.08586  0.31400  0.19209  1.0000
  H   H6        1.0  0.91414  0.68600  0.80791  1.0000
  H   H7        1.0  0.83413  0.30030  0.11007  1.0000
  H   H8        1.0  0.16587  0.69970  0.88993  1.0000
  H   H9        1.0  0.99830  0.19040  0.04909  1.0000
  H   H10       1.0  0.00170  0.80960  0.95091  1.0000
  H   H11       1.0  0.76190  0.07018  0.29708  1.0000
  H   H12       1.0  0.23810  0.92982  0.70291  1.0000
  H   H13       1.0  0.03624  0.89388  0.16546  1.0000
  H   H14       1.0  0.96376  0.10612  0.83454  1.0000
  H   H15       1.0  0.89530  0.81397  0.30041  1.0000
  H   H16       1.0  0.10470  0.18604  0.69959  1.0000
  H   H17       1.0  0.14256  0.82792  0.38663  1.0000
  H   H18       1.0  0.85744  0.17208  0.61337  1.0000
  H   H19       1.0  0.97556  0.93873  0.44422  1.0000
  H   H20       1.0  0.02444  0.06127  0.55577  1.0000
  H   H21       1.0  0.31229  0.33970  0.69409  1.0000
  H   H22       1.0  0.68771  0.66030  0.30591  1.0000
  H   H23       1.0  0.30709  0.60145  0.51990  1.0000
  H   H24       1.0  0.69291  0.39855  0.48010  1.0000
  H   H25       1.0  0.60548  0.70655  0.75639  1.0000
  H   H26       1.0  0.39452  0.29345  0.24361  1.0000
  H   H27       1.0  0.60837  0.43742  0.91239  1.0000
  H   H28       1.0  0.39163  0.56258  0.08760  1.0000
  H   H29       1.0  0.40220  0.85102  0.43023  1.0000
  H   H30       1.0  0.59780  0.14898  0.56977  1.0000
  C   C1        1.0  0.27911  0.05223  0.18851  1.0000
  C   C2        1.0  0.72089  0.94777  0.81149  1.0000
  C   C3        1.0  0.13990  0.07180  0.29454  1.0000
  C   C4        1.0  0.86010  0.92820  0.70546  1.0000
  C   C5        1.0  0.02211  0.21531  0.24088  1.0000
  C   C6        1.0  0.97789  0.78470  0.75912  1.0000
  C   C7        1.0  0.92199  0.19878  0.14160  1.0000
  C   C8        1.0  0.07801  0.80122  0.85840  1.0000
  C   C9        1.0  0.83863  0.05699  0.20578  1.0000
  C   C10       1.0  0.16138  0.94301  0.79422  1.0000
  C   C11       1.0  0.95796  0.91358  0.25324  1.0000
  C   C12       1.0  0.04204  0.08643  0.74676  1.0000
  C   C13       1.0  0.05562  0.92984  0.35382  1.0000
  C   C14       1.0  0.94438  0.07017  0.64618  1.0000
  C   C15       1.0  0.72192  0.04121  0.12010  1.0000
  C   C16       1.0  0.27809  0.95879  0.87990  1.0000
  C   C17       1.0  0.37632  0.42530  0.70136  1.0000
  C   C18       1.0  0.62368  0.57470  0.29863  1.0000
  C   C19       1.0  0.37350  0.56985  0.60666  1.0000
  C   C20       1.0  0.62650  0.43015  0.39334  1.0000
  C   C21       1.0  0.45791  0.67426  0.62349  1.0000
  C   C22       1.0  0.54209  0.32574  0.37651  1.0000
  C   C23       1.0  0.54192  0.62820  0.73696  1.0000
  C   C24       1.0  0.45808  0.37180  0.26304  1.0000
  C   C25       1.0  0.54147  0.48079  0.82506  1.0000
  C   C26       1.0  0.45853  0.51921  0.17493  1.0000
  C   C27       1.0  0.45420  0.82641  0.52484  1.0000
  C   C28       1.0  0.54580  0.17359  0.47516  1.0000
  N   N1        1.0  0.46027  0.38107  0.80779  1.0000
  N   N2        1.0  0.53973  0.61893  0.19221  1.0000
  N   N3        1.0  0.50933  0.93069  0.55084  1.0000
  N   N4        1.0  0.49067  0.06931  0.44916  1.0000
  O   O1        1.0  0.31829  0.17137  0.09564  1.0000
  O   O2        1.0  0.68172  0.82863  0.90436  1.0000
  O   O3        1.0  0.34902  0.91756  0.20334  1.0000
  O   O4        1.0  0.65098  0.08244  0.79666  1.0000
  O   O5        1.0  0.66017  0.16184  0.03566  1.0000
  O   O6        1.0  0.33984  0.83816  0.96434  1.0000
  O   O7        1.0  0.68954  0.90797  0.14278  1.0000
  O   O8        1.0  0.31046  0.09204  0.85722  1.0000
