data_image0
_chemical_formula_structural       Ho2H44C38N12O26
_chemical_formula_sum              "Ho2 H44 C38 N12 O26"
_cell_length_a       8.24237
_cell_length_b       10.0576
_cell_length_c       15.441
_cell_angle_alpha    92.8426
_cell_angle_beta     92.3105
_cell_angle_gamma    102.975

_space_group_name_H-M_alt    "P 1"
_space_group_IT_number       1

loop_
  _space_group_symop_operation_xyz
  'x, y, z'

loop_
  _atom_site_type_symbol
  _atom_site_label
  _atom_site_symmetry_multiplicity
  _atom_site_fract_x
  _atom_site_fract_y
  _atom_site_fract_z
  _atom_site_occupancy
  Ho  Ho1       1.0  0.04930  0.14821  0.28772  1.0000
  Ho  Ho2       1.0  0.95070  0.85179  0.71228  1.0000
  H   H1        1.0  0.68338  0.05788  0.25700  1.0000
  H   H2        1.0  0.31662  0.94212  0.74300  1.0000
  H   H3        1.0  0.76757  0.13414  0.43982  1.0000
  H   H4        1.0  0.23242  0.86586  0.56018  1.0000
  H   H5        1.0  0.58989  0.16816  0.38127  1.0000
  H   H6        1.0  0.41011  0.83184  0.61873  1.0000
  H   H7        1.0  0.60527  0.99572  0.39543  1.0000
  H   H8        1.0  0.39472  0.00428  0.60457  1.0000
  H   H9        1.0  0.35633  0.17814  0.45717  1.0000
  H   H10       1.0  0.64366  0.82185  0.54284  1.0000
  H   H11       1.0  0.56019  0.28912  0.57763  1.0000
  H   H12       1.0  0.43981  0.71088  0.42237  1.0000
  H   H13       1.0  0.48987  0.47596  0.67581  1.0000
  H   H14       1.0  0.51012  0.52404  0.32420  1.0000
  H   H15       1.0  0.21250  0.53338  0.65160  1.0000
  H   H16       1.0  0.78749  0.46662  0.34840  1.0000
  H   H17       1.0  0.95092  0.47495  0.59421  1.0000
  H   H18       1.0  0.04907  0.52505  0.40579  1.0000
  H   H19       1.0  0.89230  0.35387  0.50329  1.0000
  H   H20       1.0  0.10770  0.64612  0.49671  1.0000
  H   H21       1.0  0.77449  0.77627  0.25939  1.0000
  H   H22       1.0  0.22551  0.22373  0.74061  1.0000
  H   H23       1.0  0.60477  0.57010  0.17360  1.0000
  H   H24       1.0  0.39524  0.42990  0.82640  1.0000
  H   H25       1.0  0.63984  0.54507  0.01256  1.0000
  H   H26       1.0  0.36017  0.45493  0.98744  1.0000
  H   H27       1.0  0.84692  0.72682  0.94465  1.0000
  H   H28       1.0  0.15308  0.27318  0.05535  1.0000
  H   H29       1.0  0.08561  0.88884  0.96460  1.0000
  H   H30       1.0  0.91439  0.11115  0.03540  1.0000
  H   H31       1.0  0.13922  0.98812  0.06626  1.0000
  H   H32       1.0  0.86078  0.01188  0.93374  1.0000
  H   H33       1.0  0.37921  0.83308  0.28201  1.0000
  H   H34       1.0  0.62078  0.16693  0.71799  1.0000
  H   H35       1.0  0.16163  0.62807  0.22756  1.0000
  H   H36       1.0  0.83837  0.37194  0.77243  1.0000
  H   H37       1.0  0.11910  0.56770  0.06667  1.0000
  H   H38       1.0  0.88090  0.43230  0.93333  1.0000
  H   H39       1.0  0.29986  0.71597  0.96603  1.0000
  H   H40       1.0  0.70014  0.28403  0.03397  1.0000
  H   H41       1.0  0.52475  0.87545  0.94390  1.0000
  H   H42       1.0  0.47525  0.12455  0.05610  1.0000
  H   H43       1.0  0.65827  0.96104  0.03408  1.0000
  H   H44       1.0  0.34173  0.03896  0.96591  1.0000
  C   C1        1.0  0.67646  0.09964  0.38527  1.0000
  C   C2        1.0  0.32353  0.90036  0.61473  1.0000
  C   C3        1.0  0.17635  0.29543  0.48669  1.0000
  C   C4        1.0  0.82364  0.70456  0.51331  1.0000
  C   C5        1.0  0.33046  0.25700  0.50178  1.0000
  C   C6        1.0  0.66953  0.74299  0.49822  1.0000
  C   C7        1.0  0.44181  0.31942  0.56828  1.0000
  C   C8        1.0  0.55819  0.68057  0.43172  1.0000
  C   C9        1.0  0.40324  0.42186  0.62416  1.0000
  C   C10       1.0  0.59675  0.57813  0.37585  1.0000
  C   C11       1.0  0.25314  0.45683  0.61074  1.0000
  C   C12       1.0  0.74685  0.54317  0.38926  1.0000
  C   C13       1.0  0.98729  0.44144  0.53071  1.0000
  C   C14       1.0  0.01270  0.55855  0.46929  1.0000
  C   C15       1.0  0.89944  0.86362  0.14964  1.0000
  C   C16       1.0  0.10057  0.13638  0.85036  1.0000
  C   C17       1.0  0.78445  0.76098  0.18972  1.0000
  C   C18       1.0  0.21555  0.23902  0.81028  1.0000
  C   C19       1.0  0.69114  0.64888  0.14187  1.0000
  C   C20       1.0  0.30887  0.35112  0.85813  1.0000
  C   C21       1.0  0.70989  0.63365  0.05174  1.0000
  C   C22       1.0  0.29012  0.36635  0.94826  1.0000
  C   C23       1.0  0.82380  0.73081  0.01346  1.0000
  C   C24       1.0  0.17620  0.26919  0.98654  1.0000
  C   C25       1.0  0.03880  0.94359  0.01765  1.0000
  C   C26       1.0  0.96121  0.05641  0.98234  1.0000
  C   C27       1.0  0.45964  0.88912  0.15528  1.0000
  C   C28       1.0  0.54037  0.11089  0.84471  1.0000
  C   C29       1.0  0.35949  0.80322  0.21307  1.0000
  C   C30       1.0  0.64051  0.19679  0.78693  1.0000
  C   C31       1.0  0.23917  0.69074  0.18235  1.0000
  C   C32       1.0  0.76084  0.30927  0.81765  1.0000
  C   C33       1.0  0.21444  0.65545  0.09218  1.0000
  C   C34       1.0  0.78556  0.34455  0.90782  1.0000
  C   C35       1.0  0.31171  0.73615  0.03627  1.0000
  C   C36       1.0  0.68829  0.26386  0.96373  1.0000
  C   C37       1.0  0.53049  0.93436  0.00598  1.0000
  C   C38       1.0  0.46952  0.06564  0.99401  1.0000
  N   N1        1.0  0.93300  0.35287  0.19175  1.0000
  N   N2        1.0  0.06700  0.64713  0.80825  1.0000
  N   N3        1.0  0.36781  0.27829  0.22192  1.0000
  N   N4        1.0  0.63220  0.72171  0.77809  1.0000
  N   N5        1.0  0.14839  0.93101  0.37367  1.0000
  N   N6        1.0  0.85161  0.06899  0.62633  1.0000
  N   N7        1.0  0.14293  0.39575  0.54425  1.0000
  N   N8        1.0  0.85707  0.60425  0.45576  1.0000
  N   N9        1.0  0.91585  0.84273  0.06071  1.0000
  N   N10       1.0  0.08416  0.15727  0.93929  1.0000
  N   N11       1.0  0.42880  0.84912  0.06660  1.0000
  N   N12       1.0  0.57120  0.15089  0.93340  1.0000
  O   O1        1.0  0.99284  0.37811  0.27067  1.0000
  O   O2        1.0  0.00717  0.62189  0.72933  1.0000
  O   O3        1.0  0.92561  0.23113  0.15954  1.0000
  O   O4        1.0  0.07439  0.76887  0.84046  1.0000
  O   O5        1.0  0.88732  0.43985  0.14925  1.0000
  O   O6        1.0  0.11268  0.56016  0.85075  1.0000
  O   O7        1.0  0.32297  0.31320  0.29692  1.0000
  O   O8        1.0  0.67704  0.68680  0.70309  1.0000
  O   O9        1.0  0.26114  0.18367  0.17776  1.0000
  O   O10       1.0  0.73886  0.81633  0.82224  1.0000
  O   O11       1.0  0.50360  0.33265  0.19369  1.0000
  O   O12       1.0  0.49640  0.66735  0.80632  1.0000
  O   O13       1.0  0.99752  0.94309  0.37477  1.0000
  O   O14       1.0  0.00248  0.05690  0.62523  1.0000
  O   O15       1.0  0.25200  0.02782  0.33956  1.0000
  O   O16       1.0  0.74800  0.97218  0.66044  1.0000
  O   O17       1.0  0.19465  0.83215  0.40275  1.0000
  O   O18       1.0  0.80536  0.16785  0.59725  1.0000
  O   O19       1.0  0.76517  0.10089  0.30712  1.0000
  O   O20       1.0  0.23483  0.89911  0.69288  1.0000
  O   O21       1.0  0.06951  0.24601  0.42482  1.0000
  O   O22       1.0  0.93048  0.75398  0.57518  1.0000
  O   O23       1.0  0.98799  0.97116  0.18826  1.0000
  O   O24       1.0  0.01201  0.02884  0.81174  1.0000
  O   O25       1.0  0.57126  0.99546  0.17566  1.0000
  O   O26       1.0  0.42874  0.00454  0.82434  1.0000
