data_image0
_chemical_formula_structural       Er2H42C54O12
_chemical_formula_sum              "Er2 H42 C54 O12"
_cell_length_a       7.84594
_cell_length_b       11.3161
_cell_length_c       13.048
_cell_angle_alpha    94.2352
_cell_angle_beta     90
_cell_angle_gamma    90

_space_group_name_H-M_alt    "P 1"
_space_group_IT_number       1

loop_
  _space_group_symop_operation_xyz
  'x, y, z'

loop_
  _atom_site_type_symbol
  _atom_site_label
  _atom_site_symmetry_multiplicity
  _atom_site_fract_x
  _atom_site_fract_y
  _atom_site_fract_z
  _atom_site_occupancy
  Er  Er1       1.0  0.45711  0.95894  0.52566  1.0000
  Er  Er2       1.0  0.95711  0.04106  0.47434  1.0000
  H   H1        1.0  0.78234  0.62581  0.60879  1.0000
  H   H2        1.0  0.28235  0.37419  0.39122  1.0000
  H   H3        1.0  0.12029  0.76474  0.60286  1.0000
  H   H4        1.0  0.62029  0.23526  0.39713  1.0000
  H   H5        1.0  0.91637  0.45784  0.59698  1.0000
  H   H6        1.0  0.41638  0.54216  0.40303  1.0000
  H   H7        1.0  0.07898  0.27764  0.62749  1.0000
  H   H8        1.0  0.57899  0.72236  0.37252  1.0000
  H   H9        1.0  0.38833  0.28919  0.66578  1.0000
  H   H10       1.0  0.88834  0.71081  0.33423  1.0000
  H   H11       1.0  0.53836  0.48406  0.67002  1.0000
  H   H12       1.0  0.03837  0.51594  0.32999  1.0000
  H   H13       1.0  0.37489  0.66685  0.63800  1.0000
  H   H14       1.0  0.87489  0.33315  0.36200  1.0000
  H   H15       1.0  0.54893  0.87291  0.24140  1.0000
  H   H16       1.0  0.04892  0.12709  0.75861  1.0000
  H   H17       1.0  0.78157  0.04790  0.13651  1.0000
  H   H18       1.0  0.28156  0.95209  0.86348  1.0000
  H   H19       1.0  0.50923  0.76761  0.09532  1.0000
  H   H20       1.0  0.00923  0.23239  0.90468  1.0000
  H   H21       1.0  0.44716  0.67236  0.92331  1.0000
  H   H22       1.0  0.94715  0.32763  0.07669  1.0000
  H   H23       1.0  0.55052  0.76378  0.76619  1.0000
  H   H24       1.0  0.05051  0.23622  0.23381  1.0000
  H   H25       1.0  0.71801  0.94992  0.78298  1.0000
  H   H26       1.0  0.21801  0.05008  0.21702  1.0000
  H   H27       1.0  0.78053  0.04674  0.95658  1.0000
  H   H28       1.0  0.28053  0.95326  0.04342  1.0000
  H   H29       1.0  0.31652  0.68259  0.26271  1.0000
  H   H30       1.0  0.81652  0.31741  0.73729  1.0000
  H   H31       1.0  0.01945  0.83057  0.18523  1.0000
  H   H32       1.0  0.51945  0.16943  0.81477  1.0000
  H   H33       1.0  0.26735  0.54203  0.13833  1.0000
  H   H34       1.0  0.76735  0.45797  0.86167  1.0000
  H   H35       1.0  0.27731  0.42726  0.97049  1.0000
  H   H36       1.0  0.77732  0.57273  0.02952  1.0000
  H   H37       1.0  0.13513  0.50324  0.81798  1.0000
  H   H38       1.0  0.63515  0.49675  0.18203  1.0000
  H   H39       1.0  0.98185  0.69712  0.83490  1.0000
  H   H40       1.0  0.48187  0.30287  0.16510  1.0000
  H   H41       1.0  0.97193  0.81307  0.00367  1.0000
  H   H42       1.0  0.47193  0.18694  0.99633  1.0000
  C   C1        1.0  0.79287  0.81489  0.58965  1.0000
  C   C2        1.0  0.29288  0.18511  0.41035  1.0000
  C   C3        1.0  0.87100  0.69935  0.60389  1.0000
  C   C4        1.0  0.37101  0.30066  0.39611  1.0000
  C   C5        1.0  0.04184  0.68557  0.60730  1.0000
  C   C6        1.0  0.54184  0.31443  0.39269  1.0000
  C   C7        1.0  0.13349  0.57592  0.61895  1.0000
  C   C8        1.0  0.63350  0.42408  0.38105  1.0000
  C   C9        1.0  0.05182  0.46473  0.61520  1.0000
  C   C10       1.0  0.55183  0.53527  0.38481  1.0000
  C   C11       1.0  0.14338  0.36302  0.63241  1.0000
  C   C12       1.0  0.64339  0.63698  0.36759  1.0000
  C   C13       1.0  0.31821  0.36978  0.65316  1.0000
  C   C14       1.0  0.81822  0.63021  0.34684  1.0000
  C   C15       1.0  0.40169  0.47895  0.65494  1.0000
  C   C16       1.0  0.90170  0.52105  0.34506  1.0000
  C   C17       1.0  0.31056  0.58123  0.63727  1.0000
  C   C18       1.0  0.81056  0.41876  0.36273  1.0000
  C   C19       1.0  0.71408  0.00146  0.32458  1.0000
  C   C20       1.0  0.21408  0.99855  0.67542  1.0000
  C   C21       1.0  0.63909  0.94442  0.23113  1.0000
  C   C22       1.0  0.13907  0.05559  0.76887  1.0000
  C   C23       1.0  0.69187  0.97387  0.13760  1.0000
  C   C24       1.0  0.19186  0.02613  0.86240  1.0000
  C   C25       1.0  0.64762  0.91543  0.03821  1.0000
  C   C26       1.0  0.14762  0.08456  0.96179  1.0000
  C   C27       1.0  0.55390  0.80886  0.02731  1.0000
  C   C28       1.0  0.05390  0.19113  0.97269  1.0000
  C   C29       1.0  0.51975  0.75465  0.93035  1.0000
  C   C30       1.0  0.01975  0.24534  0.06965  1.0000
  C   C31       1.0  0.57877  0.80512  0.84224  1.0000
  C   C32       1.0  0.07877  0.19488  0.15776  1.0000
  C   C33       1.0  0.67248  0.91040  0.85155  1.0000
  C   C34       1.0  0.17248  0.08960  0.14844  1.0000
  C   C35       1.0  0.70669  0.96487  0.94862  1.0000
  C   C36       1.0  0.20669  0.03512  0.05137  1.0000
  C   C37       1.0  0.19902  0.82752  0.35691  1.0000
  C   C38       1.0  0.69903  0.17249  0.64309  1.0000
  C   C39       1.0  0.21450  0.74809  0.26280  1.0000
  C   C40       1.0  0.71450  0.25191  0.73720  1.0000
  C   C41       1.0  0.11371  0.75905  0.17996  1.0000
  C   C42       1.0  0.61370  0.24095  0.82004  1.0000
  C   C43       1.0  0.12030  0.68694  0.08293  1.0000
  C   C44       1.0  0.62030  0.31306  0.91707  1.0000
  C   C45       1.0  0.20570  0.57710  0.07207  1.0000
  C   C46       1.0  0.70569  0.42290  0.92793  1.0000
  C   C47       1.0  0.21054  0.51190  0.97750  1.0000
  C   C48       1.0  0.71055  0.48809  0.02250  1.0000
  C   C49       1.0  0.13011  0.55462  0.89190  1.0000
  C   C50       1.0  0.63012  0.44538  0.10810  1.0000
  C   C51       1.0  0.04433  0.66314  0.90135  1.0000
  C   C52       1.0  0.54432  0.33686  0.09865  1.0000
  C   C53       1.0  0.03879  0.72836  0.99618  1.0000
  C   C54       1.0  0.53879  0.27164  0.00382  1.0000
  O   O1        1.0  0.63011  0.81964  0.58446  1.0000
  O   O2        1.0  0.13011  0.18037  0.41553  1.0000
  O   O3        1.0  0.88832  0.90601  0.58333  1.0000
  O   O4        1.0  0.38831  0.09399  0.41667  1.0000
  O   O5        1.0  0.68478  0.95635  0.41252  1.0000
  O   O6        1.0  0.18478  0.04366  0.58748  1.0000
  O   O7        1.0  0.81890  0.08699  0.32326  1.0000
  O   O8        1.0  0.31890  0.91302  0.67674  1.0000
  O   O9        1.0  0.31897  0.82425  0.42358  1.0000
  O   O10       1.0  0.81898  0.17576  0.57642  1.0000
  O   O11       1.0  0.07048  0.89614  0.36872  1.0000
  O   O12       1.0  0.57049  0.10387  0.63128  1.0000
