data_image0
_chemical_formula_structural       Mn4H28C28N32
_chemical_formula_sum              "Mn4 H28 C28 N32"
_cell_length_a       7.63619
_cell_length_b       8.40466
_cell_length_c       17.2525
_cell_angle_alpha    95.9943
_cell_angle_beta     90.0069
_cell_angle_gamma    117.01

_space_group_name_H-M_alt    "P 1"
_space_group_IT_number       1

loop_
  _space_group_symop_operation_xyz
  'x, y, z'

loop_
  _atom_site_type_symbol
  _atom_site_label
  _atom_site_symmetry_multiplicity
  _atom_site_fract_x
  _atom_site_fract_y
  _atom_site_fract_z
  _atom_site_occupancy
  Mn  Mn1       1.0  0.75571  0.77513  0.72894  1.0000
  Mn  Mn2       1.0  0.98059  0.22524  0.77109  1.0000
  Mn  Mn3       1.0  0.24453  0.22500  0.26931  1.0000
  Mn  Mn4       1.0  0.01961  0.77486  0.23063  1.0000
  H   H1        1.0  0.53430  0.39526  0.62705  1.0000
  H   H2        1.0  0.13823  0.60511  0.87309  1.0000
  H   H3        1.0  0.46428  0.60575  0.37194  1.0000
  H   H4        1.0  0.85913  0.39410  0.12796  1.0000
  H   H5        1.0  0.26192  0.23743  0.52293  1.0000
  H   H6        1.0  0.02335  0.76232  0.97731  1.0000
  H   H7        1.0  0.73648  0.76410  0.47594  1.0000
  H   H8        1.0  0.97314  0.23612  0.02391  1.0000
  H   H9        1.0  0.11148  0.41573  0.46901  1.0000
  H   H10       1.0  0.69476  0.58337  0.03119  1.0000
  H   H11       1.0  0.88821  0.58701  0.52988  1.0000
  H   H12       1.0  0.30182  0.41352  0.96997  1.0000
  H   H13       1.0  0.20979  0.73047  0.53124  1.0000
  H   H14       1.0  0.47884  0.26871  0.96882  1.0000
  H   H15       1.0  0.79084  0.27225  0.46768  1.0000
  H   H16       1.0  0.51895  0.72825  0.03225  1.0000
  H   H17       1.0  0.47073  0.15065  0.67327  1.0000
  H   H18       1.0  0.32043  0.84888  0.82673  1.0000
  H   H19       1.0  0.52974  0.85107  0.32679  1.0000
  H   H20       1.0  0.67862  0.14920  0.17323  1.0000
  H   H21       1.0  0.23016  0.97155  0.65255  1.0000
  H   H22       1.0  0.25826  0.02761  0.84749  1.0000
  H   H23       1.0  0.77039  0.03032  0.34646  1.0000
  H   H24       1.0  0.74029  0.97011  0.15353  1.0000
  H   H25       1.0  0.39762  0.02942  0.57703  1.0000
  H   H26       1.0  0.36840  0.97007  0.92297  1.0000
  H   H27       1.0  0.60481  0.97347  0.42271  1.0000
  H   H28       1.0  0.63131  0.02682  0.07731  1.0000
  C   C1        1.0  0.45203  0.46116  0.60623  1.0000
  C   C2        1.0  0.99012  0.53894  0.89388  1.0000
  C   C3        1.0  0.54674  0.53995  0.39271  1.0000
  C   C4        1.0  0.00733  0.46009  0.10719  1.0000
  C   C5        1.0  0.30376  0.37557  0.54733  1.0000
  C   C6        1.0  0.92725  0.62418  0.95287  1.0000
  C   C7        1.0  0.69511  0.62607  0.45154  1.0000
  C   C8        1.0  0.06972  0.37417  0.04831  1.0000
  C   C9        1.0  0.21856  0.47456  0.51846  1.0000
  C   C10       1.0  0.74322  0.52485  0.98171  1.0000
  C   C11       1.0  0.78121  0.52781  0.48041  1.0000
  C   C12       1.0  0.25396  0.47260  0.01946  1.0000
  C   C13       1.0  0.27295  0.64934  0.55278  1.0000
  C   C14       1.0  0.62303  0.35010  0.94729  1.0000
  C   C15       1.0  0.72725  0.35310  0.44616  1.0000
  C   C16       1.0  0.37458  0.64730  0.05376  1.0000
  C   C17       1.0  0.41092  0.71963  0.61621  1.0000
  C   C18       1.0  0.69092  0.28019  0.88381  1.0000
  C   C19       1.0  0.58869  0.28195  0.38293  1.0000
  C   C20       1.0  0.30705  0.71822  0.11703  1.0000
  C   C21       1.0  0.45791  0.89195  0.66325  1.0000
  C   C22       1.0  0.56580  0.10785  0.83674  1.0000
  C   C23       1.0  0.54187  0.10932  0.33636  1.0000
  C   C24       1.0  0.43267  0.89080  0.16363  1.0000
  C   C25       1.0  0.38629  0.01834  0.63978  1.0000
  C   C26       1.0  0.36798  0.98115  0.86022  1.0000
  C   C27       1.0  0.61465  0.98377  0.35987  1.0000
  C   C28       1.0  0.63094  0.01651  0.14014  1.0000
  N   N1        1.0  0.50600  0.62877  0.63958  1.0000
  N   N2        1.0  0.87676  0.37134  0.86045  1.0000
  N   N3        1.0  0.49274  0.37212  0.35946  1.0000
  N   N4        1.0  0.12101  0.62789  0.14049  1.0000
  N   N5        1.0  0.56274  0.92000  0.72746  1.0000
  N   N6        1.0  0.64263  0.08002  0.77250  1.0000
  N   N7        1.0  0.43584  0.08011  0.27239  1.0000
  N   N8        1.0  0.35580  0.91991  0.22761  1.0000
  N   N9        1.0  0.94224  0.02592  0.66982  1.0000
  N   N10       1.0  0.91659  0.97446  0.83019  1.0000
  N   N11       1.0  0.05871  0.97676  0.33075  1.0000
  N   N12       1.0  0.08192  0.02313  0.16919  1.0000
  N   N13       1.0  0.88350  0.04113  0.60728  1.0000
  N   N14       1.0  0.84264  0.95921  0.89274  1.0000
  N   N15       1.0  0.11832  0.96266  0.39328  1.0000
  N   N16       1.0  0.15561  0.03724  0.10667  1.0000
  N   N17       1.0  0.82443  0.05446  0.54714  1.0000
  N   N18       1.0  0.77029  0.94588  0.95286  1.0000
  N   N19       1.0  0.17777  0.94992  0.45343  1.0000
  N   N20       1.0  0.22777  0.04994  0.04651  1.0000
  N   N21       1.0  0.92895  0.65541  0.68602  1.0000
  N   N22       1.0  0.27359  0.34533  0.81401  1.0000
  N   N23       1.0  0.06934  0.34134  0.30695  1.0000
  N   N24       1.0  0.72810  0.65820  0.19293  1.0000
  N   N25       1.0  0.96329  0.53280  0.69140  1.0000
  N   N26       1.0  0.43069  0.46759  0.80860  1.0000
  N   N27       1.0  0.04450  0.47067  0.30643  1.0000
  N   N28       1.0  0.57374  0.52918  0.19354  1.0000
  N   N29       1.0  0.00401  0.41355  0.69319  1.0000
  N   N30       1.0  0.59083  0.58654  0.80677  1.0000
  N   N31       1.0  0.01372  0.59672  0.30901  1.0000
  N   N32       1.0  0.41672  0.40344  0.19103  1.0000
