data_image0
_chemical_formula_structural       Na4H24C36S4O12
_chemical_formula_sum              "Na4 H24 C36 S4 O12"
_cell_length_a       5.7858
_cell_length_b       8.4128
_cell_length_c       17.1993
_cell_angle_alpha    90.0005
_cell_angle_beta     97.6709
_cell_angle_gamma    89.9995

_space_group_name_H-M_alt    "P 1"
_space_group_IT_number       1

loop_
  _space_group_symop_operation_xyz
  'x, y, z'

loop_
  _atom_site_type_symbol
  _atom_site_label
  _atom_site_symmetry_multiplicity
  _atom_site_fract_x
  _atom_site_fract_y
  _atom_site_fract_z
  _atom_site_occupancy
  Na  Na1       1.0  0.12545  0.18401  0.98070  1.0000
  Na  Na2       1.0  0.37455  0.68400  0.01931  1.0000
  Na  Na3       1.0  0.87455  0.81600  0.01931  1.0000
  Na  Na4       1.0  0.62545  0.31600  0.98069  1.0000
  H   H1        1.0  0.51720  0.14640  0.61521  1.0000
  H   H2        1.0  0.98276  0.64641  0.38479  1.0000
  H   H3        1.0  0.48281  0.85360  0.38479  1.0000
  H   H4        1.0  0.01724  0.35358  0.61521  1.0000
  H   H5        1.0  0.20062  0.83788  0.60835  1.0000
  H   H6        1.0  0.29934  0.33790  0.39164  1.0000
  H   H7        1.0  0.79938  0.16210  0.39165  1.0000
  H   H8        1.0  0.70066  0.66209  0.60836  1.0000
  H   H9        1.0  0.65161  0.16147  0.51555  1.0000
  H   H10       1.0  0.84839  0.66147  0.48444  1.0000
  H   H11       1.0  0.34838  0.83852  0.48445  1.0000
  H   H12       1.0  0.15161  0.33854  0.51556  1.0000
  H   H13       1.0  0.10254  0.85235  0.71025  1.0000
  H   H14       1.0  0.39746  0.35235  0.28974  1.0000
  H   H15       1.0  0.89748  0.14765  0.28975  1.0000
  H   H16       1.0  0.60253  0.64766  0.71025  1.0000
  H   H17       1.0  0.37918  0.14758  0.74452  1.0000
  H   H18       1.0  0.12080  0.64758  0.25549  1.0000
  H   H19       1.0  0.62084  0.85242  0.25548  1.0000
  H   H20       1.0  0.87919  0.35241  0.74451  1.0000
  H   H21       1.0  0.96109  0.85245  0.83707  1.0000
  H   H22       1.0  0.53893  0.35245  0.16293  1.0000
  H   H23       1.0  0.03893  0.14755  0.16293  1.0000
  H   H24       1.0  0.46107  0.64757  0.83707  1.0000
  C   C1        1.0  0.82205  0.99909  0.65103  1.0000
  C   C2        1.0  0.67793  0.49909  0.34897  1.0000
  C   C3        1.0  0.17796  0.00091  0.34897  1.0000
  C   C4        1.0  0.32206  0.50092  0.65102  1.0000
  C   C5        1.0  0.91178  0.99968  0.57430  1.0000
  C   C6        1.0  0.58820  0.49969  0.42570  1.0000
  C   C7        1.0  0.08821  0.00031  0.42570  1.0000
  C   C8        1.0  0.41180  0.50031  0.57430  1.0000
  C   C9        1.0  0.61699  0.08101  0.66306  1.0000
  C   C10       1.0  0.88298  0.58103  0.33694  1.0000
  C   C11       1.0  0.38301  0.91898  0.33694  1.0000
  C   C12       1.0  0.11701  0.41898  0.66306  1.0000
  C   C13       1.0  0.10984  0.91068  0.56163  1.0000
  C   C14       1.0  0.39013  0.41070  0.43836  1.0000
  C   C15       1.0  0.89015  0.08931  0.43837  1.0000
  C   C16       1.0  0.60987  0.58930  0.56164  1.0000
  C   C17       1.0  0.80482  0.08911  0.51019  1.0000
  C   C18       1.0  0.69518  0.58911  0.48981  1.0000
  C   C19       1.0  0.19516  0.91087  0.48981  1.0000
  C   C20       1.0  0.30482  0.41089  0.51019  1.0000
  C   C21       1.0  0.94218  0.91680  0.71559  1.0000
  C   C22       1.0  0.55781  0.41680  0.28441  1.0000
  C   C23       1.0  0.05784  0.08320  0.28441  1.0000
  C   C24       1.0  0.44219  0.58322  0.71558  1.0000
  C   C25       1.0  0.53620  0.08197  0.73601  1.0000
  C   C26       1.0  0.96377  0.58198  0.26400  1.0000
  C   C27       1.0  0.46381  0.91803  0.26400  1.0000
  C   C28       1.0  0.03622  0.41802  0.73600  1.0000
  C   C29       1.0  0.86392  0.91689  0.78844  1.0000
  C   C30       1.0  0.63608  0.41689  0.21156  1.0000
  C   C31       1.0  0.13609  0.08311  0.21156  1.0000
  C   C32       1.0  0.36391  0.58313  0.78843  1.0000
  C   C33       1.0  0.66013  0.99909  0.79855  1.0000
  C   C34       1.0  0.83987  0.49910  0.20146  1.0000
  C   C35       1.0  0.33989  0.00090  0.20145  1.0000
  C   C36       1.0  0.16012  0.50091  0.79855  1.0000
  S   S1        1.0  0.57178  0.00123  0.89361  1.0000
  S   S2        1.0  0.92822  0.50123  0.10639  1.0000
  S   S3        1.0  0.42822  0.99876  0.10640  1.0000
  S   S4        1.0  0.07179  0.49877  0.89360  1.0000
  O   O1        1.0  0.52034  0.83723  0.91530  1.0000
  O   O2        1.0  0.97968  0.33723  0.08470  1.0000
  O   O3        1.0  0.47968  0.16277  0.08470  1.0000
  O   O4        1.0  0.02034  0.66278  0.91529  1.0000
  O   O5        1.0  0.77717  0.05982  0.94687  1.0000
  O   O6        1.0  0.72283  0.55981  0.05313  1.0000
  O   O7        1.0  0.22282  0.94019  0.05314  1.0000
  O   O8        1.0  0.27717  0.44019  0.94686  1.0000
  O   O9        1.0  0.37383  0.11073  0.88989  1.0000
  O   O10       1.0  0.12615  0.61073  0.11011  1.0000
  O   O11       1.0  0.62615  0.88926  0.11011  1.0000
  O   O12       1.0  0.87384  0.38928  0.88989  1.0000
