data_image0
_chemical_formula_structural       Ba2H20C8N16O12
_chemical_formula_sum              "Ba2 H20 C8 N16 O12"
_cell_length_a       7.66805
_cell_length_b       7.79323
_cell_length_c       11.7832
_cell_angle_alpha    71.1545
_cell_angle_beta     85.6405
_cell_angle_gamma    63.8363

_space_group_name_H-M_alt    "P 1"
_space_group_IT_number       1

loop_
  _space_group_symop_operation_xyz
  'x, y, z'

loop_
  _atom_site_type_symbol
  _atom_site_label
  _atom_site_symmetry_multiplicity
  _atom_site_fract_x
  _atom_site_fract_y
  _atom_site_fract_z
  _atom_site_occupancy
  Ba  Ba1       1.0  0.31050  0.79176  0.03013  1.0000
  Ba  Ba2       1.0  0.68950  0.20824  0.96987  1.0000
  H   H1        1.0  0.53841  0.71626  0.45605  1.0000
  H   H2        1.0  0.46159  0.28374  0.54395  1.0000
  H   H3        1.0  0.89519  0.37465  0.49798  1.0000
  H   H4        1.0  0.10481  0.62536  0.50202  1.0000
  H   H5        1.0  0.25989  0.37907  0.06099  1.0000
  H   H6        1.0  0.74011  0.62093  0.93901  1.0000
  H   H7        1.0  0.23366  0.47177  0.91815  1.0000
  H   H8        1.0  0.76634  0.52823  0.08185  1.0000
  H   H9        1.0  0.09211  0.21728  0.05627  1.0000
  H   H10       1.0  0.90789  0.78272  0.94373  1.0000
  H   H11       1.0  0.07692  0.29313  0.91283  1.0000
  H   H12       1.0  0.92308  0.70687  0.08717  1.0000
  H   H13       1.0  0.61321  0.80812  0.22203  1.0000
  H   H14       1.0  0.38679  0.19188  0.77797  1.0000
  H   H15       1.0  0.41581  0.01046  0.19037  1.0000
  H   H16       1.0  0.58419  0.98954  0.80963  1.0000
  H   H17       1.0  0.97663  0.93787  0.25061  1.0000
  H   H18       1.0  0.02338  0.06213  0.74939  1.0000
  H   H19       1.0  0.16941  0.72360  0.29815  1.0000
  H   H20       1.0  0.83059  0.27640  0.70185  1.0000
  C   C1        1.0  0.06867  0.32830  0.24035  1.0000
  C   C2        1.0  0.93133  0.67170  0.75965  1.0000
  C   C3        1.0  0.51465  0.69442  0.55052  1.0000
  C   C4        1.0  0.48535  0.30558  0.44948  1.0000
  C   C5        1.0  0.38187  0.74400  0.72202  1.0000
  C   C6        1.0  0.61813  0.25600  0.27798  1.0000
  C   C7        1.0  0.92540  0.39186  0.40458  1.0000
  C   C8        1.0  0.07460  0.60814  0.59542  1.0000
  N   N1        1.0  0.21542  0.01367  0.53725  1.0000
  N   N2        1.0  0.78458  0.98633  0.46275  1.0000
  N   N3        1.0  0.22702  0.06535  0.42473  1.0000
  N   N4        1.0  0.77298  0.93465  0.57527  1.0000
  N   N5        1.0  0.07979  0.24903  0.36628  1.0000
  N   N6        1.0  0.92021  0.75097  0.63372  1.0000
  N   N7        1.0  0.36264  0.83069  0.59389  1.0000
  N   N8        1.0  0.63736  0.16931  0.40611  1.0000
  N   N9        1.0  0.91158  0.50864  0.20760  1.0000
  N   N10       1.0  0.08842  0.49136  0.79240  1.0000
  N   N11       1.0  0.82485  0.54632  0.31078  1.0000
  N   N12       1.0  0.17515  0.45368  0.68922  1.0000
  N   N13       1.0  0.54129  0.56414  0.74879  1.0000
  N   N14       1.0  0.45871  0.43586  0.25121  1.0000
  N   N15       1.0  0.62008  0.53759  0.64180  1.0000
  N   N16       1.0  0.37992  0.46241  0.35820  1.0000
  O   O1        1.0  0.18823  0.23999  0.17405  1.0000
  O   O2        1.0  0.81177  0.76001  0.82595  1.0000
  O   O3        1.0  0.26565  0.82941  0.78961  1.0000
  O   O4        1.0  0.73435  0.17059  0.21039  1.0000
  O   O5        1.0  0.31038  0.45017  0.99008  1.0000
  O   O6        1.0  0.68962  0.54983  0.00992  1.0000
  O   O7        1.0  0.06141  0.19073  0.98510  1.0000
  O   O8        1.0  0.93860  0.80928  0.01490  1.0000
  O   O9        1.0  0.52191  0.91935  0.15465  1.0000
  O   O10       1.0  0.47809  0.08064  0.84535  1.0000
  O   O11       1.0  0.10469  0.84981  0.23022  1.0000
  O   O12       1.0  0.89531  0.15019  0.76978  1.0000
