data_image0
_chemical_formula_structural       La2H38C32N4Cl8O18
_chemical_formula_sum              "La2 H38 C32 N4 Cl8 O18"
_cell_length_a       9.37012
_cell_length_b       10.9922
_cell_length_c       12.524
_cell_angle_alpha    89.5661
_cell_angle_beta     72.3974
_cell_angle_gamma    79.9469

_space_group_name_H-M_alt    "P 1"
_space_group_IT_number       1

loop_
  _space_group_symop_operation_xyz
  'x, y, z'

loop_
  _atom_site_type_symbol
  _atom_site_label
  _atom_site_symmetry_multiplicity
  _atom_site_fract_x
  _atom_site_fract_y
  _atom_site_fract_z
  _atom_site_occupancy
  La  La1       1.0  0.12764  0.54444  0.10837  1.0000
  La  La2       1.0  0.87236  0.45556  0.89163  1.0000
  H   H1        1.0  0.41490  0.21996  0.79687  1.0000
  H   H2        1.0  0.58511  0.78004  0.20313  1.0000
  H   H3        1.0  0.44044  0.35303  0.71905  1.0000
  H   H4        1.0  0.55956  0.64696  0.28095  1.0000
  H   H5        1.0  0.27163  0.28829  0.73539  1.0000
  H   H6        1.0  0.72838  0.71171  0.26461  1.0000
  H   H7        1.0  0.50391  0.33112  0.08406  1.0000
  H   H8        1.0  0.49609  0.66888  0.91594  1.0000
  H   H9        1.0  0.62177  0.05977  0.18025  1.0000
  H   H10       1.0  0.37824  0.94023  0.81975  1.0000
  H   H11       1.0  0.64879  0.15619  0.06291  1.0000
  H   H12       1.0  0.35121  0.84381  0.93709  1.0000
  H   H13       1.0  0.54562  0.03164  0.07023  1.0000
  H   H14       1.0  0.45438  0.96836  0.92977  1.0000
  H   H15       1.0  0.35284  0.11840  0.33684  1.0000
  H   H16       1.0  0.64716  0.88160  0.66316  1.0000
  H   H17       1.0  0.29788  0.04854  0.23092  1.0000
  H   H18       1.0  0.70212  0.95146  0.76908  1.0000
  H   H19       1.0  0.20787  0.20249  0.28448  1.0000
  H   H20       1.0  0.79213  0.79751  0.71552  1.0000
  H   H21       1.0  0.03029  0.35280  0.34496  1.0000
  H   H22       1.0  0.96971  0.64720  0.65505  1.0000
  H   H23       1.0  0.91710  0.25496  0.48897  1.0000
  H   H24       1.0  0.08290  0.74504  0.51103  1.0000
  H   H25       1.0  0.71989  0.31521  0.55204  1.0000
  H   H26       1.0  0.28010  0.68479  0.44796  1.0000
  H   H27       1.0  0.85590  0.34493  0.61791  1.0000
  H   H28       1.0  0.14409  0.65507  0.38209  1.0000
  H   H29       1.0  0.79085  0.63732  0.47979  1.0000
  H   H30       1.0  0.20915  0.36268  0.52020  1.0000
  H   H31       1.0  0.72906  0.56701  0.61235  1.0000
  H   H32       1.0  0.27094  0.43300  0.38765  1.0000
  H   H33       1.0  0.63595  0.55619  0.50813  1.0000
  H   H34       1.0  0.36405  0.44382  0.49187  1.0000
  H   H35       1.0  0.30942  0.72276  0.16277  1.0000
  H   H36       1.0  0.69058  0.27724  0.83722  1.0000
  H   H37       1.0  0.45783  0.61498  0.10309  1.0000
  H   H38       1.0  0.54217  0.38502  0.89691  1.0000
  C   C1        1.0  0.07726  0.85252  0.22164  1.0000
  C   C2        1.0  0.92274  0.14747  0.77836  1.0000
  C   C3        1.0  0.96611  0.97502  0.24843  1.0000
  C   C4        1.0  0.03389  0.02498  0.75157  1.0000
  C   C5        1.0  0.84220  0.99470  0.34677  1.0000
  C   C6        1.0  0.15780  0.00530  0.65323  1.0000
  C   C7        1.0  0.73904  0.10781  0.37216  1.0000
  C   C8        1.0  0.26096  0.89219  0.62784  1.0000
  C   C9        1.0  0.76283  0.20308  0.29682  1.0000
  C   C10       1.0  0.23717  0.79692  0.70318  1.0000
  C   C11       1.0  0.88717  0.18687  0.19942  1.0000
  C   C12       1.0  0.11283  0.81313  0.80058  1.0000
  C   C13       1.0  0.98617  0.07284  0.17638  1.0000
  C   C14       1.0  0.01383  0.92716  0.82361  1.0000
  C   C15       1.0  0.27603  0.38762  0.88212  1.0000
  C   C16       1.0  0.72397  0.61238  0.11788  1.0000
  C   C17       1.0  0.35397  0.30738  0.77630  1.0000
  C   C18       1.0  0.64603  0.69262  0.22371  1.0000
  C   C19       1.0  0.40720  0.30636  0.15067  1.0000
  C   C20       1.0  0.59280  0.69364  0.84933  1.0000
  C   C21       1.0  0.56912  0.10438  0.11903  1.0000
  C   C22       1.0  0.43088  0.89562  0.88097  1.0000
  C   C23       1.0  0.31510  0.13624  0.26223  1.0000
  C   C24       1.0  0.68490  0.86376  0.73777  1.0000
  C   C25       1.0  0.95816  0.44388  0.37457  1.0000
  C   C26       1.0  0.04184  0.55612  0.62543  1.0000
  C   C27       1.0  0.83549  0.33408  0.53708  1.0000
  C   C28       1.0  0.16451  0.66592  0.46292  1.0000
  C   C29       1.0  0.74605  0.55822  0.52192  1.0000
  C   C30       1.0  0.25395  0.44178  0.47808  1.0000
  C   C31       1.0  0.92044  0.29315  0.12367  1.0000
  C   C32       1.0  0.07956  0.70685  0.87633  1.0000
  N   N1        1.0  0.42855  0.18766  0.17645  1.0000
  N   N2        1.0  0.57145  0.81234  0.82355  1.0000
  N   N3        1.0  0.85321  0.44545  0.47447  1.0000
  N   N4        1.0  0.14679  0.55455  0.52553  1.0000
  Cl  Cl1       1.0  0.81795  0.87813  0.43982  1.0000
  Cl  Cl2       1.0  0.18205  0.12187  0.56018  1.0000
  Cl  Cl3       1.0  0.58713  0.13005  0.49237  1.0000
  Cl  Cl4       1.0  0.41287  0.86995  0.50763  1.0000
  Cl  Cl5       1.0  0.63823  0.34294  0.32355  1.0000
  Cl  Cl6       1.0  0.36177  0.65707  0.67645  1.0000
  Cl  Cl7       1.0  0.13701  0.05455  0.05404  1.0000
  Cl  Cl8       1.0  0.86299  0.94545  0.94596  1.0000
  O   O1        1.0  0.02768  0.76172  0.19292  1.0000
  O   O2        1.0  0.97232  0.23828  0.80708  1.0000
  O   O3        1.0  0.20825  0.85300  0.22975  1.0000
  O   O4        1.0  0.79175  0.14700  0.77025  1.0000
  O   O5        1.0  0.84841  0.31494  0.05321  1.0000
  O   O6        1.0  0.15160  0.68505  0.94678  1.0000
  O   O7        1.0  0.01895  0.34864  0.14124  1.0000
  O   O8        1.0  0.98105  0.65136  0.85876  1.0000
  O   O9        1.0  0.13181  0.41996  0.91467  1.0000
  O   O10       1.0  0.86819  0.58003  0.08533  1.0000
  O   O11       1.0  0.35474  0.42245  0.93984  1.0000
  O   O12       1.0  0.64526  0.57755  0.06016  1.0000
  O   O13       1.0  0.28916  0.38410  0.19675  1.0000
  O   O14       1.0  0.71085  0.61590  0.80325  1.0000
  O   O15       1.0  0.97663  0.53714  0.31704  1.0000
  O   O16       1.0  0.02337  0.46286  0.68296  1.0000
  O   O17       1.0  0.34492  0.63996  0.12049  1.0000
  O   O18       1.0  0.65508  0.36004  0.87951  1.0000
