data_image0
_chemical_formula_structural       La2H40C40N4Cl12O18
_chemical_formula_sum              "La2 H40 C40 N4 Cl12 O18"
_cell_length_a       10.0814
_cell_length_b       13.0517
_cell_length_c       13.6696
_cell_angle_alpha    97.0945
_cell_angle_beta     109.896
_cell_angle_gamma    95.5803

_space_group_name_H-M_alt    "P 1"
_space_group_IT_number       1

loop_
  _space_group_symop_operation_xyz
  'x, y, z'

loop_
  _atom_site_type_symbol
  _atom_site_label
  _atom_site_symmetry_multiplicity
  _atom_site_fract_x
  _atom_site_fract_y
  _atom_site_fract_z
  _atom_site_occupancy
  La  La1       1.0  0.03295  0.11534  0.13894  1.0000
  La  La2       1.0  0.96705  0.88466  0.86106  1.0000
  H   H1        1.0  0.40872  0.40968  0.28529  1.0000
  H   H2        1.0  0.59128  0.59032  0.71471  1.0000
  H   H3        1.0  0.35553  0.28118  0.30489  1.0000
  H   H4        1.0  0.64447  0.71882  0.69511  1.0000
  H   H5        1.0  0.39662  0.38961  0.40871  1.0000
  H   H6        1.0  0.60338  0.61040  0.59129  1.0000
  H   H7        1.0  0.25630  0.57408  0.44346  1.0000
  H   H8        1.0  0.74369  0.42591  0.55655  1.0000
  H   H9        1.0  0.22737  0.63265  0.32840  1.0000
  H   H10       1.0  0.77263  0.36735  0.67160  1.0000
  H   H11       1.0  0.36501  0.55522  0.36521  1.0000
  H   H12       1.0  0.63499  0.44478  0.63479  1.0000
  H   H13       1.0  0.94919  0.42463  0.18806  1.0000
  H   H14       1.0  0.05081  0.57537  0.81194  1.0000
  H   H15       1.0  0.99682  0.56274  0.23487  1.0000
  H   H16       1.0  0.00318  0.43725  0.76512  1.0000
  H   H17       1.0  0.95731  0.47695  0.31718  1.0000
  H   H18       1.0  0.04269  0.52305  0.68282  1.0000
  H   H19       1.0  0.69000  0.28217  0.09637  1.0000
  H   H20       1.0  0.31000  0.71783  0.90363  1.0000
  H   H21       1.0  0.70062  0.34912  0.22110  1.0000
  H   H22       1.0  0.29938  0.65088  0.77890  1.0000
  H   H23       1.0  0.54797  0.25621  0.14464  1.0000
  H   H24       1.0  0.45203  0.74380  0.85535  1.0000
  H   H25       1.0  0.59184  0.27365  0.32003  1.0000
  H   H26       1.0  0.40816  0.72635  0.67997  1.0000
  H   H27       1.0  0.66128  0.20943  0.43014  1.0000
  H   H28       1.0  0.33872  0.79057  0.56986  1.0000
  H   H29       1.0  0.51292  0.14488  0.31712  1.0000
  H   H30       1.0  0.48708  0.85512  0.68288  1.0000
  H   H31       1.0  0.73478  0.99617  0.29201  1.0000
  H   H32       1.0  0.26522  0.00383  0.70799  1.0000
  H   H33       1.0  0.77078  0.06717  0.42089  1.0000
  H   H34       1.0  0.22922  0.93284  0.57911  1.0000
  H   H35       1.0  0.89752  0.08292  0.35808  1.0000
  H   H36       1.0  0.10248  0.91708  0.64192  1.0000
  H   H37       1.0  0.00601  0.96239  0.27709  1.0000
  H   H38       1.0  0.99399  0.03761  0.72290  1.0000
  H   H39       1.0  0.97759  0.87396  0.17695  1.0000
  H   H40       1.0  0.02241  0.12604  0.82305  1.0000
  C   C1        1.0  0.99725  0.27690  0.93537  1.0000
  C   C2        1.0  0.00276  0.72310  0.06463  1.0000
  C   C3        1.0  0.99805  0.39217  0.97036  1.0000
  C   C4        1.0  0.00195  0.60783  0.02965  1.0000
  C   C5        1.0  0.12782  0.45903  0.02001  1.0000
  C   C6        1.0  0.87218  0.54097  0.98000  1.0000
  C   C7        1.0  0.87032  0.43374  0.95068  1.0000
  C   C8        1.0  0.12968  0.56626  0.04932  1.0000
  C   C9        1.0  0.22099  0.05667  0.38581  1.0000
  C   C10       1.0  0.77901  0.94333  0.61419  1.0000
  C   C11       1.0  0.36556  0.02834  0.44672  1.0000
  C   C12       1.0  0.63444  0.97166  0.55328  1.0000
  C   C13       1.0  0.47243  0.10096  0.52369  1.0000
  C   C14       1.0  0.52757  0.89904  0.47632  1.0000
  C   C15       1.0  0.60653  0.07334  0.57572  1.0000
  C   C16       1.0  0.39347  0.92666  0.42429  1.0000
  C   C17       1.0  0.73064  0.92681  0.94113  1.0000
  C   C18       1.0  0.26936  0.07319  0.05887  1.0000
  C   C19       1.0  0.60944  0.96219  0.97114  1.0000
  C   C20       1.0  0.39055  0.03781  0.02886  1.0000
  C   C21       1.0  0.56728  0.91979  0.04701  1.0000
  C   C22       1.0  0.43271  0.08021  0.95299  1.0000
  C   C23       1.0  0.54083  0.04107  0.92338  1.0000
  C   C24       1.0  0.45916  0.95893  0.07661  1.0000
  C   C25       1.0  0.19323  0.37660  0.28119  1.0000
  C   C26       1.0  0.80677  0.62340  0.71881  1.0000
  C   C27       1.0  0.34849  0.36388  0.32295  1.0000
  C   C28       1.0  0.65151  0.63612  0.67705  1.0000
  C   C29       1.0  0.25681  0.56279  0.36227  1.0000
  C   C30       1.0  0.74319  0.43721  0.63773  1.0000
  C   C31       1.0  0.00592  0.48500  0.25693  1.0000
  C   C32       1.0  0.99408  0.51500  0.74307  1.0000
  C   C33       1.0  0.73910  0.18890  0.21713  1.0000
  C   C34       1.0  0.26090  0.81111  0.78286  1.0000
  C   C35       1.0  0.66421  0.27402  0.16685  1.0000
  C   C36       1.0  0.33579  0.72599  0.83315  1.0000
  C   C37       1.0  0.61433  0.19842  0.34372  1.0000
  C   C38       1.0  0.38567  0.80158  0.65628  1.0000
  C   C39       1.0  0.78335  0.07093  0.34496  1.0000
  C   C40       1.0  0.21665  0.92907  0.65504  1.0000
  N   N1        1.0  0.15612  0.47211  0.29710  1.0000
  N   N2        1.0  0.84388  0.52789  0.70290  1.0000
  N   N3        1.0  0.71476  0.15688  0.29974  1.0000
  N   N4        1.0  0.28524  0.84312  0.70026  1.0000
  Cl  Cl1       1.0  0.28526  0.40818  0.04393  1.0000
  Cl  Cl2       1.0  0.71474  0.59182  0.95607  1.0000
  Cl  Cl3       1.0  0.71038  0.35166  0.88984  1.0000
  Cl  Cl4       1.0  0.28962  0.64834  0.11016  1.0000
  Cl  Cl5       1.0  0.43691  0.22507  0.55545  1.0000
  Cl  Cl6       1.0  0.56309  0.77493  0.44456  1.0000
  Cl  Cl7       1.0  0.73978  0.16363  0.66825  1.0000
  Cl  Cl8       1.0  0.26022  0.83637  0.33176  1.0000
  Cl  Cl9       1.0  0.64646  0.81978  0.10215  1.0000
  Cl  Cl10      1.0  0.35352  0.18021  0.89784  1.0000
  Cl  Cl11      1.0  0.59024  0.08852  0.82719  1.0000
  Cl  Cl12      1.0  0.40975  0.91147  0.17281  1.0000
  O   O1        1.0  0.98155  0.21529  0.99701  1.0000
  O   O2        1.0  0.01844  0.78471  0.00299  1.0000
  O   O3        1.0  0.01259  0.25262  0.84850  1.0000
  O   O4        1.0  0.98742  0.74738  0.15150  1.0000
  O   O5        1.0  0.21903  0.10942  0.31258  1.0000
  O   O6        1.0  0.78098  0.89058  0.68741  1.0000
  O   O7        1.0  0.11685  0.02239  0.40873  1.0000
  O   O8        1.0  0.88315  0.97760  0.59127  1.0000
  O   O9        1.0  0.85123  0.98738  0.98000  1.0000
  O   O10       1.0  0.14877  0.01262  0.02001  1.0000
  O   O11       1.0  0.71010  0.84350  0.87768  1.0000
  O   O12       1.0  0.28989  0.15651  0.12231  1.0000
  O   O13       1.0  0.09875  0.29970  0.23122  1.0000
  O   O14       1.0  0.90125  0.70031  0.76878  1.0000
  O   O15       1.0  0.82487  0.14765  0.18069  1.0000
  O   O16       1.0  0.17513  0.85235  0.81930  1.0000
  O   O17       1.0  0.97294  0.94966  0.19900  1.0000
  O   O18       1.0  0.02706  0.05034  0.80099  1.0000
