data_image0
_chemical_formula_structural       La2H26C30N2Cl12O20
_chemical_formula_sum              "La2 H26 C30 N2 Cl12 O20"
_cell_length_a       10.512
_cell_length_b       10.9324
_cell_length_c       11.133
_cell_angle_alpha    67.2868
_cell_angle_beta     83.1156
_cell_angle_gamma    76.0726

_space_group_name_H-M_alt    "P 1"
_space_group_IT_number       1

loop_
  _space_group_symop_operation_xyz
  'x, y, z'

loop_
  _atom_site_type_symbol
  _atom_site_label
  _atom_site_symmetry_multiplicity
  _atom_site_fract_x
  _atom_site_fract_y
  _atom_site_fract_z
  _atom_site_occupancy
  La  La1       1.0  0.07912  0.35356  0.39527  1.0000
  La  La2       1.0  0.92088  0.64644  0.60473  1.0000
  H   H1        1.0  0.42163  0.29108  0.32211  1.0000
  H   H2        1.0  0.57837  0.70891  0.67789  1.0000
  H   H3        1.0  0.63150  0.23270  0.30470  1.0000
  H   H4        1.0  0.36850  0.76730  0.69530  1.0000
  H   H5        1.0  0.68818  0.05841  0.40359  1.0000
  H   H6        1.0  0.31182  0.94159  0.59642  1.0000
  H   H7        1.0  0.72427  0.18945  0.44404  1.0000
  H   H8        1.0  0.27573  0.81055  0.55596  1.0000
  H   H9        1.0  0.60805  0.98919  0.63774  1.0000
  H   H10       1.0  0.39195  0.01081  0.36226  1.0000
  H   H11       1.0  0.43945  0.06515  0.66081  1.0000
  H   H12       1.0  0.56055  0.93485  0.33919  1.0000
  H   H13       1.0  0.56861  0.14002  0.67297  1.0000
  H   H14       1.0  0.43139  0.85998  0.32703  1.0000
  H   H15       1.0  0.04843  0.09135  0.36559  1.0000
  H   H16       1.0  0.95157  0.90865  0.63441  1.0000
  H   H17       1.0  0.09170  0.05922  0.51028  1.0000
  H   H18       1.0  0.90830  0.94078  0.48972  1.0000
  H   H19       1.0  0.04095  0.37522  0.11836  1.0000
  H   H20       1.0  0.95905  0.62478  0.88164  1.0000
  H   H21       1.0  0.89254  0.41354  0.15634  1.0000
  H   H22       1.0  0.10746  0.58646  0.84366  1.0000
  H   H23       1.0  0.98010  0.67532  0.27726  1.0000
  H   H24       1.0  0.01990  0.32468  0.72274  1.0000
  H   H25       1.0  0.93416  0.62272  0.17741  1.0000
  H   H26       1.0  0.06584  0.37728  0.82258  1.0000
  C   C1        1.0  0.25135  0.41376  0.08731  1.0000
  C   C2        1.0  0.74865  0.58625  0.91269  1.0000
  C   C3        1.0  0.37937  0.45907  0.03614  1.0000
  C   C4        1.0  0.62063  0.54094  0.96386  1.0000
  C   C5        1.0  0.38244  0.59707  0.98421  1.0000
  C   C6        1.0  0.61756  0.40294  0.01579  1.0000
  C   C7        1.0  0.50299  0.63752  0.95017  1.0000
  C   C8        1.0  0.49702  0.36249  0.04982  1.0000
  C   C9        1.0  0.04286  0.08731  0.71552  1.0000
  C   C10       1.0  0.95714  0.91268  0.28448  1.0000
  C   C11       1.0  0.01960  0.04343  0.86243  1.0000
  C   C12       1.0  0.98041  0.95657  0.13757  1.0000
  C   C13       1.0  0.90962  0.99002  0.92365  1.0000
  C   C14       1.0  0.09038  0.00997  0.07635  1.0000
  C   C15       1.0  0.11005  0.05195  0.94036  1.0000
  C   C16       1.0  0.88995  0.94804  0.05964  1.0000
  C   C17       1.0  0.78697  0.43096  0.48264  1.0000
  C   C18       1.0  0.21303  0.56904  0.51736  1.0000
  C   C19       1.0  0.63861  0.46828  0.49244  1.0000
  C   C20       1.0  0.36139  0.53173  0.50756  1.0000
  C   C21       1.0  0.56618  0.54209  0.37945  1.0000
  C   C22       1.0  0.43382  0.45792  0.62054  1.0000
  C   C23       1.0  0.57168  0.42587  0.61288  1.0000
  C   C24       1.0  0.42832  0.57414  0.38712  1.0000
  C   C25       1.0  0.41459  0.23411  0.42779  1.0000
  C   C26       1.0  0.58541  0.76588  0.57221  1.0000
  C   C27       1.0  0.65026  0.16071  0.40470  1.0000
  C   C28       1.0  0.34974  0.83929  0.59530  1.0000
  C   C29       1.0  0.53632  0.08487  0.62201  1.0000
  C   C30       1.0  0.46368  0.91513  0.37799  1.0000
  N   N1        1.0  0.52876  0.16430  0.48293  1.0000
  N   N2        1.0  0.47124  0.83570  0.51707  1.0000
  Cl  Cl1       1.0  0.23771  0.71635  0.96249  1.0000
  Cl  Cl2       1.0  0.76229  0.28365  0.03750  1.0000
  Cl  Cl3       1.0  0.50815  0.80647  0.89770  1.0000
  Cl  Cl4       1.0  0.49185  0.19354  0.10229  1.0000
  Cl  Cl5       1.0  0.79762  0.97562  0.83233  1.0000
  Cl  Cl6       1.0  0.20238  0.02437  0.16767  1.0000
  Cl  Cl7       1.0  0.24828  0.11265  0.86910  1.0000
  Cl  Cl8       1.0  0.75172  0.88735  0.13090  1.0000
  Cl  Cl9       1.0  0.64726  0.59303  0.23113  1.0000
  Cl  Cl10      1.0  0.35274  0.40697  0.76886  1.0000
  Cl  Cl11      1.0  0.66029  0.33114  0.75071  1.0000
  Cl  Cl12      1.0  0.33971  0.66886  0.24928  1.0000
  O   O1        1.0  0.23587  0.37732  0.21052  1.0000
  O   O2        1.0  0.76413  0.62269  0.78948  1.0000
  O   O3        1.0  0.17252  0.41520  0.00987  1.0000
  O   O4        1.0  0.82748  0.58480  0.99013  1.0000
  O   O5        1.0  0.04109  0.21262  0.65010  1.0000
  O   O6        1.0  0.95891  0.78738  0.34989  1.0000
  O   O7        1.0  0.06420  0.99541  0.66905  1.0000
  O   O8        1.0  0.93581  0.00458  0.33095  1.0000
  O   O9        1.0  0.83679  0.33993  0.43745  1.0000
  O   O10       1.0  0.16321  0.66007  0.56255  1.0000
  O   O11       1.0  0.85506  0.49324  0.51695  1.0000
  O   O12       1.0  0.14494  0.50676  0.48306  1.0000
  O   O13       1.0  0.30502  0.23678  0.48759  1.0000
  O   O14       1.0  0.69498  0.76322  0.51241  1.0000
  O   O15       1.0  0.10410  0.11488  0.41520  1.0000
  O   O16       1.0  0.89589  0.88512  0.58480  1.0000
  O   O17       1.0  0.97665  0.35812  0.19359  1.0000
  O   O18       1.0  0.02335  0.64188  0.80641  1.0000
  O   O19       1.0  0.99635  0.59865  0.24507  1.0000
  O   O20       1.0  0.00364  0.40135  0.75493  1.0000
