data_image0
_chemical_formula_structural       Hg4H16C24Br4N4O8
_chemical_formula_sum              "Hg4 H16 C24 Br4 N4 O8"
_cell_length_a       7.40951
_cell_length_b       8.0173
_cell_length_c       14.8407
_cell_angle_alpha    101.613
_cell_angle_beta     89.9753
_cell_angle_gamma    117.521

_space_group_name_H-M_alt    "P 1"
_space_group_IT_number       1

loop_
  _space_group_symop_operation_xyz
  'x, y, z'

loop_
  _atom_site_type_symbol
  _atom_site_label
  _atom_site_symmetry_multiplicity
  _atom_site_fract_x
  _atom_site_fract_y
  _atom_site_fract_z
  _atom_site_occupancy
  Hg  Hg1       1.0  0.52914  0.47691  0.67256  1.0000
  Hg  Hg2       1.0  0.94814  0.47732  0.17283  1.0000
  Hg  Hg3       1.0  0.47089  0.52311  0.32744  1.0000
  Hg  Hg4       1.0  0.05184  0.52266  0.82718  1.0000
  H   H1        1.0  0.15071  0.07709  0.68423  1.0000
  H   H2        1.0  0.92689  0.07726  0.18445  1.0000
  H   H3        1.0  0.84932  0.92293  0.31576  1.0000
  H   H4        1.0  0.07307  0.92273  0.81556  1.0000
  H   H5        1.0  0.50633  0.25371  0.47149  1.0000
  H   H6        1.0  0.74768  0.25406  0.97197  1.0000
  H   H7        1.0  0.49367  0.74631  0.52849  1.0000
  H   H8        1.0  0.25228  0.74591  0.02803  1.0000
  H   H9        1.0  0.30937  0.92607  0.36471  1.0000
  H   H10       1.0  0.61755  0.92666  0.86498  1.0000
  H   H11       1.0  0.69063  0.07394  0.63528  1.0000
  H   H12       1.0  0.38244  0.07331  0.13502  1.0000
  H   H13       1.0  0.02083  0.66336  0.42576  1.0000
  H   H14       1.0  0.64368  0.66387  0.92586  1.0000
  H   H15       1.0  0.97919  0.33667  0.57424  1.0000
  H   H16       1.0  0.35630  0.33611  0.07415  1.0000
  C   C1        1.0  0.88565  0.70332  0.59472  1.0000
  C   C2        1.0  0.81773  0.70331  0.09482  1.0000
  C   C3        1.0  0.11437  0.29670  0.40527  1.0000
  C   C4        1.0  0.18227  0.29669  0.90519  1.0000
  C   C5        1.0  0.06629  0.85045  0.55915  1.0000
  C   C6        1.0  0.78449  0.85062  0.05935  1.0000
  C   C7        1.0  0.93373  0.14956  0.44085  1.0000
  C   C8        1.0  0.21550  0.14938  0.94066  1.0000
  C   C9        1.0  0.18296  0.03648  0.61372  1.0000
  C   C10       1.0  0.85385  0.03667  0.11397  1.0000
  C   C11       1.0  0.81706  0.96354  0.38627  1.0000
  C   C12       1.0  0.14612  0.96332  0.88604  1.0000
  C   C13       1.0  0.37963  0.13520  0.49320  1.0000
  C   C14       1.0  0.75594  0.13548  0.99356  1.0000
  C   C15       1.0  0.62038  0.86482  0.50679  1.0000
  C   C16       1.0  0.24403  0.86449  0.00645  1.0000
  C   C17       1.0  0.27011  0.95297  0.43506  1.0000
  C   C18       1.0  0.68356  0.95337  0.93532  1.0000
  C   C19       1.0  0.72990  0.04704  0.56493  1.0000
  C   C20       1.0  0.31642  0.04660  0.06468  1.0000
  C   C21       1.0  0.11195  0.80829  0.46851  1.0000
  C   C22       1.0  0.69706  0.80867  0.96870  1.0000
  C   C23       1.0  0.88806  0.19172  0.53149  1.0000
  C   C24       1.0  0.30293  0.19132  0.03130  1.0000
  Br  Br1       1.0  0.64726  0.32127  0.79629  1.0000
  Br  Br2       1.0  0.67419  0.32170  0.29646  1.0000
  Br  Br3       1.0  0.35273  0.67870  0.20369  1.0000
  Br  Br4       1.0  0.32582  0.67829  0.70356  1.0000
  N   N1        1.0  0.33592  0.17405  0.58056  1.0000
  N   N2        1.0  0.83842  0.17428  0.08089  1.0000
  N   N3        1.0  0.66411  0.82599  0.41944  1.0000
  N   N4        1.0  0.16154  0.82571  0.91912  1.0000
  O   O1        1.0  0.85824  0.74713  0.68006  1.0000
  O   O2        1.0  0.88849  0.74686  0.18020  1.0000
  O   O3        1.0  0.14179  0.25288  0.31994  1.0000
  O   O4        1.0  0.11152  0.25315  0.81981  1.0000
  O   O5        1.0  0.76567  0.54849  0.53841  1.0000
  O   O6        1.0  0.78313  0.54866  0.03842  1.0000
  O   O7        1.0  0.23434  0.45154  0.46158  1.0000
  O   O8        1.0  0.21685  0.45133  0.96159  1.0000
