data_image0
_chemical_formula_structural       Sr2H20C8N16O12
_chemical_formula_sum              "Sr2 H20 C8 N16 O12"
_cell_length_a       7.59009
_cell_length_b       7.64587
_cell_length_c       11.346
_cell_angle_alpha    74.0468
_cell_angle_beta     87.1125
_cell_angle_gamma    63.1222

_space_group_name_H-M_alt    "P 1"
_space_group_IT_number       1

loop_
  _space_group_symop_operation_xyz
  'x, y, z'

loop_
  _atom_site_type_symbol
  _atom_site_label
  _atom_site_symmetry_multiplicity
  _atom_site_fract_x
  _atom_site_fract_y
  _atom_site_fract_z
  _atom_site_occupancy
  Sr  Sr1       1.0  0.30293  0.77490  0.54044  1.0000
  Sr  Sr2       1.0  0.69707  0.22510  0.45956  1.0000
  H   H1        1.0  0.47072  0.28506  0.04515  1.0000
  H   H2        1.0  0.52928  0.71494  0.95485  1.0000
  H   H3        1.0  0.11891  0.61593  0.99510  1.0000
  H   H4        1.0  0.88109  0.38407  0.00490  1.0000
  H   H5        1.0  0.27982  0.37265  0.56340  1.0000
  H   H6        1.0  0.72018  0.62735  0.43660  1.0000
  H   H7        1.0  0.24674  0.46006  0.41852  1.0000
  H   H8        1.0  0.75326  0.53994  0.58148  1.0000
  H   H9        1.0  0.91300  0.73239  0.58909  1.0000
  H   H10       1.0  0.08700  0.26761  0.41091  1.0000
  H   H11       1.0  0.89926  0.79594  0.44391  1.0000
  H   H12       1.0  0.10074  0.20406  0.55609  1.0000
  H   H13       1.0  0.97526  0.93915  0.74258  1.0000
  H   H14       1.0  0.02473  0.06085  0.25742  1.0000
  H   H15       1.0  0.17736  0.73013  0.79976  1.0000
  H   H16       1.0  0.82264  0.26987  0.20024  1.0000
  H   H17       1.0  0.40164  0.00135  0.68909  1.0000
  H   H18       1.0  0.59836  0.99865  0.31091  1.0000
  H   H19       1.0  0.59730  0.79064  0.72602  1.0000
  H   H20       1.0  0.40270  0.20937  0.27398  1.0000
  C   C1        1.0  0.61698  0.25241  0.76917  1.0000
  C   C2        1.0  0.38302  0.74759  0.23083  1.0000
  C   C3        1.0  0.49084  0.30642  0.94788  1.0000
  C   C4        1.0  0.50916  0.69358  0.05212  1.0000
  C   C5        1.0  0.93038  0.66430  0.25832  1.0000
  C   C6        1.0  0.06962  0.33570  0.74168  1.0000
  C   C7        1.0  0.08370  0.59916  0.09008  1.0000
  C   C8        1.0  0.91630  0.40084  0.90992  1.0000
  N   N1        1.0  0.45826  0.43822  0.74614  1.0000
  N   N2        1.0  0.54174  0.56178  0.25386  1.0000
  N   N3        1.0  0.38334  0.46717  0.85755  1.0000
  N   N4        1.0  0.61666  0.53283  0.14245  1.0000
  N   N5        1.0  0.64040  0.16529  0.89958  1.0000
  N   N6        1.0  0.35960  0.83470  0.10042  1.0000
  N   N7        1.0  0.78916  0.97820  0.95593  1.0000
  N   N8        1.0  0.21084  0.02180  0.04407  1.0000
  N   N9        1.0  0.77407  0.92951  0.07047  1.0000
  N   N10       1.0  0.22593  0.07049  0.92953  1.0000
  N   N11       1.0  0.92281  0.74379  0.12998  1.0000
  N   N12       1.0  0.07718  0.25621  0.87002  1.0000
  N   N13       1.0  0.09141  0.48141  0.29061  1.0000
  N   N14       1.0  0.90859  0.51859  0.70939  1.0000
  N   N15       1.0  0.18426  0.44347  0.18482  1.0000
  N   N16       1.0  0.81574  0.55652  0.81518  1.0000
  O   O1        1.0  0.72916  0.16221  0.69664  1.0000
  O   O2        1.0  0.27085  0.83778  0.30336  1.0000
  O   O3        1.0  0.80555  0.75514  0.32636  1.0000
  O   O4        1.0  0.19446  0.24486  0.67364  1.0000
  O   O5        1.0  0.32736  0.44327  0.49116  1.0000
  O   O6        1.0  0.67264  0.55673  0.50884  1.0000
  O   O7        1.0  0.93177  0.82909  0.51622  1.0000
  O   O8        1.0  0.06823  0.17091  0.48378  1.0000
  O   O9        1.0  0.11499  0.85583  0.73059  1.0000
  O   O10       1.0  0.88501  0.14417  0.26940  1.0000
  O   O11       1.0  0.50130  0.89329  0.65598  1.0000
  O   O12       1.0  0.49870  0.10671  0.34402  1.0000
