data_image0
_chemical_formula_structural       Ca2H20C8N16O12
_chemical_formula_sum              "Ca2 H20 C8 N16 O12"
_cell_length_a       7.52204
_cell_length_b       7.62286
_cell_length_c       11.0592
_cell_angle_alpha    75.6701
_cell_angle_beta     87.5226
_cell_angle_gamma    61.9731

_space_group_name_H-M_alt    "P 1"
_space_group_IT_number       1

loop_
  _space_group_symop_operation_xyz
  'x, y, z'

loop_
  _atom_site_type_symbol
  _atom_site_label
  _atom_site_symmetry_multiplicity
  _atom_site_fract_x
  _atom_site_fract_y
  _atom_site_fract_z
  _atom_site_occupancy
  Ca  Ca1       1.0  0.70247  0.23739  0.45475  1.0000
  Ca  Ca2       1.0  0.29753  0.76261  0.54525  1.0000
  H   H1        1.0  0.70591  0.62956  0.43534  1.0000
  H   H2        1.0  0.29409  0.37044  0.56467  1.0000
  H   H3        1.0  0.74855  0.53967  0.58124  1.0000
  H   H4        1.0  0.25145  0.46033  0.41876  1.0000
  H   H5        1.0  0.46768  0.29103  0.04378  1.0000
  H   H6        1.0  0.53232  0.70898  0.95622  1.0000
  H   H7        1.0  0.12691  0.61620  0.99031  1.0000
  H   H8        1.0  0.87309  0.38380  0.00969  1.0000
  H   H9        1.0  0.11095  0.19002  0.55842  1.0000
  H   H10       1.0  0.88905  0.80998  0.44158  1.0000
  H   H11       1.0  0.09510  0.24671  0.41201  1.0000
  H   H12       1.0  0.90490  0.75329  0.58799  1.0000
  H   H13       1.0  0.60229  0.00984  0.31772  1.0000
  H   H14       1.0  0.39771  0.99016  0.68228  1.0000
  H   H15       1.0  0.41316  0.22980  0.27594  1.0000
  H   H16       1.0  0.58684  0.77020  0.72406  1.0000
  H   H17       1.0  0.03282  0.05368  0.27003  1.0000
  H   H18       1.0  0.96718  0.94632  0.72997  1.0000
  H   H19       1.0  0.82672  0.25940  0.20372  1.0000
  H   H20       1.0  0.17329  0.74059  0.79628  1.0000
  C   C1        1.0  0.61077  0.25584  0.76039  1.0000
  C   C2        1.0  0.38923  0.74416  0.23962  1.0000
  C   C3        1.0  0.48701  0.31297  0.94447  1.0000
  C   C4        1.0  0.51299  0.68703  0.05553  1.0000
  C   C5        1.0  0.92228  0.66755  0.25661  1.0000
  C   C6        1.0  0.07772  0.33245  0.74339  1.0000
  C   C7        1.0  0.08692  0.60014  0.08626  1.0000
  C   C8        1.0  0.91308  0.39986  0.91374  1.0000
  N   N1        1.0  0.45297  0.44679  0.74037  1.0000
  N   N2        1.0  0.54704  0.55321  0.25963  1.0000
  N   N3        1.0  0.37917  0.47730  0.85494  1.0000
  N   N4        1.0  0.62083  0.52270  0.14506  1.0000
  N   N5        1.0  0.63564  0.16784  0.89244  1.0000
  N   N6        1.0  0.36436  0.83216  0.10756  1.0000
  N   N7        1.0  0.78593  0.97750  0.94902  1.0000
  N   N8        1.0  0.21407  0.02250  0.05098  1.0000
  N   N9        1.0  0.76800  0.93302  0.06536  1.0000
  N   N10       1.0  0.23199  0.06698  0.93464  1.0000
  N   N11       1.0  0.91836  0.74604  0.12640  1.0000
  N   N12       1.0  0.08164  0.25396  0.87360  1.0000
  N   N13       1.0  0.08818  0.48338  0.28946  1.0000
  N   N14       1.0  0.91182  0.51662  0.71054  1.0000
  N   N15       1.0  0.18820  0.44474  0.18232  1.0000
  N   N16       1.0  0.81180  0.55526  0.81768  1.0000
  O   O1        1.0  0.72017  0.16221  0.68369  1.0000
  O   O2        1.0  0.27983  0.83779  0.31631  1.0000
  O   O3        1.0  0.79053  0.76008  0.32540  1.0000
  O   O4        1.0  0.20947  0.23992  0.67460  1.0000
  O   O5        1.0  0.66510  0.55366  0.50839  1.0000
  O   O6        1.0  0.33490  0.44634  0.49161  1.0000
  O   O7        1.0  0.07366  0.15556  0.48566  1.0000
  O   O8        1.0  0.92634  0.84444  0.51434  1.0000
  O   O9        1.0  0.50966  0.12998  0.34839  1.0000
  O   O10       1.0  0.49034  0.87002  0.65161  1.0000
  O   O11       1.0  0.88682  0.13775  0.27600  1.0000
  O   O12       1.0  0.11318  0.86224  0.72400  1.0000
