data_image0
_chemical_formula_structural       V16Cu8H24C32N16O48
_chemical_formula_sum              "V16 Cu8 H24 C32 N16 O48"
_cell_length_a       8.70913
_cell_length_b       13.3281
_cell_length_c       14.3854
_cell_angle_alpha    90
_cell_angle_beta     90
_cell_angle_gamma    90

_space_group_name_H-M_alt    "P 1"
_space_group_IT_number       1

loop_
  _space_group_symop_operation_xyz
  'x, y, z'

loop_
  _atom_site_type_symbol
  _atom_site_label
  _atom_site_symmetry_multiplicity
  _atom_site_fract_x
  _atom_site_fract_y
  _atom_site_fract_z
  _atom_site_occupancy
  V   V1        1.0  0.68759  0.62201  0.51888  1.0000
  V   V2        1.0  0.18789  0.37804  0.98109  1.0000
  V   V3        1.0  0.31239  0.12203  0.48113  1.0000
  V   V4        1.0  0.81238  0.87795  0.01884  1.0000
  V   V5        1.0  0.31240  0.37797  0.48112  1.0000
  V   V6        1.0  0.81239  0.62205  0.01884  1.0000
  V   V7        1.0  0.68760  0.87798  0.51888  1.0000
  V   V8        1.0  0.18792  0.12196  0.98109  1.0000
  V   V9        1.0  0.52405  0.38292  0.28038  1.0000
  V   V10       1.0  0.02395  0.61711  0.21964  1.0000
  V   V11       1.0  0.47594  0.88288  0.71966  1.0000
  V   V12       1.0  0.97589  0.11712  0.78037  1.0000
  V   V13       1.0  0.47595  0.61712  0.71966  1.0000
  V   V14       1.0  0.97589  0.38288  0.78037  1.0000
  V   V15       1.0  0.52404  0.11707  0.28036  1.0000
  V   V16       1.0  0.02395  0.88289  0.21963  1.0000
  Cu  Cu1       1.0  0.91137  0.45423  0.40170  1.0000
  Cu  Cu2       1.0  0.41149  0.54583  0.09849  1.0000
  Cu  Cu3       1.0  0.08860  0.95426  0.59830  1.0000
  Cu  Cu4       1.0  0.58858  0.04576  0.90169  1.0000
  Cu  Cu5       1.0  0.08861  0.54575  0.59830  1.0000
  Cu  Cu6       1.0  0.58858  0.45424  0.90169  1.0000
  Cu  Cu7       1.0  0.91137  0.04577  0.40170  1.0000
  Cu  Cu8       1.0  0.41151  0.95417  0.09847  1.0000
  H   H1        1.0  0.14248  0.41302  0.22802  1.0000
  H   H2        1.0  0.64237  0.58691  0.27193  1.0000
  H   H3        1.0  0.85753  0.91304  0.77194  1.0000
  H   H4        1.0  0.35744  0.08697  0.72803  1.0000
  H   H5        1.0  0.85753  0.58697  0.77194  1.0000
  H   H6        1.0  0.35744  0.41302  0.72802  1.0000
  H   H7        1.0  0.14248  0.08697  0.22803  1.0000
  H   H8        1.0  0.64238  0.91310  0.27193  1.0000
  H   H9        1.0  0.24060  0.24999  0.15988  1.0000
  H   H10       1.0  0.74088  0.75000  0.34017  1.0000
  H   H11       1.0  0.75941  0.75000  0.84009  1.0000
  H   H12       1.0  0.25934  0.25000  0.65987  1.0000
  H   H13       1.0  0.73865  0.41293  0.59425  1.0000
  H   H14       1.0  0.23883  0.58701  0.90599  1.0000
  H   H15       1.0  0.26137  0.91296  0.40574  1.0000
  H   H16       1.0  0.76129  0.08706  0.09422  1.0000
  H   H17       1.0  0.26138  0.58706  0.40574  1.0000
  H   H18       1.0  0.76129  0.41294  0.09422  1.0000
  H   H19       1.0  0.73866  0.08705  0.59424  1.0000
  H   H20       1.0  0.23883  0.91300  0.90598  1.0000
  H   H21       1.0  0.66626  0.24999  0.67369  1.0000
  H   H22       1.0  0.16618  0.75001  0.82626  1.0000
  H   H23       1.0  0.33370  0.75001  0.32629  1.0000
  H   H24       1.0  0.83369  0.24999  0.17365  1.0000
  C   C1        1.0  0.10798  0.34013  0.25542  1.0000
  C   C2        1.0  0.60798  0.65986  0.24464  1.0000
  C   C3        1.0  0.89202  0.84014  0.74456  1.0000
  C   C4        1.0  0.39197  0.15986  0.75540  1.0000
  C   C5        1.0  0.89202  0.65987  0.74456  1.0000
  C   C6        1.0  0.39197  0.34013  0.75540  1.0000
  C   C7        1.0  0.10799  0.15986  0.25542  1.0000
  C   C8        1.0  0.60795  0.84015  0.24462  1.0000
  C   C9        1.0  0.16079  0.25000  0.21794  1.0000
  C   C10       1.0  0.66093  0.75000  0.28217  1.0000
  C   C11       1.0  0.83922  0.75000  0.78203  1.0000
  C   C12       1.0  0.33917  0.25000  0.71792  1.0000
  C   C13       1.0  0.96975  0.25000  0.36245  1.0000
  C   C14       1.0  0.46964  0.75002  0.13766  1.0000
  C   C15       1.0  0.03027  0.75000  0.63753  1.0000
  C   C16       1.0  0.53030  0.25000  0.86239  1.0000
  C   C17       1.0  0.87898  0.24999  0.44742  1.0000
  C   C18       1.0  0.37901  0.75002  0.05273  1.0000
  C   C19       1.0  0.12106  0.75000  0.55257  1.0000
  C   C20       1.0  0.62105  0.25000  0.94736  1.0000
  C   C21       1.0  0.76704  0.33998  0.56515  1.0000
  C   C22       1.0  0.26709  0.66004  0.93492  1.0000
  C   C23       1.0  0.23298  0.84001  0.43483  1.0000
  C   C24       1.0  0.73290  0.16000  0.06511  1.0000
  C   C25       1.0  0.23298  0.66000  0.43483  1.0000
  C   C26       1.0  0.73291  0.33999  0.06512  1.0000
  C   C27       1.0  0.76705  0.15999  0.56515  1.0000
  C   C28       1.0  0.26710  0.83998  0.93494  1.0000
  C   C29       1.0  0.72760  0.24999  0.60811  1.0000
  C   C30       1.0  0.22758  0.75000  0.89183  1.0000
  C   C31       1.0  0.27240  0.75001  0.39188  1.0000
  C   C32       1.0  0.77236  0.25000  0.10807  1.0000
  N   N1        1.0  0.01083  0.33927  0.32814  1.0000
  N   N2        1.0  0.51086  0.66091  0.17189  1.0000
  N   N3        1.0  0.98918  0.83928  0.67184  1.0000
  N   N4        1.0  0.48915  0.16073  0.82811  1.0000
  N   N5        1.0  0.98918  0.66073  0.67184  1.0000
  N   N6        1.0  0.48915  0.33927  0.82811  1.0000
  N   N7        1.0  0.01083  0.16072  0.32814  1.0000
  N   N8        1.0  0.51084  0.83911  0.17188  1.0000
  N   N9        1.0  0.84345  0.33889  0.48408  1.0000
  N   N10       1.0  0.34343  0.66135  0.01603  1.0000
  N   N11       1.0  0.15659  0.83890  0.51591  1.0000
  N   N12       1.0  0.65653  0.16110  0.98404  1.0000
  N   N13       1.0  0.15659  0.66111  0.51591  1.0000
  N   N14       1.0  0.65654  0.33889  0.98404  1.0000
  N   N15       1.0  0.84345  0.16110  0.48408  1.0000
  N   N16       1.0  0.34345  0.83867  0.01604  1.0000
  O   O1        1.0  0.69194  0.42448  0.31564  1.0000
  O   O2        1.0  0.19187  0.57573  0.18438  1.0000
  O   O3        1.0  0.30807  0.92438  0.68444  1.0000
  O   O4        1.0  0.80804  0.07556  0.81564  1.0000
  O   O5        1.0  0.30807  0.57563  0.68444  1.0000
  O   O6        1.0  0.80804  0.42444  0.81564  1.0000
  O   O7        1.0  0.69195  0.07552  0.31564  1.0000
  O   O8        1.0  0.19187  0.92427  0.18437  1.0000
  O   O9        1.0  0.84087  0.54708  0.49442  1.0000
  O   O10       1.0  0.34050  0.45371  0.00517  1.0000
  O   O11       1.0  0.15910  0.04710  0.50561  1.0000
  O   O12       1.0  0.65916  0.95290  0.99434  1.0000
  O   O13       1.0  0.15911  0.45291  0.50561  1.0000
  O   O14       1.0  0.65917  0.54710  0.99435  1.0000
  O   O15       1.0  0.84088  0.95291  0.49442  1.0000
  O   O16       1.0  0.34055  0.04627  0.00519  1.0000
  O   O17       1.0  0.97465  0.55924  0.31934  1.0000
  O   O18       1.0  0.47483  0.44087  0.18068  1.0000
  O   O19       1.0  0.02529  0.05924  0.68069  1.0000
  O   O20       1.0  0.52525  0.94070  0.81939  1.0000
  O   O21       1.0  0.02530  0.44076  0.68068  1.0000
  O   O22       1.0  0.52526  0.55930  0.81939  1.0000
  O   O23       1.0  0.97466  0.94077  0.31934  1.0000
  O   O24       1.0  0.47481  0.05910  0.18066  1.0000
  O   O25       1.0  0.62081  0.59368  0.63408  1.0000
  O   O26       1.0  0.12082  0.40628  0.86592  1.0000
  O   O27       1.0  0.37898  0.09367  0.36591  1.0000
  O   O28       1.0  0.87893  0.90628  0.13411  1.0000
  O   O29       1.0  0.37897  0.40633  0.36591  1.0000
  O   O30       1.0  0.87893  0.59372  0.13411  1.0000
  O   O31       1.0  0.62082  0.90632  0.63408  1.0000
  O   O32       1.0  0.12081  0.09372  0.86592  1.0000
  O   O33       1.0  0.55225  0.60833  0.44245  1.0000
  O   O34       1.0  0.05249  0.39181  0.05749  1.0000
  O   O35       1.0  0.44790  0.10829  0.55745  1.0000
  O   O36       1.0  0.94795  0.89163  0.94253  1.0000
  O   O37       1.0  0.44792  0.39171  0.55744  1.0000
  O   O38       1.0  0.94795  0.60837  0.94254  1.0000
  O   O39       1.0  0.55226  0.89167  0.44244  1.0000
  O   O40       1.0  0.05249  0.10818  0.05750  1.0000
  O   O41       1.0  0.75418  0.75000  0.51788  1.0000
  O   O42       1.0  0.25450  0.25000  0.98220  1.0000
  O   O43       1.0  0.24585  0.24999  0.48214  1.0000
  O   O44       1.0  0.74564  0.75000  0.01790  1.0000
  O   O45       1.0  0.53463  0.25000  0.26149  1.0000
  O   O46       1.0  0.03421  0.75000  0.23832  1.0000
  O   O47       1.0  0.46552  0.75000  0.73834  1.0000
  O   O48       1.0  0.96552  0.25000  0.76173  1.0000
