data_image0
_chemical_formula_structural       Cu2P2H68C42N4Cl2O6
_chemical_formula_sum              "Cu2 P2 H68 C42 N4 Cl2 O6"
_cell_length_a       8.26664
_cell_length_b       9.18791
_cell_length_c       15.733
_cell_angle_alpha    87.1151
_cell_angle_beta     85.3735
_cell_angle_gamma    79.1631

_space_group_name_H-M_alt    "P 1"
_space_group_IT_number       1

loop_
  _space_group_symop_operation_xyz
  'x, y, z'

loop_
  _atom_site_type_symbol
  _atom_site_label
  _atom_site_symmetry_multiplicity
  _atom_site_fract_x
  _atom_site_fract_y
  _atom_site_fract_z
  _atom_site_occupancy
  Cu  Cu1       1.0  0.67696  0.09412  0.01132  1.0000
  Cu  Cu2       1.0  0.32303  0.90588  0.98868  1.0000
  P   P1        1.0  0.98333  0.97555  0.89110  1.0000
  P   P2        1.0  0.01667  0.02445  0.10889  1.0000
  H   H1        1.0  0.31625  0.19082  0.07214  1.0000
  H   H2        1.0  0.68373  0.80919  0.92787  1.0000
  H   H3        1.0  0.95834  0.82613  0.77921  1.0000
  H   H4        1.0  0.04166  0.17387  0.22079  1.0000
  H   H5        1.0  0.79715  0.98050  0.78530  1.0000
  H   H6        1.0  0.20285  0.01949  0.21469  1.0000
  H   H7        1.0  0.37591  0.97988  0.58236  1.0000
  H   H8        1.0  0.62409  0.02012  0.41763  1.0000
  H   H9        1.0  0.94968  0.32422  0.57409  1.0000
  H   H10       1.0  0.05031  0.67578  0.42591  1.0000
  H   H11       1.0  0.21989  0.79175  0.77788  1.0000
  H   H12       1.0  0.78013  0.20826  0.22212  1.0000
  H   H13       1.0  0.13564  0.67227  0.65312  1.0000
  H   H14       1.0  0.86436  0.32773  0.34689  1.0000
  H   H15       1.0  0.33221  0.57986  0.68378  1.0000
  H   H16       1.0  0.66779  0.42014  0.31623  1.0000
  H   H17       1.0  0.31712  0.70257  0.59252  1.0000
  H   H18       1.0  0.68288  0.29742  0.40748  1.0000
  H   H19       1.0  0.52286  0.83872  0.66364  1.0000
  H   H20       1.0  0.47715  0.16127  0.33634  1.0000
  H   H21       1.0  0.51772  0.71544  0.75330  1.0000
  H   H22       1.0  0.48229  0.28456  0.24669  1.0000
  H   H23       1.0  0.46540  0.91034  0.76688  1.0000
  H   H24       1.0  0.53462  0.08966  0.23310  1.0000
  H   H25       1.0  0.37247  0.15692  0.47675  1.0000
  H   H26       1.0  0.62754  0.84309  0.52325  1.0000
  H   H27       1.0  0.10909  0.17950  0.40153  1.0000
  H   H28       1.0  0.89093  0.82048  0.59847  1.0000
  H   H29       1.0  0.22534  0.31972  0.36707  1.0000
  H   H30       1.0  0.77467  0.68027  0.63293  1.0000
  H   H31       1.0  0.04682  0.36274  0.43788  1.0000
  H   H32       1.0  0.95318  0.63725  0.56211  1.0000
  H   H33       1.0  0.20937  0.46052  0.54530  1.0000
  H   H34       1.0  0.79062  0.53949  0.45471  1.0000
  H   H35       1.0  0.39433  0.42088  0.47783  1.0000
  H   H36       1.0  0.60568  0.57913  0.52218  1.0000
  H   H37       1.0  0.38781  0.34777  0.58448  1.0000
  H   H38       1.0  0.61218  0.65223  0.41553  1.0000
  H   H39       1.0  0.73069  0.19677  0.76625  1.0000
  H   H40       1.0  0.26932  0.80322  0.23376  1.0000
  H   H41       1.0  0.65901  0.14897  0.58257  1.0000
  H   H42       1.0  0.34102  0.85103  0.41742  1.0000
  H   H43       1.0  0.51506  0.15853  0.67405  1.0000
  H   H44       1.0  0.48495  0.84146  0.32594  1.0000
  H   H45       1.0  0.68252  0.00725  0.66336  1.0000
  H   H46       1.0  0.31751  0.99274  0.33663  1.0000
  H   H47       1.0  0.77818  0.44640  0.70419  1.0000
  H   H48       1.0  0.22181  0.55361  0.29582  1.0000
  H   H49       1.0  0.57199  0.41710  0.70335  1.0000
  H   H50       1.0  0.42800  0.58288  0.29666  1.0000
  H   H51       1.0  0.70132  0.40437  0.60796  1.0000
  H   H52       1.0  0.29868  0.59563  0.39204  1.0000
  H   H53       1.0  0.80564  0.40187  0.13201  1.0000
  H   H54       1.0  0.19435  0.59814  0.86799  1.0000
  H   H55       1.0  0.73143  0.55649  0.06433  1.0000
  H   H56       1.0  0.26855  0.44351  0.93566  1.0000
  H   H57       1.0  0.81516  0.37950  0.02036  1.0000
  H   H58       1.0  0.18483  0.62049  0.97964  1.0000
  H   H59       1.0  0.41860  0.60314  0.13891  1.0000
  H   H60       1.0  0.58141  0.39685  0.86108  1.0000
  H   H61       1.0  0.04994  0.40515  0.10301  1.0000
  H   H62       1.0  0.95006  0.59483  0.89701  1.0000
  H   H63       1.0  0.08635  0.56766  0.14975  1.0000
  H   H64       1.0  0.91363  0.43233  0.85025  1.0000
  H   H65       1.0  0.09958  0.39912  0.21102  1.0000
  H   H66       1.0  0.90043  0.60088  0.78899  1.0000
  H   H67       1.0  0.04257  0.16153  0.94637  1.0000
  H   H68       1.0  0.95742  0.83848  0.05362  1.0000
  C   C1        1.0  0.93194  0.94737  0.78402  1.0000
  C   C2        1.0  0.06807  0.05262  0.21598  1.0000
  C   C3        1.0  0.01852  0.02192  0.71049  1.0000
  C   C4        1.0  0.98148  0.97808  0.28951  1.0000
  C   C5        1.0  0.17950  0.95876  0.67833  1.0000
  C   C6        1.0  0.82050  0.04125  0.32167  1.0000
  C   C7        1.0  0.25237  0.02908  0.60831  1.0000
  C   C8        1.0  0.74763  0.97092  0.39168  1.0000
  C   C9        1.0  0.17370  0.16107  0.57063  1.0000
  C   C10       1.0  0.82631  0.83893  0.42938  1.0000
  C   C11       1.0  0.01438  0.22194  0.60335  1.0000
  C   C12       1.0  0.98563  0.77806  0.39665  1.0000
  C   C13       1.0  0.93419  0.15399  0.67146  1.0000
  C   C14       1.0  0.06581  0.84602  0.32854  1.0000
  C   C15       1.0  0.27504  0.81370  0.71397  1.0000
  C   C16       1.0  0.72497  0.18630  0.28603  1.0000
  C   C17       1.0  0.26398  0.68477  0.65778  1.0000
  C   C18       1.0  0.73602  0.31523  0.34223  1.0000
  C   C19       1.0  0.45554  0.82078  0.72509  1.0000
  C   C20       1.0  0.54448  0.17922  0.27490  1.0000
  C   C21       1.0  0.26090  0.23671  0.49768  1.0000
  C   C22       1.0  0.73911  0.76330  0.50233  1.0000
  C   C23       1.0  0.15467  0.27636  0.42149  1.0000
  C   C24       1.0  0.84534  0.72363  0.57851  1.0000
  C   C25       1.0  0.31676  0.37422  0.52803  1.0000
  C   C26       1.0  0.68323  0.62579  0.47197  1.0000
  C   C27       1.0  0.75361  0.21447  0.69694  1.0000
  C   C28       1.0  0.24638  0.78553  0.30306  1.0000
  C   C29       1.0  0.64589  0.12715  0.65198  1.0000
  C   C30       1.0  0.35412  0.87283  0.34801  1.0000
  C   C31       1.0  0.69931  0.37992  0.67697  1.0000
  C   C32       1.0  0.30068  0.62008  0.32303  1.0000
  C   C33       1.0  0.74109  0.43619  0.07400  1.0000
  C   C34       1.0  0.25891  0.56381  0.92599  1.0000
  C   C35       1.0  0.57307  0.39940  0.08472  1.0000
  C   C36       1.0  0.42691  0.60060  0.91528  1.0000
  C   C37       1.0  0.42889  0.49030  0.11896  1.0000
  C   C38       1.0  0.57110  0.50970  0.88104  1.0000
  C   C39       1.0  0.30333  0.40890  0.11840  1.0000
  C   C40       1.0  0.69666  0.59110  0.88161  1.0000
  C   C41       1.0  0.12538  0.44701  0.14688  1.0000
  C   C42       1.0  0.87461  0.55299  0.85313  1.0000
  N   N1        1.0  0.53687  0.26910  0.06410  1.0000
  N   N2        1.0  0.46312  0.73090  0.93590  1.0000
  N   N3        1.0  0.37308  0.27703  0.08451  1.0000
  N   N4        1.0  0.62689  0.72298  0.91549  1.0000
  Cl  Cl1       1.0  0.50607  0.10300  0.90317  1.0000
  Cl  Cl2       1.0  0.49393  0.89700  0.09682  1.0000
  O   O1        1.0  0.84662  0.92834  0.95502  1.0000
  O   O2        1.0  0.15338  0.07167  0.04498  1.0000
  O   O3        1.0  0.97807  0.15065  0.89715  1.0000
  O   O4        1.0  0.02192  0.84935  0.10284  1.0000
  O   O5        1.0  0.15442  0.88920  0.90729  1.0000
  O   O6        1.0  0.84558  0.11080  0.09271  1.0000
