data_image0
_chemical_formula_structural       Tl2H46C28S2N8O4
_chemical_formula_sum              "Tl2 H46 C28 S2 N8 O4"
_cell_length_a       7.30733
_cell_length_b       8.3134
_cell_length_c       16.3079
_cell_angle_alpha    95.066
_cell_angle_beta     95.23
_cell_angle_gamma    102.845

_space_group_name_H-M_alt    "P 1"
_space_group_IT_number       1

loop_
  _space_group_symop_operation_xyz
  'x, y, z'

loop_
  _atom_site_type_symbol
  _atom_site_label
  _atom_site_symmetry_multiplicity
  _atom_site_fract_x
  _atom_site_fract_y
  _atom_site_fract_z
  _atom_site_occupancy
  Tl  Tl1       1.0  0.01925  0.23841  0.00860  1.0000
  Tl  Tl2       1.0  0.98075  0.76160  0.99140  1.0000
  H   H1        1.0  0.12678  0.52192  0.81658  1.0000
  H   H2        1.0  0.87324  0.47805  0.18342  1.0000
  H   H3        1.0  0.66430  0.95211  0.39124  1.0000
  H   H4        1.0  0.33569  0.04789  0.60875  1.0000
  H   H5        1.0  0.53078  0.09521  0.42374  1.0000
  H   H6        1.0  0.46920  0.90479  0.57625  1.0000
  H   H7        1.0  0.72827  0.16343  0.36846  1.0000
  H   H8        1.0  0.27171  0.83656  0.63154  1.0000
  H   H9        1.0  0.13276  0.13162  0.75585  1.0000
  H   H10       1.0  0.86724  0.86840  0.24414  1.0000
  H   H11       1.0  0.21693  0.34460  0.74365  1.0000
  H   H12       1.0  0.78310  0.65537  0.25634  1.0000
  H   H13       1.0  0.60500  0.34546  0.78900  1.0000
  H   H14       1.0  0.39501  0.65456  0.21100  1.0000
  H   H15       1.0  0.62527  0.25175  0.68794  1.0000
  H   H16       1.0  0.37473  0.74829  0.31206  1.0000
  H   H17       1.0  0.47795  0.13877  0.75438  1.0000
  H   H18       1.0  0.52205  0.86123  0.24563  1.0000
  H   H19       1.0  0.18523  0.52366  0.66002  1.0000
  H   H20       1.0  0.81477  0.47631  0.33997  1.0000
  H   H21       1.0  0.09010  0.56684  0.56413  1.0000
  H   H22       1.0  0.90989  0.43314  0.43587  1.0000
  H   H23       1.0  0.46917  0.92640  0.79155  1.0000
  H   H24       1.0  0.53084  0.07361  0.20845  1.0000
  H   H25       1.0  0.57952  0.83515  0.87023  1.0000
  H   H26       1.0  0.42049  0.16487  0.12977  1.0000
  H   H27       1.0  0.74224  0.70025  0.76537  1.0000
  H   H28       1.0  0.25778  0.29977  0.23464  1.0000
  H   H29       1.0  0.62254  0.78496  0.68501  1.0000
  H   H30       1.0  0.37746  0.21505  0.31499  1.0000
  H   H31       1.0  0.49012  0.50536  0.72393  1.0000
  H   H32       1.0  0.50992  0.49465  0.27610  1.0000
  H   H33       1.0  0.91221  0.94314  0.65531  1.0000
  H   H34       1.0  0.08774  0.05682  0.34468  1.0000
  H   H35       1.0  0.64897  0.21814  0.96319  1.0000
  H   H36       1.0  0.35101  0.78186  0.03683  1.0000
  H   H37       1.0  0.67271  0.05179  0.02450  1.0000
  H   H38       1.0  0.32730  0.94822  0.97553  1.0000
  H   H39       1.0  0.69644  0.25707  0.07459  1.0000
  H   H40       1.0  0.30357  0.74293  0.92542  1.0000
  H   H41       1.0  0.39767  0.35430  0.04060  1.0000
  H   H42       1.0  0.60234  0.64571  0.95939  1.0000
  H   H43       1.0  0.30305  0.47155  0.96801  1.0000
  H   H44       1.0  0.69693  0.52845  0.03198  1.0000
  H   H45       1.0  0.33822  0.26986  0.93303  1.0000
  H   H46       1.0  0.66173  0.73014  0.06695  1.0000
  C   C1        1.0  0.90579  0.04283  0.61633  1.0000
  C   C2        1.0  0.09418  0.95715  0.38367  1.0000
  C   C3        1.0  0.79780  0.12410  0.49555  1.0000
  C   C4        1.0  0.20219  0.87589  0.50445  1.0000
  C   C5        1.0  0.67438  0.08181  0.41442  1.0000
  C   C6        1.0  0.32562  0.91818  0.58558  1.0000
  C   C7        1.0  0.99572  0.32629  0.59104  1.0000
  C   C8        1.0  0.00427  0.67369  0.40895  1.0000
  C   C9        1.0  0.00297  0.20337  0.64595  1.0000
  C   C10       1.0  0.99699  0.79662  0.35405  1.0000
  C   C11       1.0  0.09132  0.24128  0.73397  1.0000
  C   C12       1.0  0.90868  0.75872  0.26602  1.0000
  C   C13       1.0  0.99231  0.44115  0.82938  1.0000
  C   C14       1.0  0.00772  0.55886  0.17062  1.0000
  C   C15       1.0  0.77779  0.17000  0.78959  1.0000
  C   C16       1.0  0.22221  0.83001  0.21041  1.0000
  C   C17       1.0  0.61148  0.22873  0.75293  1.0000
  C   C18       1.0  0.38851  0.77128  0.24708  1.0000
  C   C19       1.0  0.77378  0.02101  0.81892  1.0000
  C   C20       1.0  0.22621  0.97900  0.18109  1.0000
  C   C21       1.0  0.59673  0.88303  0.81002  1.0000
  C   C22       1.0  0.40328  0.11698  0.18999  1.0000
  C   C23       1.0  0.61312  0.74164  0.74679  1.0000
  C   C24       1.0  0.38690  0.25837  0.25321  1.0000
  C   C25       1.0  0.71959  0.18434  0.01886  1.0000
  C   C26       1.0  0.28043  0.81567  0.98116  1.0000
  C   C27       1.0  0.30199  0.34653  0.98417  1.0000
  C   C28       1.0  0.69800  0.65347  0.01582  1.0000
  S   S1        1.0  0.97984  0.97431  0.86537  1.0000
  S   S2        1.0  0.02015  0.02570  0.13464  1.0000
  N   N1        1.0  0.80107  0.99914  0.54225  1.0000
  N   N2        1.0  0.19891  0.00084  0.45775  1.0000
  N   N3        1.0  0.89212  0.28264  0.51570  1.0000
  N   N4        1.0  0.10788  0.71734  0.48430  1.0000
  N   N5        1.0  0.08480  0.48763  0.61036  1.0000
  N   N6        1.0  0.91520  0.51234  0.38964  1.0000
  N   N7        1.0  0.95633  0.28669  0.78925  1.0000
  N   N8        1.0  0.04367  0.71333  0.21074  1.0000
  O   O1        1.0  0.44940  0.60436  0.74350  1.0000
  O   O2        1.0  0.55062  0.39565  0.25651  1.0000
  O   O3        1.0  0.88792  0.49004  0.87760  1.0000
  O   O4        1.0  0.11209  0.50998  0.12242  1.0000
