data_image0
_chemical_formula_structural       Cd2H44C42N12O8
_chemical_formula_sum              "Cd2 H44 C42 N12 O8"
_cell_length_a       11.169
_cell_length_b       12.0823
_cell_length_c       12.2494
_cell_angle_alpha    60.3043
_cell_angle_beta     76.97
_cell_angle_gamma    70.376

_space_group_name_H-M_alt    "P 1"
_space_group_IT_number       1

loop_
  _space_group_symop_operation_xyz
  'x, y, z'

loop_
  _atom_site_type_symbol
  _atom_site_label
  _atom_site_symmetry_multiplicity
  _atom_site_fract_x
  _atom_site_fract_y
  _atom_site_fract_z
  _atom_site_occupancy
  Cd  Cd1       1.0  0.23764  0.29177  0.24067  1.0000
  Cd  Cd2       1.0  0.76236  0.70823  0.75933  1.0000
  H   H1        1.0  0.80318  0.18967  0.99232  1.0000
  H   H2        1.0  0.19682  0.81033  0.00768  1.0000
  H   H3        1.0  0.78073  0.78630  0.19521  1.0000
  H   H4        1.0  0.21927  0.21370  0.80479  1.0000
  H   H5        1.0  0.03334  0.90647  0.30782  1.0000
  H   H6        1.0  0.96666  0.09353  0.69217  1.0000
  H   H7        1.0  0.05941  0.08032  0.30468  1.0000
  H   H8        1.0  0.94059  0.91968  0.69532  1.0000
  H   H9        1.0  0.08533  0.42289  0.96566  1.0000
  H   H10       1.0  0.91468  0.57711  0.03434  1.0000
  H   H11       1.0  0.94566  0.29395  0.92897  1.0000
  H   H12       1.0  0.05434  0.70605  0.07103  1.0000
  H   H13       1.0  0.67122  0.12000  0.92313  1.0000
  H   H14       1.0  0.32878  0.88000  0.07687  1.0000
  H   H15       1.0  0.68245  0.94941  0.98264  1.0000
  H   H16       1.0  0.31755  0.05059  0.01736  1.0000
  H   H17       1.0  0.49451  0.25382  0.01844  1.0000
  H   H18       1.0  0.50549  0.74617  0.98156  1.0000
  H   H19       1.0  0.34784  0.95396  0.32721  1.0000
  H   H20       1.0  0.65217  0.04604  0.67279  1.0000
  H   H21       1.0  0.55465  0.83764  0.20632  1.0000
  H   H22       1.0  0.44535  0.16236  0.79367  1.0000
  H   H23       1.0  0.01724  0.68784  0.42486  1.0000
  H   H24       1.0  0.98276  0.31216  0.57514  1.0000
  H   H25       1.0  0.85250  0.69863  0.45049  1.0000
  H   H26       1.0  0.14750  0.30137  0.54951  1.0000
  H   H27       1.0  0.15769  0.56725  0.28382  1.0000
  H   H28       1.0  0.84231  0.43275  0.71618  1.0000
  H   H29       1.0  0.90194  0.35888  0.32413  1.0000
  H   H30       1.0  0.09806  0.64112  0.67587  1.0000
  H   H31       1.0  0.77353  0.55198  0.40421  1.0000
  H   H32       1.0  0.22647  0.44802  0.59579  1.0000
  H   H33       1.0  0.43257  0.91894  0.58096  1.0000
  H   H34       1.0  0.56742  0.08106  0.41903  1.0000
  H   H35       1.0  0.27904  0.90859  0.66000  1.0000
  H   H36       1.0  0.72096  0.09141  0.34000  1.0000
  H   H37       1.0  0.35942  0.01343  0.66313  1.0000
  H   H38       1.0  0.64058  0.98657  0.33687  1.0000
  H   H39       1.0  0.36246  0.72796  0.86910  1.0000
  H   H40       1.0  0.63754  0.27204  0.13090  1.0000
  H   H41       1.0  0.29019  0.64035  0.83155  1.0000
  H   H42       1.0  0.70981  0.35965  0.16845  1.0000
  H   H43       1.0  0.45163  0.57541  0.86700  1.0000
  H   H44       1.0  0.54837  0.42459  0.13300  1.0000
  C   C1        1.0  0.92942  0.05675  0.14398  1.0000
  C   C2        1.0  0.07058  0.94325  0.85602  1.0000
  C   C3        1.0  0.83794  0.08821  0.06471  1.0000
  C   C4        1.0  0.16206  0.91179  0.93529  1.0000
  C   C5        1.0  0.78480  0.99020  0.08377  1.0000
  C   C6        1.0  0.21520  0.00980  0.91623  1.0000
  C   C7        1.0  0.82173  0.86275  0.18173  1.0000
  C   C8        1.0  0.17827  0.13725  0.81827  1.0000
  C   C9        1.0  0.90811  0.83354  0.26473  1.0000
  C   C10       1.0  0.09189  0.16646  0.73526  1.0000
  C   C11       1.0  0.96408  0.93012  0.24434  1.0000
  C   C12       1.0  0.03592  0.06988  0.75566  1.0000
  C   C13       1.0  0.04891  0.15494  0.20725  1.0000
  C   C14       1.0  0.95109  0.84506  0.79275  1.0000
  C   C15       1.0  0.05871  0.33201  0.03050  1.0000
  C   C16       1.0  0.94129  0.66799  0.96950  1.0000
  C   C17       1.0  0.99139  0.26852  0.01023  1.0000
  C   C18       1.0  0.00861  0.73148  0.98977  1.0000
  C   C19       1.0  0.67527  0.02610  0.00912  1.0000
  C   C20       1.0  0.32473  0.97390  0.99088  1.0000
  C   C21       1.0  0.48084  0.15705  0.08630  1.0000
  C   C22       1.0  0.51916  0.84294  0.91370  1.0000
  C   C23       1.0  0.40916  0.99816  0.24455  1.0000
  C   C24       1.0  0.59084  0.00184  0.75545  1.0000
  C   C25       1.0  0.51094  0.93983  0.18642  1.0000
  C   C26       1.0  0.48906  0.06017  0.81358  1.0000
  C   C27       1.0  0.93466  0.70171  0.38069  1.0000
  C   C28       1.0  0.06534  0.29829  0.61931  1.0000
  C   C29       1.0  0.07139  0.53451  0.30850  1.0000
  C   C30       1.0  0.92861  0.46549  0.69150  1.0000
  C   C31       1.0  0.93582  0.43106  0.32803  1.0000
  C   C32       1.0  0.06418  0.56894  0.67197  1.0000
  C   C33       1.0  0.87092  0.52574  0.36749  1.0000
  C   C34       1.0  0.12908  0.47426  0.63252  1.0000
  C   C35       1.0  0.34022  0.97562  0.60570  1.0000
  C   C36       1.0  0.65978  0.02438  0.39430  1.0000
  C   C37       1.0  0.28174  0.08743  0.48540  1.0000
  C   C38       1.0  0.71826  0.91257  0.51461  1.0000
  C   C39       1.0  0.35779  0.62998  0.89095  1.0000
  C   C40       1.0  0.64221  0.37002  0.10905  1.0000
  C   C41       1.0  0.31744  0.55125  0.02918  1.0000
  C   C42       1.0  0.68255  0.44875  0.97082  1.0000
  N   N1        1.0  0.98615  0.15511  0.12290  1.0000
  N   N2        1.0  0.01385  0.84489  0.87710  1.0000
  N   N3        1.0  0.09311  0.26063  0.15337  1.0000
  N   N4        1.0  0.90689  0.73937  0.84663  1.0000
  N   N5        1.0  0.55504  0.04180  0.08544  1.0000
  N   N6        1.0  0.44496  0.95819  0.91456  1.0000
  N   N7        1.0  0.39159  0.13321  0.18122  1.0000
  N   N8        1.0  0.60841  0.86679  0.81878  1.0000
  N   N9        1.0  0.95857  0.59010  0.35498  1.0000
  N   N10       1.0  0.04143  0.40990  0.64502  1.0000
  N   N11       1.0  0.06028  0.43787  0.29184  1.0000
  N   N12       1.0  0.93972  0.56213  0.70816  1.0000
  O   O1        1.0  0.20163  0.07302  0.43795  1.0000
  O   O2        1.0  0.79837  0.92697  0.56205  1.0000
  O   O3        1.0  0.32080  0.19310  0.43298  1.0000
  O   O4        1.0  0.67920  0.80690  0.56702  1.0000
  O   O5        1.0  0.30847  0.43650  0.05691  1.0000
  O   O6        1.0  0.69153  0.56350  0.94309  1.0000
  O   O7        1.0  0.29643  0.59895  0.10501  1.0000
  O   O8        1.0  0.70357  0.40106  0.89499  1.0000
