data_image0
_chemical_formula_structural       Cu4H44C52Br4N8O4
_chemical_formula_sum              "Cu4 H44 C52 Br4 N8 O4"
_cell_length_a       7.00178
_cell_length_b       11.0912
_cell_length_c       15.3177
_cell_angle_alpha    90.0012
_cell_angle_beta     90.001
_cell_angle_gamma    94.7712

_space_group_name_H-M_alt    "P 1"
_space_group_IT_number       1

loop_
  _space_group_symop_operation_xyz
  'x, y, z'

loop_
  _atom_site_type_symbol
  _atom_site_label
  _atom_site_symmetry_multiplicity
  _atom_site_fract_x
  _atom_site_fract_y
  _atom_site_fract_z
  _atom_site_occupancy
  Cu  Cu1       1.0  0.32999  0.06909  0.70056  1.0000
  Cu  Cu2       1.0  0.16979  0.93088  0.20053  1.0000
  Cu  Cu3       1.0  0.66979  0.93088  0.29947  1.0000
  Cu  Cu4       1.0  0.82998  0.06908  0.79945  1.0000
  H   H1        1.0  0.24744  0.95037  0.46534  1.0000
  H   H2        1.0  0.25260  0.04962  0.96533  1.0000
  H   H3        1.0  0.75263  0.04962  0.53467  1.0000
  H   H4        1.0  0.74744  0.95038  0.03466  1.0000
  H   H5        1.0  0.43863  0.56209  0.54737  1.0000
  H   H6        1.0  0.06138  0.43792  0.04737  1.0000
  H   H7        1.0  0.56137  0.43792  0.45263  1.0000
  H   H8        1.0  0.93864  0.56209  0.95263  1.0000
  H   H9        1.0  0.11809  0.13917  0.39534  1.0000
  H   H10       1.0  0.38190  0.86081  0.89534  1.0000
  H   H11       1.0  0.88189  0.86081  0.60466  1.0000
  H   H12       1.0  0.61808  0.13918  0.10466  1.0000
  H   H13       1.0  0.58523  0.72443  0.79700  1.0000
  H   H14       1.0  0.91474  0.27557  0.29699  1.0000
  H   H15       1.0  0.41475  0.27555  0.20301  1.0000
  H   H16       1.0  0.08524  0.72443  0.70300  1.0000
  H   H17       1.0  0.20661  0.33143  0.68468  1.0000
  H   H18       1.0  0.29341  0.66858  0.18467  1.0000
  H   H19       1.0  0.79339  0.66857  0.31532  1.0000
  H   H20       1.0  0.70661  0.33142  0.81532  1.0000
  H   H21       1.0  0.32098  0.75480  0.49567  1.0000
  H   H22       1.0  0.17903  0.24521  0.99567  1.0000
  H   H23       1.0  0.67901  0.24521  0.50434  1.0000
  H   H24       1.0  0.82099  0.75480  0.00433  1.0000
  H   H25       1.0  0.09689  0.45577  0.56003  1.0000
  H   H26       1.0  0.40312  0.54423  0.06003  1.0000
  H   H27       1.0  0.90310  0.54423  0.43997  1.0000
  H   H28       1.0  0.59690  0.45577  0.93997  1.0000
  H   H29       1.0  0.04686  0.35597  0.41283  1.0000
  H   H30       1.0  0.45314  0.64402  0.91283  1.0000
  H   H31       1.0  0.95314  0.64402  0.58716  1.0000
  H   H32       1.0  0.54685  0.35597  0.08717  1.0000
  H   H33       1.0  0.68293  0.53014  0.76448  1.0000
  H   H34       1.0  0.81707  0.46986  0.26448  1.0000
  H   H35       1.0  0.31706  0.46985  0.23552  1.0000
  H   H36       1.0  0.18294  0.53014  0.73552  1.0000
  H   H37       1.0  0.69327  0.48089  0.65406  1.0000
  H   H38       1.0  0.80672  0.51912  0.15407  1.0000
  H   H39       1.0  0.30673  0.51911  0.34594  1.0000
  H   H40       1.0  0.19328  0.48089  0.84594  1.0000
  H   H41       1.0  0.48529  0.44399  0.71581  1.0000
  H   H42       1.0  0.01471  0.55601  0.21581  1.0000
  H   H43       1.0  0.51472  0.55600  0.28419  1.0000
  H   H44       1.0  0.98529  0.44399  0.78419  1.0000
  C   C1        1.0  0.20527  0.12507  0.53014  1.0000
  C   C2        1.0  0.29474  0.87493  0.03013  1.0000
  C   C3        1.0  0.79475  0.87493  0.46986  1.0000
  C   C4        1.0  0.70526  0.12507  0.96986  1.0000
  C   C5        1.0  0.25804  0.00167  0.52666  1.0000
  C   C6        1.0  0.24195  0.99832  0.02665  1.0000
  C   C7        1.0  0.74197  0.99832  0.47335  1.0000
  C   C8        1.0  0.75803  0.00168  0.97334  1.0000
  C   C9        1.0  0.44258  0.64023  0.59078  1.0000
  C   C10       1.0  0.05743  0.35978  0.09078  1.0000
  C   C11       1.0  0.55742  0.35977  0.40922  1.0000
  C   C12       1.0  0.94259  0.64023  0.90922  1.0000
  C   C13       1.0  0.45022  0.83988  0.70651  1.0000
  C   C14       1.0  0.04976  0.16013  0.20650  1.0000
  C   C15       1.0  0.54976  0.16012  0.29350  1.0000
  C   C16       1.0  0.95022  0.83987  0.79349  1.0000
  C   C17       1.0  0.38207  0.84756  0.61853  1.0000
  C   C18       1.0  0.11791  0.15244  0.11851  1.0000
  C   C19       1.0  0.61791  0.15243  0.38149  1.0000
  C   C20       1.0  0.88207  0.84756  0.88147  1.0000
  C   C21       1.0  0.13632  0.18572  0.45813  1.0000
  C   C22       1.0  0.36368  0.81427  0.95813  1.0000
  C   C23       1.0  0.86369  0.81427  0.54187  1.0000
  C   C24       1.0  0.63631  0.18573  0.04187  1.0000
  C   C25       1.0  0.52120  0.63175  0.67558  1.0000
  C   C26       1.0  0.97878  0.36825  0.17558  1.0000
  C   C27       1.0  0.47878  0.36825  0.32442  1.0000
  C   C28       1.0  0.02121  0.63175  0.82442  1.0000
  C   C29       1.0  0.52396  0.73017  0.73194  1.0000
  C   C30       1.0  0.97602  0.26983  0.23193  1.0000
  C   C31       1.0  0.47602  0.26982  0.26807  1.0000
  C   C32       1.0  0.02396  0.73017  0.76806  1.0000
  C   C33       1.0  0.18868  0.29457  0.61900  1.0000
  C   C34       1.0  0.31134  0.70543  0.11900  1.0000
  C   C35       1.0  0.81133  0.70542  0.38100  1.0000
  C   C36       1.0  0.68868  0.29457  0.88100  1.0000
  C   C37       1.0  0.37635  0.74730  0.56186  1.0000
  C   C38       1.0  0.12365  0.25271  0.06186  1.0000
  C   C39       1.0  0.62364  0.25271  0.43815  1.0000
  C   C40       1.0  0.87636  0.74730  0.93814  1.0000
  C   C41       1.0  0.12419  0.36163  0.54952  1.0000
  C   C42       1.0  0.37584  0.63837  0.04952  1.0000
  C   C43       1.0  0.87583  0.63836  0.45048  1.0000
  C   C44       1.0  0.62418  0.36163  0.95048  1.0000
  C   C45       1.0  0.09707  0.30607  0.46839  1.0000
  C   C46       1.0  0.40294  0.69392  0.96839  1.0000
  C   C47       1.0  0.90294  0.69392  0.53161  1.0000
  C   C48       1.0  0.59707  0.30608  0.03161  1.0000
  C   C49       1.0  0.60000  0.51625  0.70409  1.0000
  C   C50       1.0  0.89999  0.48375  0.20409  1.0000
  C   C51       1.0  0.39999  0.48375  0.29591  1.0000
  C   C52       1.0  0.10001  0.51625  0.79591  1.0000
  Br  Br1       1.0  0.22469  0.17785  0.82490  1.0000
  Br  Br2       1.0  0.27554  0.82225  0.32488  1.0000
  Br  Br3       1.0  0.77556  0.82222  0.17513  1.0000
  Br  Br4       1.0  0.72471  0.17787  0.67511  1.0000
  N   N1        1.0  0.32099  0.95935  0.59943  1.0000
  N   N2        1.0  0.17895  0.04065  0.09940  1.0000
  N   N3        1.0  0.67896  0.04064  0.40059  1.0000
  N   N4        1.0  0.82098  0.95935  0.90057  1.0000
  N   N5        1.0  0.22994  0.18015  0.60953  1.0000
  N   N6        1.0  0.27009  0.81985  0.10952  1.0000
  N   N7        1.0  0.77009  0.81985  0.39048  1.0000
  N   N8        1.0  0.72992  0.18015  0.89048  1.0000
  O   O1        1.0  0.44232  0.93187  0.76027  1.0000
  O   O2        1.0  0.05768  0.06814  0.26026  1.0000
  O   O3        1.0  0.55768  0.06812  0.23974  1.0000
  O   O4        1.0  0.94230  0.93186  0.73973  1.0000
