data_image0
_chemical_formula_structural       Cu4H44C52N8Cl4O4
_chemical_formula_sum              "Cu4 H44 C52 N8 Cl4 O4"
_cell_length_a       6.9114
_cell_length_b       11.1863
_cell_length_c       15.186
_cell_angle_alpha    90
_cell_angle_beta     90
_cell_angle_gamma    94.7665

_space_group_name_H-M_alt    "P 1"
_space_group_IT_number       1

loop_
  _space_group_symop_operation_xyz
  'x, y, z'

loop_
  _atom_site_type_symbol
  _atom_site_label
  _atom_site_symmetry_multiplicity
  _atom_site_fract_x
  _atom_site_fract_y
  _atom_site_fract_z
  _atom_site_occupancy
  Cu  Cu1       1.0  0.18661  0.43852  0.70618  1.0000
  Cu  Cu2       1.0  0.31339  0.56147  0.20618  1.0000
  Cu  Cu3       1.0  0.81339  0.56148  0.29382  1.0000
  Cu  Cu4       1.0  0.68661  0.43852  0.79382  1.0000
  H   H1        1.0  0.24678  0.54297  0.46473  1.0000
  H   H2        1.0  0.25322  0.45703  0.96473  1.0000
  H   H3        1.0  0.75322  0.45704  0.53527  1.0000
  H   H4        1.0  0.74678  0.54296  0.03527  1.0000
  H   H5        1.0  0.37776  0.35305  0.39745  1.0000
  H   H6        1.0  0.12225  0.64696  0.89745  1.0000
  H   H7        1.0  0.62225  0.64696  0.60255  1.0000
  H   H8        1.0  0.87775  0.35305  0.10255  1.0000
  H   H9        1.0  0.92177  0.78320  0.79579  1.0000
  H   H10       1.0  0.57823  0.21680  0.29579  1.0000
  H   H11       1.0  0.07823  0.21680  0.20421  1.0000
  H   H12       1.0  0.42176  0.78320  0.70421  1.0000
  H   H13       1.0  0.17672  0.73667  0.49092  1.0000
  H   H14       1.0  0.32328  0.26332  0.99092  1.0000
  H   H15       1.0  0.82328  0.26333  0.50908  1.0000
  H   H16       1.0  0.67672  0.73667  0.00908  1.0000
  H   H17       1.0  0.31629  0.17957  0.69608  1.0000
  H   H18       1.0  0.18371  0.82043  0.19609  1.0000
  H   H19       1.0  0.68370  0.82044  0.30392  1.0000
  H   H20       1.0  0.81629  0.17956  0.80391  1.0000
  H   H21       1.0  0.45679  0.14028  0.42021  1.0000
  H   H22       1.0  0.04321  0.85972  0.92022  1.0000
  H   H23       1.0  0.54321  0.85972  0.57978  1.0000
  H   H24       1.0  0.95679  0.14028  0.07978  1.0000
  H   H25       1.0  0.82200  0.97456  0.75801  1.0000
  H   H26       1.0  0.67800  0.02543  0.25801  1.0000
  H   H27       1.0  0.17800  0.02543  0.24199  1.0000
  H   H28       1.0  0.32200  0.97457  0.74199  1.0000
  H   H29       1.0  0.81162  0.01868  0.64561  1.0000
  H   H30       1.0  0.68838  0.98132  0.14561  1.0000
  H   H31       1.0  0.18838  0.98132  0.35439  1.0000
  H   H32       1.0  0.31162  0.01868  0.85439  1.0000
  H   H33       1.0  0.02372  0.05624  0.70684  1.0000
  H   H34       1.0  0.47628  0.94376  0.20684  1.0000
  H   H35       1.0  0.97628  0.94376  0.29317  1.0000
  H   H36       1.0  0.52372  0.05624  0.79316  1.0000
  H   H37       1.0  0.06231  0.93094  0.53893  1.0000
  H   H38       1.0  0.43770  0.06906  0.03893  1.0000
  H   H39       1.0  0.93769  0.06906  0.46107  1.0000
  H   H40       1.0  0.56230  0.93094  0.96106  1.0000
  H   H41       1.0  0.42059  0.04957  0.57198  1.0000
  H   H42       1.0  0.07941  0.95043  0.07199  1.0000
  H   H43       1.0  0.57941  0.95043  0.42802  1.0000
  H   H44       1.0  0.92059  0.04957  0.92802  1.0000
  C   C1        1.0  0.11952  0.65157  0.61776  1.0000
  C   C2        1.0  0.38048  0.34843  0.11776  1.0000
  C   C3        1.0  0.88048  0.34844  0.38224  1.0000
  C   C4        1.0  0.61952  0.65157  0.88223  1.0000
  C   C5        1.0  0.24172  0.49517  0.52788  1.0000
  C   C6        1.0  0.25828  0.50484  0.02788  1.0000
  C   C7        1.0  0.75828  0.50484  0.47212  1.0000
  C   C8        1.0  0.74172  0.49516  0.97211  1.0000
  C   C9        1.0  0.36471  0.31032  0.46221  1.0000
  C   C10       1.0  0.13529  0.68969  0.96221  1.0000
  C   C11       1.0  0.63529  0.68969  0.53779  1.0000
  C   C12       1.0  0.86471  0.31031  0.03778  1.0000
  C   C13       1.0  0.98101  0.77385  0.72992  1.0000
  C   C14       1.0  0.51899  0.22615  0.22992  1.0000
  C   C15       1.0  0.01898  0.22615  0.27008  1.0000
  C   C16       1.0  0.48101  0.77385  0.77008  1.0000
  C   C17       1.0  0.12384  0.74781  0.55791  1.0000
  C   C18       1.0  0.37617  0.25219  0.05791  1.0000
  C   C19       1.0  0.87617  0.25219  0.44209  1.0000
  C   C20       1.0  0.62384  0.74781  0.94209  1.0000
  C   C21       1.0  0.05331  0.66342  0.70654  1.0000
  C   C22       1.0  0.44669  0.33658  0.20654  1.0000
  C   C23       1.0  0.94669  0.33658  0.29346  1.0000
  C   C24       1.0  0.55331  0.66342  0.79345  1.0000
  C   C25       1.0  0.32750  0.21168  0.62835  1.0000
  C   C26       1.0  0.17250  0.78832  0.12836  1.0000
  C   C27       1.0  0.67250  0.78832  0.37164  1.0000
  C   C28       1.0  0.82750  0.21168  0.87164  1.0000
  C   C29       1.0  0.29869  0.37370  0.53397  1.0000
  C   C30       1.0  0.20132  0.62630  0.03398  1.0000
  C   C31       1.0  0.70132  0.62630  0.46603  1.0000
  C   C32       1.0  0.79868  0.37370  0.96602  1.0000
  C   C33       1.0  0.98296  0.86868  0.67051  1.0000
  C   C34       1.0  0.51704  0.13132  0.17051  1.0000
  C   C35       1.0  0.01704  0.13133  0.32949  1.0000
  C   C36       1.0  0.48296  0.86867  0.82949  1.0000
  C   C37       1.0  0.40830  0.19218  0.47549  1.0000
  C   C38       1.0  0.09170  0.80782  0.97550  1.0000
  C   C39       1.0  0.59170  0.80782  0.52451  1.0000
  C   C40       1.0  0.90830  0.19218  0.02451  1.0000
  C   C41       1.0  0.90579  0.98511  0.69682  1.0000
  C   C42       1.0  0.59421  0.01488  0.19682  1.0000
  C   C43       1.0  0.09420  0.01488  0.30318  1.0000
  C   C44       1.0  0.40579  0.98511  0.80318  1.0000
  C   C45       1.0  0.05908  0.85575  0.58477  1.0000
  C   C46       1.0  0.44092  0.14425  0.08477  1.0000
  C   C47       1.0  0.94092  0.14425  0.41523  1.0000
  C   C48       1.0  0.55908  0.85575  0.91523  1.0000
  C   C49       1.0  0.38893  0.14173  0.55924  1.0000
  C   C50       1.0  0.11107  0.85827  0.05924  1.0000
  C   C51       1.0  0.61107  0.85828  0.44076  1.0000
  C   C52       1.0  0.88893  0.14172  0.94076  1.0000
  N   N1        1.0  0.18196  0.54010  0.60100  1.0000
  N   N2        1.0  0.31804  0.45990  0.10100  1.0000
  N   N3        1.0  0.81805  0.45990  0.39900  1.0000
  N   N4        1.0  0.68196  0.54010  0.89899  1.0000
  N   N5        1.0  0.28132  0.32368  0.61583  1.0000
  N   N6        1.0  0.21868  0.67632  0.11583  1.0000
  N   N7        1.0  0.71868  0.67633  0.38417  1.0000
  N   N8        1.0  0.78132  0.32367  0.88417  1.0000
  Cl  Cl1       1.0  0.27392  0.33785  0.82531  1.0000
  Cl  Cl2       1.0  0.22608  0.66215  0.32531  1.0000
  Cl  Cl3       1.0  0.72608  0.66215  0.17469  1.0000
  Cl  Cl4       1.0  0.77392  0.33785  0.67469  1.0000
  O   O1        1.0  0.06182  0.57423  0.76273  1.0000
  O   O2        1.0  0.43818  0.42577  0.26273  1.0000
  O   O3        1.0  0.93818  0.42577  0.23727  1.0000
  O   O4        1.0  0.56182  0.57423  0.73726  1.0000
