data_image0
_chemical_formula_structural       La4H44C16S6N4O40
_chemical_formula_sum              "La4 H44 C16 S6 N4 O40"
_cell_length_a       6.68498
_cell_length_b       12.7307
_cell_length_c       13.5986
_cell_angle_alpha    79.0916
_cell_angle_beta     75.8508
_cell_angle_gamma    74.789

_space_group_name_H-M_alt    "P 1"
_space_group_IT_number       1

loop_
  _space_group_symop_operation_xyz
  'x, y, z'

loop_
  _atom_site_type_symbol
  _atom_site_label
  _atom_site_symmetry_multiplicity
  _atom_site_fract_x
  _atom_site_fract_y
  _atom_site_fract_z
  _atom_site_occupancy
  La  La1       1.0  0.72107  0.54864  0.13109  1.0000
  La  La2       1.0  0.40096  0.95131  0.36885  1.0000
  La  La3       1.0  0.27893  0.45136  0.86891  1.0000
  La  La4       1.0  0.59904  0.04869  0.63115  1.0000
  H   H1        1.0  0.34643  0.74898  0.97452  1.0000
  H   H2        1.0  0.07036  0.75092  0.52584  1.0000
  H   H3        1.0  0.65356  0.25102  0.02548  1.0000
  H   H4        1.0  0.92964  0.24908  0.47416  1.0000
  H   H5        1.0  0.19881  0.79311  0.87454  1.0000
  H   H6        1.0  0.86714  0.70672  0.62559  1.0000
  H   H7        1.0  0.80119  0.20689  0.12546  1.0000
  H   H8        1.0  0.13286  0.29328  0.37441  1.0000
  H   H9        1.0  0.29335  0.97663  0.90961  1.0000
  H   H10       1.0  0.18033  0.52332  0.59043  1.0000
  H   H11       1.0  0.70665  0.02337  0.09039  1.0000
  H   H12       1.0  0.81967  0.47668  0.40956  1.0000
  H   H13       1.0  0.35507  0.91047  0.03083  1.0000
  H   H14       1.0  0.29644  0.58948  0.46919  1.0000
  H   H15       1.0  0.64493  0.08953  0.96917  1.0000
  H   H16       1.0  0.70356  0.41051  0.53080  1.0000
  H   H17       1.0  0.78666  0.88577  0.96803  1.0000
  H   H18       1.0  0.64093  0.61440  0.53179  1.0000
  H   H19       1.0  0.21333  0.11423  0.03197  1.0000
  H   H20       1.0  0.35908  0.38560  0.46821  1.0000
  H   H21       1.0  0.94832  0.96454  0.87573  1.0000
  H   H22       1.0  0.78923  0.53554  0.62423  1.0000
  H   H23       1.0  0.05168  0.03546  0.12427  1.0000
  H   H24       1.0  0.21077  0.46446  0.37577  1.0000
  H   H25       1.0  0.89460  0.63851  0.27837  1.0000
  H   H26       1.0  0.81129  0.86146  0.22162  1.0000
  H   H27       1.0  0.10540  0.36149  0.72163  1.0000
  H   H28       1.0  0.18872  0.13854  0.77838  1.0000
  H   H29       1.0  0.54610  0.36159  0.26486  1.0000
  H   H30       1.0  0.17243  0.13842  0.23511  1.0000
  H   H31       1.0  0.45390  0.63841  0.73514  1.0000
  H   H32       1.0  0.82757  0.86158  0.76489  1.0000
  H   H33       1.0  0.65035  0.68307  0.31995  1.0000
  H   H34       1.0  0.65308  0.81700  0.17989  1.0000
  H   H35       1.0  0.34966  0.31693  0.68005  1.0000
  H   H36       1.0  0.34692  0.18301  0.82012  1.0000
  H   H37       1.0  0.03627  0.85862  0.08167  1.0000
  H   H38       1.0  0.97629  0.64140  0.41840  1.0000
  H   H39       1.0  0.96373  0.14138  0.91833  1.0000
  H   H40       1.0  0.02371  0.35860  0.58159  1.0000
  H   H41       1.0  0.77641  0.32532  0.28106  1.0000
  H   H42       1.0  0.38290  0.17441  0.21893  1.0000
  H   H43       1.0  0.22358  0.67468  0.71894  1.0000
  H   H44       1.0  0.61710  0.82559  0.78107  1.0000
  C   C1        1.0  0.06204  0.69046  0.00633  1.0000
  C   C2        1.0  0.75924  0.80948  0.49376  1.0000
  C   C3        1.0  0.93796  0.30954  0.99368  1.0000
  C   C4        1.0  0.24076  0.19052  0.50624  1.0000
  C   C5        1.0  0.18662  0.77789  0.95784  1.0000
  C   C6        1.0  0.92282  0.72204  0.54233  1.0000
  C   C7        1.0  0.81338  0.22211  0.04216  1.0000
  C   C8        1.0  0.07718  0.27796  0.45767  1.0000
  C   C9        1.0  0.22735  0.95631  0.99120  1.0000
  C   C10       1.0  0.17516  0.54363  0.50884  1.0000
  C   C11       1.0  0.77265  0.04369  0.00880  1.0000
  C   C12       1.0  0.82484  0.45637  0.49116  1.0000
  C   C13       1.0  0.89048  0.94237  0.95795  1.0000
  C   C14       1.0  0.79109  0.55768  0.54200  1.0000
  C   C15       1.0  0.10952  0.05764  0.04205  1.0000
  C   C16       1.0  0.20891  0.44232  0.45800  1.0000
  S   S1        1.0  0.28716  0.40692  0.14570  1.0000
  S   S2        1.0  0.84000  0.09295  0.35435  1.0000
  S   S3        1.0  0.71284  0.59308  0.85430  1.0000
  S   S4        1.0  0.16000  0.90705  0.64565  1.0000
  S   S5        1.0  0.23580  0.74996  0.24995  1.0000
  S   S6        1.0  0.76420  0.25005  0.75005  1.0000
  N   N1        1.0  0.08041  0.88215  0.00240  1.0000
  N   N2        1.0  0.96521  0.61783  0.49764  1.0000
  N   N3        1.0  0.91959  0.11785  0.99760  1.0000
  N   N4        1.0  0.03479  0.38217  0.50236  1.0000
  O   O1        1.0  0.90574  0.71201  0.07974  1.0000
  O   O2        1.0  0.69771  0.78791  0.42031  1.0000
  O   O3        1.0  0.09426  0.28799  0.92026  1.0000
  O   O4        1.0  0.30230  0.21209  0.57969  1.0000
  O   O5        1.0  0.40056  0.49672  0.13012  1.0000
  O   O6        1.0  0.02759  0.00306  0.36978  1.0000
  O   O7        1.0  0.59944  0.50328  0.86988  1.0000
  O   O8        1.0  0.97241  0.99694  0.63022  1.0000
  O   O9        1.0  0.32190  0.36278  0.04751  1.0000
  O   O10       1.0  0.73283  0.13690  0.45262  1.0000
  O   O11       1.0  0.67810  0.63722  0.95249  1.0000
  O   O12       1.0  0.26717  0.86310  0.54738  1.0000
  O   O13       1.0  0.12335  0.59975  0.97127  1.0000
  O   O14       1.0  0.69476  0.90018  0.52883  1.0000
  O   O15       1.0  0.87664  0.40025  0.02874  1.0000
  O   O16       1.0  0.30524  0.09982  0.47117  1.0000
  O   O17       1.0  0.65964  0.39170  0.27809  1.0000
  O   O18       1.0  0.32917  0.10817  0.22181  1.0000
  O   O19       1.0  0.34036  0.60830  0.72191  1.0000
  O   O20       1.0  0.67083  0.89183  0.77819  1.0000
  O   O21       1.0  0.05814  0.45046  0.18541  1.0000
  O   O22       1.0  0.69389  0.04965  0.31447  1.0000
  O   O23       1.0  0.94186  0.54954  0.81459  1.0000
  O   O24       1.0  0.30610  0.95035  0.68553  1.0000
  O   O25       1.0  0.75301  0.62098  0.29032  1.0000
  O   O26       1.0  0.66404  0.87901  0.20969  1.0000
  O   O27       1.0  0.24699  0.37902  0.70968  1.0000
  O   O28       1.0  0.33596  0.12099  0.79031  1.0000
  O   O29       1.0  0.37188  0.31683  0.22320  1.0000
  O   O30       1.0  0.91201  0.18315  0.27706  1.0000
  O   O31       1.0  0.62812  0.68317  0.77680  1.0000
  O   O32       1.0  0.08799  0.81685  0.72294  1.0000
  O   O33       1.0  0.42385  0.72029  0.16577  1.0000
  O   O34       1.0  0.31047  0.77964  0.33415  1.0000
  O   O35       1.0  0.57615  0.27971  0.83423  1.0000
  O   O36       1.0  0.68953  0.22036  0.66585  1.0000
  O   O37       1.0  0.13560  0.65482  0.29136  1.0000
  O   O38       1.0  0.08163  0.84507  0.20856  1.0000
  O   O39       1.0  0.86440  0.34518  0.70864  1.0000
  O   O40       1.0  0.91838  0.15494  0.79144  1.0000
