data_image0
_chemical_formula_structural       Sm4H44C16S6N4O40
_chemical_formula_sum              "Sm4 H44 C16 S6 N4 O40"
_cell_length_a       6.5874
_cell_length_b       12.557
_cell_length_c       13.4474
_cell_angle_alpha    79.5313
_cell_angle_beta     75.8205
_cell_angle_gamma    74.7931

_space_group_name_H-M_alt    "P 1"
_space_group_IT_number       1

loop_
  _space_group_symop_operation_xyz
  'x, y, z'

loop_
  _atom_site_type_symbol
  _atom_site_label
  _atom_site_symmetry_multiplicity
  _atom_site_fract_x
  _atom_site_fract_y
  _atom_site_fract_z
  _atom_site_occupancy
  Sm  Sm1       1.0  0.77989  0.95019  0.36790  1.0000
  Sm  Sm2       1.0  0.09798  0.54977  0.13208  1.0000
  Sm  Sm3       1.0  0.22011  0.04981  0.63210  1.0000
  Sm  Sm4       1.0  0.90202  0.45023  0.86792  1.0000
  H   H1        1.0  0.95396  0.13502  0.23902  1.0000
  H   H2        1.0  0.32783  0.36504  0.26103  1.0000
  H   H3        1.0  0.04604  0.86498  0.76098  1.0000
  H   H4        1.0  0.67217  0.63496  0.73897  1.0000
  H   H5        1.0  0.72128  0.17011  0.22097  1.0000
  H   H6        1.0  0.11227  0.32989  0.27905  1.0000
  H   H7        1.0  0.27872  0.82989  0.77903  1.0000
  H   H8        1.0  0.88773  0.67011  0.72095  1.0000
  H   H9        1.0  0.86138  0.81755  0.18192  1.0000
  H   H10       1.0  0.86072  0.68251  0.31808  1.0000
  H   H11       1.0  0.13862  0.18245  0.81808  1.0000
  H   H12       1.0  0.13928  0.31749  0.68192  1.0000
  H   H13       1.0  0.46450  0.64265  0.41801  1.0000
  H   H14       1.0  0.52506  0.85746  0.08204  1.0000
  H   H15       1.0  0.53550  0.35735  0.58199  1.0000
  H   H16       1.0  0.47494  0.14254  0.91796  1.0000
  H   H17       1.0  0.29404  0.70920  0.62730  1.0000
  H   H18       1.0  0.63056  0.79074  0.87281  1.0000
  H   H19       1.0  0.70596  0.29080  0.37269  1.0000
  H   H20       1.0  0.36944  0.20926  0.12719  1.0000
  H   H21       1.0  0.14659  0.75374  0.52563  1.0000
  H   H22       1.0  0.42585  0.74627  0.97441  1.0000
  H   H23       1.0  0.85341  0.24626  0.47437  1.0000
  H   H24       1.0  0.57415  0.25373  0.02559  1.0000
  H   H25       1.0  0.54703  0.53686  0.62666  1.0000
  H   H26       1.0  0.71062  0.96304  0.87337  1.0000
  H   H27       1.0  0.45297  0.46314  0.37334  1.0000
  H   H28       1.0  0.28938  0.03696  0.12662  1.0000
  H   H29       1.0  0.71245  0.61659  0.53493  1.0000
  H   H30       1.0  0.86393  0.88328  0.96516  1.0000
  H   H31       1.0  0.28755  0.38341  0.46507  1.0000
  H   H32       1.0  0.13607  0.11672  0.03484  1.0000
  H   H33       1.0  0.14194  0.59027  0.46604  1.0000
  H   H34       1.0  0.19818  0.90979  0.03392  1.0000
  H   H35       1.0  0.85806  0.40974  0.53396  1.0000
  H   H36       1.0  0.80182  0.09021  0.96608  1.0000
  H   H37       1.0  0.19914  0.52383  0.58930  1.0000
  H   H38       1.0  0.31222  0.97622  0.91067  1.0000
  H   H39       1.0  0.80086  0.47617  0.41070  1.0000
  H   H40       1.0  0.68778  0.02378  0.08932  1.0000
  H   H41       1.0  0.61106  0.86171  0.22217  1.0000
  H   H42       1.0  0.69484  0.63832  0.27782  1.0000
  H   H43       1.0  0.38893  0.13829  0.77783  1.0000
  H   H44       1.0  0.30516  0.36168  0.72218  1.0000
  C   C1        1.0  0.43344  0.81351  0.49567  1.0000
  C   C2        1.0  0.74260  0.68648  0.00442  1.0000
  C   C3        1.0  0.56656  0.18649  0.50433  1.0000
  C   C4        1.0  0.25740  0.31352  0.99558  1.0000
  C   C5        1.0  0.30812  0.72452  0.54311  1.0000
  C   C6        1.0  0.57567  0.77548  0.95700  1.0000
  C   C7        1.0  0.69188  0.27548  0.45689  1.0000
  C   C8        1.0  0.42433  0.22452  0.04300  1.0000
  C   C9        1.0  0.60847  0.55885  0.54395  1.0000
  C   C10       1.0  0.71128  0.94110  0.95609  1.0000
  C   C11       1.0  0.39153  0.44115  0.45605  1.0000
  C   C12       1.0  0.28872  0.05890  0.04391  1.0000
  C   C13       1.0  0.26921  0.54402  0.50729  1.0000
  C   C14       1.0  0.32046  0.95604  0.99270  1.0000
  C   C15       1.0  0.73079  0.45598  0.49271  1.0000
  C   C16       1.0  0.67954  0.04396  0.00730  1.0000
  S   S1        1.0  0.78668  0.91178  0.64205  1.0000
  S   S2        1.0  0.34056  0.58825  0.85790  1.0000
  S   S3        1.0  0.21332  0.08822  0.35795  1.0000
  S   S4        1.0  0.65944  0.41175  0.14210  1.0000
  S   S5        1.0  0.26210  0.74997  0.24995  1.0000
  S   S6        1.0  0.73790  0.25003  0.75005  1.0000
  N   N1        1.0  0.41767  0.61902  0.49781  1.0000
  N   N2        1.0  0.53441  0.88101  0.00223  1.0000
  N   N3        1.0  0.58233  0.38098  0.50219  1.0000
  N   N4        1.0  0.46559  0.11899  0.99776  1.0000
  O   O1        1.0  0.59188  0.79355  0.42056  1.0000
  O   O2        1.0  0.80621  0.70646  0.07944  1.0000
  O   O3        1.0  0.40812  0.20645  0.57944  1.0000
  O   O4        1.0  0.19379  0.29354  0.92056  1.0000
  O   O5        1.0  0.36984  0.90400  0.53365  1.0000
  O   O6        1.0  0.80726  0.59598  0.96646  1.0000
  O   O7        1.0  0.63016  0.09600  0.46635  1.0000
  O   O8        1.0  0.19274  0.40402  0.03354  1.0000
  O   O9        1.0  0.82270  0.86723  0.54224  1.0000
  O   O10       1.0  0.23216  0.63280  0.95771  1.0000
  O   O11       1.0  0.17730  0.13277  0.45776  1.0000
  O   O12       1.0  0.76783  0.36720  0.04229  1.0000
  O   O13       1.0  0.87021  0.81953  0.71967  1.0000
  O   O14       1.0  0.40954  0.68049  0.78030  1.0000
  O   O15       1.0  0.12979  0.18047  0.28033  1.0000
  O   O16       1.0  0.59046  0.31951  0.21970  1.0000
  O   O17       1.0  0.55444  0.95666  0.68220  1.0000
  O   O18       1.0  0.19339  0.54336  0.81773  1.0000
  O   O19       1.0  0.44556  0.04334  0.31781  1.0000
  O   O20       1.0  0.80661  0.45664  0.18227  1.0000
  O   O21       1.0  0.90241  0.00187  0.62836  1.0000
  O   O22       1.0  0.53270  0.49815  0.87163  1.0000
  O   O23       1.0  0.09759  0.99813  0.37164  1.0000
  O   O24       1.0  0.46730  0.50185  0.12837  1.0000
  O   O25       1.0  0.83990  0.10344  0.22558  1.0000
  O   O26       1.0  0.16872  0.39659  0.27446  1.0000
  O   O27       1.0  0.16010  0.89656  0.77442  1.0000
  O   O28       1.0  0.83128  0.60341  0.72554  1.0000
  O   O29       1.0  0.75349  0.88041  0.21078  1.0000
  O   O30       1.0  0.84458  0.61967  0.28918  1.0000
  O   O31       1.0  0.24651  0.11959  0.78923  1.0000
  O   O32       1.0  0.15542  0.38033  0.71082  1.0000
  O   O33       1.0  0.07013  0.78019  0.33511  1.0000
  O   O34       1.0  0.18579  0.71980  0.16467  1.0000
  O   O35       1.0  0.92987  0.21981  0.66488  1.0000
  O   O36       1.0  0.81421  0.28020  0.83533  1.0000
  O   O37       1.0  0.36346  0.84606  0.20881  1.0000
  O   O38       1.0  0.41814  0.65382  0.29122  1.0000
  O   O39       1.0  0.63654  0.15394  0.79119  1.0000
  O   O40       1.0  0.58186  0.34618  0.70877  1.0000
