data_image0
_chemical_formula_structural       Pr4H44C16S6N4O40
_chemical_formula_sum              "Pr4 H44 C16 S6 N4 O40"
_cell_length_a       6.65271
_cell_length_b       12.6614
_cell_length_c       13.5525
_cell_angle_alpha    79.269
_cell_angle_beta     75.8265
_cell_angle_gamma    74.7731

_space_group_name_H-M_alt    "P 1"
_space_group_IT_number       1

loop_
  _space_group_symop_operation_xyz
  'x, y, z'

loop_
  _atom_site_type_symbol
  _atom_site_label
  _atom_site_symmetry_multiplicity
  _atom_site_fract_x
  _atom_site_fract_y
  _atom_site_fract_z
  _atom_site_occupancy
  Pr  Pr1       1.0  0.72207  0.54909  0.13121  1.0000
  Pr  Pr2       1.0  0.40238  0.95092  0.36877  1.0000
  Pr  Pr3       1.0  0.27793  0.45091  0.86879  1.0000
  Pr  Pr4       1.0  0.59762  0.04908  0.63123  1.0000
  H   H1        1.0  0.34778  0.74730  0.97501  1.0000
  H   H2        1.0  0.07043  0.75266  0.52510  1.0000
  H   H3        1.0  0.65223  0.25270  0.02499  1.0000
  H   H4        1.0  0.92957  0.24734  0.47490  1.0000
  H   H5        1.0  0.20067  0.79170  0.87437  1.0000
  H   H6        1.0  0.86708  0.70829  0.62554  1.0000
  H   H7        1.0  0.79933  0.20830  0.12563  1.0000
  H   H8        1.0  0.13291  0.29171  0.37446  1.0000
  H   H9        1.0  0.29591  0.97608  0.90977  1.0000
  H   H10       1.0  0.18180  0.52392  0.59040  1.0000
  H   H11       1.0  0.70409  0.02392  0.09023  1.0000
  H   H12       1.0  0.81820  0.47608  0.40960  1.0000
  H   H13       1.0  0.35618  0.91002  0.03161  1.0000
  H   H14       1.0  0.29796  0.58983  0.46859  1.0000
  H   H15       1.0  0.64382  0.08998  0.96839  1.0000
  H   H16       1.0  0.70203  0.41017  0.53141  1.0000
  H   H17       1.0  0.78629  0.88490  0.96771  1.0000
  H   H18       1.0  0.63924  0.61533  0.53189  1.0000
  H   H19       1.0  0.21371  0.11510  0.03229  1.0000
  H   H20       1.0  0.36076  0.38466  0.46811  1.0000
  H   H21       1.0  0.94926  0.96370  0.87524  1.0000
  H   H22       1.0  0.78824  0.53653  0.62459  1.0000
  H   H23       1.0  0.05074  0.03630  0.12476  1.0000
  H   H24       1.0  0.21176  0.46347  0.37541  1.0000
  H   H25       1.0  0.03604  0.85829  0.08203  1.0000
  H   H26       1.0  0.97666  0.64167  0.41789  1.0000
  H   H27       1.0  0.96396  0.14171  0.91797  1.0000
  H   H28       1.0  0.02334  0.35833  0.58212  1.0000
  H   H29       1.0  0.89223  0.63821  0.27826  1.0000
  H   H30       1.0  0.80861  0.86179  0.22173  1.0000
  H   H31       1.0  0.10777  0.36178  0.72174  1.0000
  H   H32       1.0  0.19139  0.13821  0.77827  1.0000
  H   H33       1.0  0.64562  0.68220  0.31907  1.0000
  H   H34       1.0  0.64690  0.81785  0.18076  1.0000
  H   H35       1.0  0.35438  0.31780  0.68093  1.0000
  H   H36       1.0  0.35310  0.18215  0.81924  1.0000
  H   H37       1.0  0.77751  0.32687  0.27998  1.0000
  H   H38       1.0  0.38472  0.17299  0.21996  1.0000
  H   H39       1.0  0.22249  0.67313  0.72002  1.0000
  H   H40       1.0  0.61529  0.82701  0.78004  1.0000
  H   H41       1.0  0.54674  0.36286  0.26256  1.0000
  H   H42       1.0  0.17237  0.13718  0.23728  1.0000
  H   H43       1.0  0.45326  0.63714  0.73744  1.0000
  H   H44       1.0  0.82763  0.86282  0.76272  1.0000
  C   C1        1.0  0.06161  0.68920  0.00633  1.0000
  C   C2        1.0  0.75751  0.81082  0.49357  1.0000
  C   C3        1.0  0.93840  0.31080  0.99367  1.0000
  C   C4        1.0  0.24248  0.18917  0.50642  1.0000
  C   C5        1.0  0.18749  0.77664  0.95794  1.0000
  C   C6        1.0  0.92243  0.72336  0.54198  1.0000
  C   C7        1.0  0.81251  0.22336  0.04206  1.0000
  C   C8        1.0  0.07757  0.27664  0.45802  1.0000
  C   C9        1.0  0.22862  0.95602  0.99152  1.0000
  C   C10       1.0  0.17627  0.54390  0.50862  1.0000
  C   C11       1.0  0.77138  0.04398  0.00848  1.0000
  C   C12       1.0  0.82373  0.45610  0.49138  1.0000
  C   C13       1.0  0.89032  0.94189  0.95764  1.0000
  C   C14       1.0  0.78996  0.55824  0.54216  1.0000
  C   C15       1.0  0.10968  0.05811  0.04235  1.0000
  C   C16       1.0  0.21004  0.44176  0.45784  1.0000
  S   S1        1.0  0.71216  0.59125  0.85603  1.0000
  S   S2        1.0  0.15937  0.90870  0.64405  1.0000
  S   S3        1.0  0.28784  0.40875  0.14397  1.0000
  S   S4        1.0  0.84063  0.09130  0.35595  1.0000
  S   S5        1.0  0.23643  0.75002  0.24997  1.0000
  S   S6        1.0  0.76357  0.24998  0.75004  1.0000
  N   N1        1.0  0.08076  0.88165  0.00252  1.0000
  N   N2        1.0  0.96521  0.61835  0.49740  1.0000
  N   N3        1.0  0.91924  0.11835  0.99748  1.0000
  N   N4        1.0  0.03479  0.38165  0.50260  1.0000
  O   O1        1.0  0.90433  0.71112  0.08008  1.0000
  O   O2        1.0  0.69577  0.78896  0.41979  1.0000
  O   O3        1.0  0.09568  0.28889  0.91993  1.0000
  O   O4        1.0  0.30423  0.21104  0.58021  1.0000
  O   O5        1.0  0.12239  0.59810  0.97102  1.0000
  O   O6        1.0  0.69185  0.90190  0.52892  1.0000
  O   O7        1.0  0.87761  0.40190  0.02898  1.0000
  O   O8        1.0  0.30815  0.09810  0.47107  1.0000
  O   O9        1.0  0.67713  0.63559  0.95476  1.0000
  O   O10       1.0  0.26734  0.86444  0.54529  1.0000
  O   O11       1.0  0.32287  0.36441  0.04524  1.0000
  O   O12       1.0  0.73265  0.13556  0.45471  1.0000
  O   O13       1.0  0.59914  0.50094  0.87100  1.0000
  O   O14       1.0  0.97095  0.99901  0.62914  1.0000
  O   O15       1.0  0.40086  0.49906  0.12901  1.0000
  O   O16       1.0  0.02905  0.00099  0.37086  1.0000
  O   O17       1.0  0.62699  0.68224  0.77880  1.0000
  O   O18       1.0  0.08804  0.81768  0.72121  1.0000
  O   O19       1.0  0.37301  0.31776  0.22120  1.0000
  O   O20       1.0  0.91196  0.18232  0.27879  1.0000
  O   O21       1.0  0.94225  0.54786  0.81571  1.0000
  O   O22       1.0  0.30585  0.95203  0.68445  1.0000
  O   O23       1.0  0.05775  0.45213  0.18430  1.0000
  O   O24       1.0  0.69415  0.04798  0.31555  1.0000
  O   O25       1.0  0.42583  0.72005  0.16552  1.0000
  O   O26       1.0  0.31146  0.78001  0.33445  1.0000
  O   O27       1.0  0.57417  0.27995  0.83448  1.0000
  O   O28       1.0  0.68855  0.21999  0.66555  1.0000
  O   O29       1.0  0.13572  0.65455  0.29134  1.0000
  O   O30       1.0  0.08156  0.84549  0.20857  1.0000
  O   O31       1.0  0.86428  0.34545  0.70866  1.0000
  O   O32       1.0  0.91845  0.15451  0.79143  1.0000
  O   O33       1.0  0.75075  0.61994  0.28975  1.0000
  O   O34       1.0  0.66034  0.88005  0.21024  1.0000
  O   O35       1.0  0.24925  0.38006  0.71025  1.0000
  O   O36       1.0  0.33966  0.11995  0.78975  1.0000
  O   O37       1.0  0.66048  0.39353  0.27584  1.0000
  O   O38       1.0  0.32998  0.10641  0.22406  1.0000
  O   O39       1.0  0.33952  0.60647  0.72417  1.0000
  O   O40       1.0  0.67002  0.89359  0.77594  1.0000
