data_image0
_chemical_formula_structural       Nd4H44C16S6N4O40
_chemical_formula_sum              "Nd4 H44 C16 S6 N4 O40"
_cell_length_a       6.62809
_cell_length_b       12.6203
_cell_length_c       13.5277
_cell_angle_alpha    79.3773
_cell_angle_beta     75.8901
_cell_angle_gamma    74.7849

_space_group_name_H-M_alt    "P 1"
_space_group_IT_number       1

loop_
  _space_group_symop_operation_xyz
  'x, y, z'

loop_
  _atom_site_type_symbol
  _atom_site_label
  _atom_site_symmetry_multiplicity
  _atom_site_fract_x
  _atom_site_fract_y
  _atom_site_fract_z
  _atom_site_occupancy
  Nd  Nd1       1.0  0.09931  0.54938  0.13161  1.0000
  Nd  Nd2       1.0  0.78027  0.95069  0.36840  1.0000
  Nd  Nd3       1.0  0.90069  0.45062  0.86839  1.0000
  Nd  Nd4       1.0  0.21973  0.04931  0.63160  1.0000
  H   H1        1.0  0.31594  0.97607  0.91018  1.0000
  H   H2        1.0  0.20247  0.52396  0.58972  1.0000
  H   H3        1.0  0.68406  0.02393  0.08982  1.0000
  H   H4        1.0  0.79753  0.47604  0.41028  1.0000
  H   H5        1.0  0.20036  0.91034  0.03256  1.0000
  H   H6        1.0  0.14335  0.58977  0.46729  1.0000
  H   H7        1.0  0.79964  0.08966  0.96744  1.0000
  H   H8        1.0  0.85665  0.41023  0.53271  1.0000
  H   H9        1.0  0.69539  0.63929  0.27905  1.0000
  H   H10       1.0  0.61380  0.86052  0.22100  1.0000
  H   H11       1.0  0.30461  0.36071  0.72095  1.0000
  H   H12       1.0  0.38620  0.13948  0.77900  1.0000
  H   H13       1.0  0.86155  0.68237  0.31869  1.0000
  H   H14       1.0  0.86261  0.81759  0.18148  1.0000
  H   H15       1.0  0.13845  0.31763  0.68131  1.0000
  H   H16       1.0  0.13739  0.18241  0.81852  1.0000
  H   H17       1.0  0.11577  0.32816  0.27979  1.0000
  H   H18       1.0  0.72369  0.17207  0.22017  1.0000
  H   H19       1.0  0.88423  0.67184  0.72021  1.0000
  H   H20       1.0  0.27631  0.82793  0.77983  1.0000
  H   H21       1.0  0.32945  0.36365  0.26205  1.0000
  H   H22       1.0  0.95506  0.13635  0.23797  1.0000
  H   H23       1.0  0.67055  0.63635  0.73796  1.0000
  H   H24       1.0  0.04494  0.86365  0.76203  1.0000
  H   H25       1.0  0.63051  0.79161  0.87391  1.0000
  H   H26       1.0  0.29671  0.70848  0.62604  1.0000
  H   H27       1.0  0.36949  0.20839  0.12609  1.0000
  H   H28       1.0  0.70329  0.29152  0.37396  1.0000
  H   H29       1.0  0.42720  0.74709  0.97489  1.0000
  H   H30       1.0  0.14969  0.75302  0.52495  1.0000
  H   H31       1.0  0.57281  0.25291  0.02511  1.0000
  H   H32       1.0  0.85031  0.24698  0.47505  1.0000
  H   H33       1.0  0.13843  0.11615  0.03278  1.0000
  H   H34       1.0  0.28713  0.38401  0.46696  1.0000
  H   H35       1.0  0.86157  0.88385  0.96722  1.0000
  H   H36       1.0  0.71288  0.61599  0.53304  1.0000
  H   H37       1.0  0.28894  0.03689  0.12515  1.0000
  H   H38       1.0  0.45059  0.46326  0.37476  1.0000
  H   H39       1.0  0.71106  0.96311  0.87485  1.0000
  H   H40       1.0  0.54941  0.53674  0.62524  1.0000
  H   H41       1.0  0.52392  0.85796  0.08205  1.0000
  H   H42       1.0  0.46386  0.64201  0.41798  1.0000
  H   H43       1.0  0.47608  0.14204  0.91795  1.0000
  H   H44       1.0  0.53614  0.35799  0.58202  1.0000
  C   C1        1.0  0.32243  0.95621  0.99196  1.0000
  C   C2        1.0  0.27071  0.54385  0.50797  1.0000
  C   C3        1.0  0.67757  0.04379  0.00804  1.0000
  C   C4        1.0  0.72930  0.45614  0.49203  1.0000
  C   C5        1.0  0.74184  0.68803  0.00539  1.0000
  C   C6        1.0  0.43560  0.81195  0.49456  1.0000
  C   C7        1.0  0.25816  0.31196  0.99461  1.0000
  C   C8        1.0  0.56439  0.18805  0.50545  1.0000
  C   C9        1.0  0.57596  0.77629  0.95760  1.0000
  C   C10       1.0  0.31032  0.72375  0.54235  1.0000
  C   C11       1.0  0.42404  0.22371  0.04240  1.0000
  C   C12       1.0  0.68968  0.27625  0.45765  1.0000
  C   C13       1.0  0.28979  0.05869  0.04266  1.0000
  C   C14       1.0  0.39097  0.44139  0.45723  1.0000
  C   C15       1.0  0.71021  0.94131  0.95734  1.0000
  C   C16       1.0  0.60903  0.55861  0.54277  1.0000
  S   S1        1.0  0.33911  0.58999  0.85668  1.0000
  S   S2        1.0  0.78582  0.90995  0.64331  1.0000
  S   S3        1.0  0.66089  0.41001  0.14331  1.0000
  S   S4        1.0  0.21418  0.09005  0.35669  1.0000
  S   S5        1.0  0.26567  0.74999  0.25007  1.0000
  S   S6        1.0  0.73433  0.25001  0.74993  1.0000
  N   N1        1.0  0.53435  0.88135  0.00253  1.0000
  N   N2        1.0  0.41838  0.61865  0.49750  1.0000
  N   N3        1.0  0.46564  0.11865  0.99747  1.0000
  N   N4        1.0  0.58162  0.38135  0.50250  1.0000
  O   O1        1.0  0.23197  0.63439  0.95576  1.0000
  O   O2        1.0  0.82195  0.86552  0.54424  1.0000
  O   O3        1.0  0.76802  0.36561  0.04425  1.0000
  O   O4        1.0  0.17804  0.13449  0.45576  1.0000
  O   O5        1.0  0.40948  0.68144  0.77946  1.0000
  O   O6        1.0  0.87034  0.81851  0.72063  1.0000
  O   O7        1.0  0.59052  0.31856  0.22054  1.0000
  O   O8        1.0  0.12966  0.18149  0.27937  1.0000
  O   O9        1.0  0.19193  0.54619  0.81653  1.0000
  O   O10       1.0  0.55491  0.95390  0.68333  1.0000
  O   O11       1.0  0.80807  0.45381  0.18347  1.0000
  O   O12       1.0  0.44509  0.04610  0.31667  1.0000
  O   O13       1.0  0.52888  0.49971  0.87108  1.0000
  O   O14       1.0  0.89978  0.00021  0.62891  1.0000
  O   O15       1.0  0.47112  0.50029  0.12892  1.0000
  O   O16       1.0  0.10022  0.99979  0.37109  1.0000
  O   O17       1.0  0.18961  0.72006  0.16540  1.0000
  O   O18       1.0  0.07546  0.77997  0.33471  1.0000
  O   O19       1.0  0.81039  0.27994  0.83460  1.0000
  O   O20       1.0  0.92454  0.22004  0.66529  1.0000
  O   O21       1.0  0.36658  0.84567  0.20883  1.0000
  O   O22       1.0  0.42100  0.65423  0.29134  1.0000
  O   O23       1.0  0.63343  0.15433  0.79117  1.0000
  O   O24       1.0  0.57900  0.34577  0.70866  1.0000
  O   O25       1.0  0.80477  0.70872  0.07967  1.0000
  O   O26       1.0  0.59329  0.79126  0.42038  1.0000
  O   O27       1.0  0.19523  0.29128  0.92033  1.0000
  O   O28       1.0  0.40671  0.20874  0.57962  1.0000
  O   O29       1.0  0.80647  0.59742  0.96874  1.0000
  O   O30       1.0  0.37297  0.90260  0.53121  1.0000
  O   O31       1.0  0.19353  0.40258  0.03127  1.0000
  O   O32       1.0  0.62703  0.09739  0.46879  1.0000
  O   O33       1.0  0.84472  0.62016  0.28990  1.0000
  O   O34       1.0  0.75467  0.87981  0.21013  1.0000
  O   O35       1.0  0.15528  0.37984  0.71010  1.0000
  O   O36       1.0  0.24533  0.12019  0.78987  1.0000
  O   O37       1.0  0.17128  0.39475  0.27551  1.0000
  O   O38       1.0  0.84123  0.10535  0.22452  1.0000
  O   O39       1.0  0.82872  0.60525  0.72449  1.0000
  O   O40       1.0  0.15877  0.89465  0.77548  1.0000
