data_image0
_chemical_formula_structural       Dy4H36C16S6N4O36
_chemical_formula_sum              "Dy4 H36 C16 S6 N4 O36"
_cell_length_a       6.57724
_cell_length_b       12.327
_cell_length_c       12.952
_cell_angle_alpha    76.3238
_cell_angle_beta     76.005
_cell_angle_gamma    74.6644

_space_group_name_H-M_alt    "P 1"
_space_group_IT_number       1

loop_
  _space_group_symop_operation_xyz
  'x, y, z'

loop_
  _atom_site_type_symbol
  _atom_site_label
  _atom_site_symmetry_multiplicity
  _atom_site_fract_x
  _atom_site_fract_y
  _atom_site_fract_z
  _atom_site_occupancy
  Dy  Dy1       1.0  0.38773  0.96418  0.86026  1.0000
  Dy  Dy2       1.0  0.61226  0.03582  0.13975  1.0000
  Dy  Dy3       1.0  0.72126  0.55549  0.63286  1.0000
  Dy  Dy4       1.0  0.27874  0.44451  0.36714  1.0000
  H   H1        1.0  0.74941  0.19736  0.63644  1.0000
  H   H2        1.0  0.25059  0.80265  0.36355  1.0000
  H   H3        1.0  0.63125  0.25256  0.51828  1.0000
  H   H4        1.0  0.36876  0.74744  0.48172  1.0000
  H   H5        1.0  0.99992  0.02313  0.64521  1.0000
  H   H6        1.0  0.00008  0.97688  0.35479  1.0000
  H   H7        1.0  0.18095  0.11081  0.56749  1.0000
  H   H8        1.0  0.81905  0.88919  0.43252  1.0000
  H   H9        1.0  0.65955  0.09648  0.44072  1.0000
  H   H10       1.0  0.34045  0.90352  0.55928  1.0000
  H   H11       1.0  0.69338  0.01443  0.57206  1.0000
  H   H12       1.0  0.30662  0.98557  0.42794  1.0000
  H   H13       1.0  0.08144  0.33635  0.89647  1.0000
  H   H14       1.0  0.91857  0.66365  0.10353  1.0000
  H   H15       1.0  0.90286  0.27842  0.01200  1.0000
  H   H16       1.0  0.09715  0.72159  0.98800  1.0000
  H   H17       1.0  0.76965  0.38919  0.13839  1.0000
  H   H18       1.0  0.23035  0.61081  0.86161  1.0000
  H   H19       1.0  0.91029  0.48412  0.16042  1.0000
  H   H20       1.0  0.08971  0.51588  0.83958  1.0000
  H   H21       1.0  0.37881  0.40887  0.94621  1.0000
  H   H22       1.0  0.62119  0.59113  0.05379  1.0000
  H   H23       1.0  0.26765  0.49609  0.04657  1.0000
  H   H24       1.0  0.73235  0.50391  0.95343  1.0000
  H   H25       1.0  0.99122  0.15546  0.42424  1.0000
  H   H26       1.0  0.00878  0.84454  0.57576  1.0000
  H   H27       1.0  0.16273  0.32929  0.10971  1.0000
  H   H28       1.0  0.83727  0.67072  0.89029  1.0000
  H   H29       1.0  0.77282  0.34067  0.79202  1.0000
  H   H30       1.0  0.22718  0.65933  0.20798  1.0000
  H   H31       1.0  0.53881  0.37730  0.77647  1.0000
  H   H32       1.0  0.46119  0.62271  0.22352  1.0000
  H   H33       1.0  0.37841  0.18563  0.71771  1.0000
  H   H34       1.0  0.62159  0.81437  0.28229  1.0000
  H   H35       1.0  0.16263  0.15265  0.73055  1.0000
  H   H36       1.0  0.83737  0.84735  0.26946  1.0000
  C   C1        1.0  0.90819  0.31519  0.51239  1.0000
  C   C2        1.0  0.09183  0.68481  0.48761  1.0000
  C   C3        1.0  0.78258  0.22182  0.54816  1.0000
  C   C4        1.0  0.21742  0.77819  0.45184  1.0000
  C   C5        1.0  0.08317  0.05326  0.56313  1.0000
  C   C6        1.0  0.91683  0.94674  0.43688  1.0000
  C   C7        1.0  0.77713  0.04455  0.49011  1.0000
  C   C8        1.0  0.22288  0.95545  0.50989  1.0000
  C   C9        1.0  0.23109  0.18889  0.00130  1.0000
  C   C10       1.0  0.76890  0.81110  0.99870  1.0000
  C   C11       1.0  0.06175  0.29921  0.98289  1.0000
  C   C12       1.0  0.93825  0.70079  0.01711  1.0000
  C   C13       1.0  0.87448  0.44882  0.09823  1.0000
  C   C14       1.0  0.12552  0.55118  0.90177  1.0000
  C   C15       1.0  0.22951  0.45976  0.98569  1.0000
  C   C16       1.0  0.77049  0.54024  0.01431  1.0000
  S   S1        1.0  0.72125  0.57491  0.34881  1.0000
  S   S2        1.0  0.27875  0.42509  0.65119  1.0000
  S   S3        1.0  0.52109  0.76209  0.74308  1.0000
  S   S4        1.0  0.47891  0.23791  0.25692  1.0000
  S   S5        1.0  0.16282  0.91041  0.14796  1.0000
  S   S6        1.0  0.83717  0.08959  0.85205  1.0000
  N   N1        1.0  0.91225  0.12065  0.49981  1.0000
  N   N2        1.0  0.08775  0.87935  0.50019  1.0000
  N   N3        1.0  0.08378  0.38052  0.04740  1.0000
  N   N4        1.0  0.91622  0.61948  0.95260  1.0000
  O   O1        1.0  0.84156  0.39927  0.55981  1.0000
  O   O2        1.0  0.15848  0.60073  0.44019  1.0000
  O   O3        1.0  0.07015  0.30243  0.43643  1.0000
  O   O4        1.0  0.92986  0.69757  0.56356  1.0000
  O   O5        1.0  0.68659  0.61921  0.45024  1.0000
  O   O6        1.0  0.31341  0.38079  0.54975  1.0000
  O   O7        1.0  0.63563  0.66997  0.26428  1.0000
  O   O8        1.0  0.36437  0.33003  0.73571  1.0000
  O   O9        1.0  0.61113  0.47945  0.36485  1.0000
  O   O10       1.0  0.38888  0.52055  0.63514  1.0000
  O   O11       1.0  0.95462  0.53184  0.30876  1.0000
  O   O12       1.0  0.04539  0.46817  0.69123  1.0000
  O   O13       1.0  0.45629  0.73233  0.65218  1.0000
  O   O14       1.0  0.54371  0.26767  0.34782  1.0000
  O   O15       1.0  0.69111  0.66041  0.77742  1.0000
  O   O16       1.0  0.30888  0.33959  0.22258  1.0000
  O   O17       1.0  0.59901  0.87099  0.70770  1.0000
  O   O18       1.0  0.40098  0.12901  0.29230  1.0000
  O   O19       1.0  0.33653  0.78226  0.83433  1.0000
  O   O20       1.0  0.66346  0.21774  0.16566  1.0000
  O   O21       1.0  0.25393  0.88524  0.03763  1.0000
  O   O22       1.0  0.74605  0.11477  0.96237  1.0000
  O   O23       1.0  0.32456  0.94228  0.19152  1.0000
  O   O24       1.0  0.67543  0.05771  0.80849  1.0000
  O   O25       1.0  0.97028  0.00715  0.14890  1.0000
  O   O26       1.0  0.02971  0.99285  0.85110  1.0000
  O   O27       1.0  0.09892  0.80652  0.22078  1.0000
  O   O28       1.0  0.90106  0.19348  0.77922  1.0000
  O   O29       1.0  0.25845  0.11900  0.94021  1.0000
  O   O30       1.0  0.74155  0.88100  0.05979  1.0000
  O   O31       1.0  0.32775  0.17688  0.07793  1.0000
  O   O32       1.0  0.67225  0.82311  0.92207  1.0000
  O   O33       1.0  0.65254  0.40909  0.79132  1.0000
  O   O34       1.0  0.34747  0.59092  0.20868  1.0000
  O   O35       1.0  0.32129  0.12096  0.71203  1.0000
  O   O36       1.0  0.67870  0.87904  0.28797  1.0000
