data_image0
_chemical_formula_structural       La4H32C24O28
_chemical_formula_sum              "La4 H32 C24 O28"
_cell_length_a       8.01376
_cell_length_b       10.9749
_cell_length_c       12.8728
_cell_angle_alpha    71.2235
_cell_angle_beta     71.8655
_cell_angle_gamma    68.5953

_space_group_name_H-M_alt    "P 1"
_space_group_IT_number       1

loop_
  _space_group_symop_operation_xyz
  'x, y, z'

loop_
  _atom_site_type_symbol
  _atom_site_label
  _atom_site_symmetry_multiplicity
  _atom_site_fract_x
  _atom_site_fract_y
  _atom_site_fract_z
  _atom_site_occupancy
  La  La1       1.0  0.05782  0.68984  0.77184  1.0000
  La  La2       1.0  0.48054  0.18985  0.27183  1.0000
  La  La3       1.0  0.94219  0.31015  0.22816  1.0000
  La  La4       1.0  0.51946  0.81015  0.72817  1.0000
  H   H1        1.0  0.90088  0.17700  0.51314  1.0000
  H   H2        1.0  0.40890  0.67703  0.01308  1.0000
  H   H3        1.0  0.09912  0.82300  0.48686  1.0000
  H   H4        1.0  0.59110  0.32297  0.98692  1.0000
  H   H5        1.0  0.83008  0.20771  0.64810  1.0000
  H   H6        1.0  0.31413  0.70770  0.14806  1.0000
  H   H7        1.0  0.16992  0.79229  0.35190  1.0000
  H   H8        1.0  0.68587  0.29230  0.85194  1.0000
  H   H9        1.0  0.49554  0.23885  0.64312  1.0000
  H   H10       1.0  0.62247  0.73900  0.14298  1.0000
  H   H11       1.0  0.50446  0.76115  0.35688  1.0000
  H   H12       1.0  0.37753  0.26100  0.85702  1.0000
  H   H13       1.0  0.59899  0.36330  0.54625  1.0000
  H   H14       1.0  0.49121  0.86343  0.04627  1.0000
  H   H15       1.0  0.40101  0.63670  0.45375  1.0000
  H   H16       1.0  0.50879  0.13657  0.95373  1.0000
  H   H17       1.0  0.94698  0.86955  0.02441  1.0000
  H   H18       1.0  0.15903  0.36952  0.52434  1.0000
  H   H19       1.0  0.05302  0.13045  0.97559  1.0000
  H   H20       1.0  0.84098  0.63047  0.47566  1.0000
  H   H21       1.0  0.90081  0.00691  0.91163  1.0000
  H   H22       1.0  0.18061  0.50695  0.41157  1.0000
  H   H23       1.0  0.09920  0.99309  0.08837  1.0000
  H   H24       1.0  0.81939  0.49305  0.58843  1.0000
  H   H25       1.0  0.81078  0.49260  0.85918  1.0000
  H   H26       1.0  0.83754  0.99270  0.35908  1.0000
  H   H27       1.0  0.18922  0.50740  0.14082  1.0000
  H   H28       1.0  0.16246  0.00730  0.64092  1.0000
  H   H29       1.0  0.99323  0.41097  0.91263  1.0000
  H   H30       1.0  0.68321  0.91109  0.41252  1.0000
  H   H31       1.0  0.00676  0.58904  0.08737  1.0000
  H   H32       1.0  0.31679  0.08891  0.58748  1.0000
  C   C1        1.0  0.81062  0.02157  0.64212  1.0000
  C   C2        1.0  0.52566  0.52158  0.14205  1.0000
  C   C3        1.0  0.18938  0.97843  0.35788  1.0000
  C   C4        1.0  0.47434  0.47842  0.85795  1.0000
  C   C5        1.0  0.79374  0.17016  0.59092  1.0000
  C   C6        1.0  0.44512  0.67021  0.09085  1.0000
  C   C7        1.0  0.20626  0.82984  0.40908  1.0000
  C   C8        1.0  0.55487  0.32980  0.90915  1.0000
  C   C9        1.0  0.60370  0.25671  0.56826  1.0000
  C   C10       1.0  0.57116  0.75688  0.06816  1.0000
  C   C11       1.0  0.39630  0.74329  0.43174  1.0000
  C   C12       1.0  0.42884  0.24312  0.93184  1.0000
  C   C13       1.0  0.56215  0.23410  0.47014  1.0000
  C   C14       1.0  0.73340  0.73440  0.96999  1.0000
  C   C15       1.0  0.43785  0.76590  0.52986  1.0000
  C   C16       1.0  0.26660  0.26560  0.03001  1.0000
  C   C17       1.0  0.18164  0.89676  0.89671  1.0000
  C   C18       1.0  0.02473  0.39678  0.39671  1.0000
  C   C19       1.0  0.81836  0.10324  0.10329  1.0000
  C   C20       1.0  0.97527  0.60321  0.60329  1.0000
  C   C21       1.0  0.99768  0.95379  0.96793  1.0000
  C   C22       1.0  0.08056  0.45381  0.46790  1.0000
  C   C23       1.0  0.00232  0.04620  0.03207  1.0000
  C   C24       1.0  0.91944  0.54619  0.53210  1.0000
  O   O1        1.0  0.96311  0.94396  0.66763  1.0000
  O   O2        1.0  0.42521  0.44399  0.16752  1.0000
  O   O3        1.0  0.03689  0.05604  0.33237  1.0000
  O   O4        1.0  0.57479  0.55602  0.83248  1.0000
  O   O5        1.0  0.67238  0.98305  0.65635  1.0000
  O   O6        1.0  0.68815  0.48307  0.15633  1.0000
  O   O7        1.0  0.32762  0.01695  0.34365  1.0000
  O   O8        1.0  0.31185  0.51693  0.84367  1.0000
  O   O9        1.0  0.66263  0.26166  0.37109  1.0000
  O   O10       1.0  0.70451  0.76188  0.87093  1.0000
  O   O11       1.0  0.33737  0.73834  0.62892  1.0000
  O   O12       1.0  0.29549  0.23812  0.12907  1.0000
  O   O13       1.0  0.42721  0.19217  0.48241  1.0000
  O   O14       1.0  0.89794  0.69250  0.98232  1.0000
  O   O15       1.0  0.57279  0.80783  0.51759  1.0000
  O   O16       1.0  0.10206  0.30751  0.01768  1.0000
  O   O17       1.0  0.19583  0.80829  0.84501  1.0000
  O   O18       1.0  0.15061  0.30827  0.34502  1.0000
  O   O19       1.0  0.80417  0.19171  0.15499  1.0000
  O   O20       1.0  0.84939  0.69173  0.65498  1.0000
  O   O21       1.0  0.31935  0.93276  0.88693  1.0000
  O   O22       1.0  0.86076  0.43280  0.38700  1.0000
  O   O23       1.0  0.68065  0.06724  0.11307  1.0000
  O   O24       1.0  0.13924  0.56720  0.61300  1.0000
  O   O25       1.0  0.94189  0.48226  0.85061  1.0000
  O   O26       1.0  0.72542  0.98230  0.35045  1.0000
  O   O27       1.0  0.05811  0.51774  0.14939  1.0000
  O   O28       1.0  0.27458  0.01770  0.64955  1.0000
