data_image0
_chemical_formula_structural       Y4H32C24O28
_chemical_formula_sum              "Y4 H32 C24 O28"
_cell_length_a       7.66049
_cell_length_b       10.6968
_cell_length_c       12.6609
_cell_angle_alpha    71.9957
_cell_angle_beta     72.3909
_cell_angle_gamma    69.0176

_space_group_name_H-M_alt    "P 1"
_space_group_IT_number       1

loop_
  _space_group_symop_operation_xyz
  'x, y, z'

loop_
  _atom_site_type_symbol
  _atom_site_label
  _atom_site_symmetry_multiplicity
  _atom_site_fract_x
  _atom_site_fract_y
  _atom_site_fract_z
  _atom_site_occupancy
  Y   Y1        1.0  0.05458  0.68959  0.77044  1.0000
  Y   Y2        1.0  0.48541  0.18956  0.27047  1.0000
  Y   Y3        1.0  0.94541  0.31041  0.22956  1.0000
  Y   Y4        1.0  0.51459  0.81044  0.72953  1.0000
  H   H1        1.0  0.80752  0.50325  0.85259  1.0000
  H   H2        1.0  0.83674  0.00331  0.35262  1.0000
  H   H3        1.0  0.19248  0.49675  0.14741  1.0000
  H   H4        1.0  0.16326  0.99669  0.64738  1.0000
  H   H5        1.0  0.99253  0.42132  0.91195  1.0000
  H   H6        1.0  0.67430  0.92137  0.41195  1.0000
  H   H7        1.0  0.00747  0.57868  0.08805  1.0000
  H   H8        1.0  0.32570  0.07863  0.58805  1.0000
  H   H9        1.0  0.91519  0.16469  0.51559  1.0000
  H   H10       1.0  0.40452  0.66464  0.01559  1.0000
  H   H11       1.0  0.08481  0.83531  0.48441  1.0000
  H   H12       1.0  0.59548  0.33536  0.98441  1.0000
  H   H13       1.0  0.83765  0.20219  0.65066  1.0000
  H   H14       1.0  0.30954  0.70215  0.15067  1.0000
  H   H15       1.0  0.16235  0.79781  0.34934  1.0000
  H   H16       1.0  0.69046  0.29785  0.84933  1.0000
  H   H17       1.0  0.48925  0.24152  0.63839  1.0000
  H   H18       1.0  0.63090  0.74145  0.13836  1.0000
  H   H19       1.0  0.51075  0.75848  0.36161  1.0000
  H   H20       1.0  0.36910  0.25855  0.86164  1.0000
  H   H21       1.0  0.60711  0.36347  0.54164  1.0000
  H   H22       1.0  0.48777  0.86344  0.04168  1.0000
  H   H23       1.0  0.39289  0.63653  0.45836  1.0000
  H   H24       1.0  0.51224  0.13656  0.95832  1.0000
  H   H25       1.0  0.95045  0.86298  0.03148  1.0000
  H   H26       1.0  0.15497  0.36293  0.53158  1.0000
  H   H27       1.0  0.04955  0.13702  0.96852  1.0000
  H   H28       1.0  0.84503  0.63707  0.46842  1.0000
  H   H29       1.0  0.88750  0.99839  0.91768  1.0000
  H   H30       1.0  0.19649  0.49824  0.41772  1.0000
  H   H31       1.0  0.11250  0.00161  0.08232  1.0000
  H   H32       1.0  0.80351  0.50176  0.58228  1.0000
  C   C1        1.0  0.80492  0.01404  0.64676  1.0000
  C   C2        1.0  0.53429  0.51400  0.14678  1.0000
  C   C3        1.0  0.19508  0.98596  0.35324  1.0000
  C   C4        1.0  0.46571  0.48600  0.85322  1.0000
  C   C5        1.0  0.79941  0.16335  0.59228  1.0000
  C   C6        1.0  0.44498  0.66331  0.09228  1.0000
  C   C7        1.0  0.20059  0.83665  0.40772  1.0000
  C   C8        1.0  0.55502  0.33669  0.90772  1.0000
  C   C9        1.0  0.60579  0.25594  0.56447  1.0000
  C   C10       1.0  0.57382  0.75588  0.06445  1.0000
  C   C11       1.0  0.39422  0.74406  0.43552  1.0000
  C   C12       1.0  0.42618  0.24412  0.93555  1.0000
  C   C13       1.0  0.56474  0.23151  0.46416  1.0000
  C   C14       1.0  0.73960  0.73152  0.96413  1.0000
  C   C15       1.0  0.43526  0.76849  0.53584  1.0000
  C   C16       1.0  0.26040  0.26849  0.03587  1.0000
  C   C17       1.0  0.18343  0.89337  0.89463  1.0000
  C   C18       1.0  0.02858  0.39334  0.39464  1.0000
  C   C19       1.0  0.81657  0.10663  0.10537  1.0000
  C   C20       1.0  0.97142  0.60666  0.60536  1.0000
  C   C21       1.0  0.99573  0.94984  0.97036  1.0000
  C   C22       1.0  0.08408  0.44978  0.47039  1.0000
  C   C23       1.0  0.00427  0.05016  0.02964  1.0000
  C   C24       1.0  0.91592  0.55022  0.52961  1.0000
  O   O1        1.0  0.96133  0.93092  0.67400  1.0000
  O   O2        1.0  0.43367  0.43089  0.17409  1.0000
  O   O3        1.0  0.03867  0.06908  0.32600  1.0000
  O   O4        1.0  0.56633  0.56911  0.82591  1.0000
  O   O5        1.0  0.65488  0.98165  0.66141  1.0000
  O   O6        1.0  0.70207  0.48159  0.16141  1.0000
  O   O7        1.0  0.34512  0.01835  0.33859  1.0000
  O   O8        1.0  0.29793  0.51841  0.83859  1.0000
  O   O9        1.0  0.66304  0.26425  0.36315  1.0000
  O   O10       1.0  0.70963  0.76426  0.86310  1.0000
  O   O11       1.0  0.33696  0.73575  0.63685  1.0000
  O   O12       1.0  0.29037  0.23575  0.13690  1.0000
  O   O13       1.0  0.43037  0.18182  0.47565  1.0000
  O   O14       1.0  0.91215  0.68187  0.97564  1.0000
  O   O15       1.0  0.56963  0.81818  0.52435  1.0000
  O   O16       1.0  0.08785  0.31813  0.02436  1.0000
  O   O17       1.0  0.19712  0.80395  0.84072  1.0000
  O   O18       1.0  0.15822  0.30391  0.34075  1.0000
  O   O19       1.0  0.80288  0.19605  0.15928  1.0000
  O   O20       1.0  0.84178  0.69609  0.65925  1.0000
  O   O21       1.0  0.32821  0.93089  0.88226  1.0000
  O   O22       1.0  0.85869  0.43092  0.38221  1.0000
  O   O23       1.0  0.67179  0.06911  0.11774  1.0000
  O   O24       1.0  0.14131  0.56908  0.61779  1.0000
  O   O25       1.0  0.94570  0.48794  0.84460  1.0000
  O   O26       1.0  0.72185  0.98801  0.34461  1.0000
  O   O27       1.0  0.05430  0.51206  0.15540  1.0000
  O   O28       1.0  0.27815  0.01199  0.65538  1.0000
