data_image0
_chemical_formula_structural       Zn4H36C56N4O20
_chemical_formula_sum              "Zn4 H36 C56 N4 O20"
_cell_length_a       7.74673
_cell_length_b       11.7482
_cell_length_c       13.9211
_cell_angle_alpha    90
_cell_angle_beta     90
_cell_angle_gamma    92.5915

_space_group_name_H-M_alt    "P 1"
_space_group_IT_number       1

loop_
  _space_group_symop_operation_xyz
  'x, y, z'

loop_
  _atom_site_type_symbol
  _atom_site_label
  _atom_site_symmetry_multiplicity
  _atom_site_fract_x
  _atom_site_fract_y
  _atom_site_fract_z
  _atom_site_occupancy
  Zn  Zn1       1.0  0.84638  0.44818  0.44689  1.0000
  Zn  Zn2       1.0  0.65362  0.05182  0.94689  1.0000
  Zn  Zn3       1.0  0.15362  0.55182  0.55310  1.0000
  Zn  Zn4       1.0  0.34638  0.94818  0.05311  1.0000
  H   H1        1.0  0.86525  0.15747  0.57397  1.0000
  H   H2        1.0  0.63474  0.34253  0.07397  1.0000
  H   H3        1.0  0.13474  0.84254  0.42603  1.0000
  H   H4        1.0  0.36526  0.65746  0.92603  1.0000
  H   H5        1.0  0.30952  0.25271  0.74437  1.0000
  H   H6        1.0  0.19048  0.24730  0.24437  1.0000
  H   H7        1.0  0.69047  0.74730  0.25563  1.0000
  H   H8        1.0  0.80953  0.75270  0.75563  1.0000
  H   H9        1.0  0.68973  0.80376  0.47846  1.0000
  H   H10       1.0  0.81027  0.69624  0.97845  1.0000
  H   H11       1.0  0.31027  0.19624  0.52154  1.0000
  H   H12       1.0  0.18974  0.30376  0.02154  1.0000
  H   H13       1.0  0.49293  0.62913  0.47065  1.0000
  H   H14       1.0  0.00708  0.87087  0.97065  1.0000
  H   H15       1.0  0.50708  0.37087  0.52935  1.0000
  H   H16       1.0  0.99292  0.12913  0.02935  1.0000
  H   H17       1.0  0.70894  0.01143  0.53250  1.0000
  H   H18       1.0  0.79105  0.48857  0.03249  1.0000
  H   H19       1.0  0.29106  0.98857  0.46750  1.0000
  H   H20       1.0  0.20895  0.51143  0.96750  1.0000
  H   H21       1.0  0.60604  0.05030  0.64264  1.0000
  H   H22       1.0  0.89395  0.44970  0.14263  1.0000
  H   H23       1.0  0.39396  0.94971  0.35736  1.0000
  H   H24       1.0  0.10605  0.55030  0.85736  1.0000
  H   H25       1.0  0.37726  0.92355  0.71005  1.0000
  H   H26       1.0  0.12274  0.57645  0.21005  1.0000
  H   H27       1.0  0.62275  0.07645  0.28995  1.0000
  H   H28       1.0  0.87725  0.42355  0.78996  1.0000
  H   H29       1.0  0.18697  0.74573  0.69074  1.0000
  H   H30       1.0  0.31303  0.75426  0.19075  1.0000
  H   H31       1.0  0.81304  0.25427  0.30926  1.0000
  H   H32       1.0  0.68696  0.24574  0.80926  1.0000
  H   H33       1.0  0.03360  0.93034  0.79555  1.0000
  H   H34       1.0  0.46641  0.56966  0.29554  1.0000
  H   H35       1.0  0.96639  0.06966  0.20446  1.0000
  H   H36       1.0  0.53360  0.43034  0.70445  1.0000
  C   C1        1.0  0.09082  0.32642  0.60234  1.0000
  C   C2        1.0  0.40917  0.17358  0.10234  1.0000
  C   C3        1.0  0.90918  0.67358  0.39766  1.0000
  C   C4        1.0  0.59082  0.82642  0.89766  1.0000
  C   C5        1.0  0.08790  0.21409  0.65405  1.0000
  C   C6        1.0  0.41210  0.28591  0.15405  1.0000
  C   C7        1.0  0.91210  0.78591  0.34595  1.0000
  C   C8        1.0  0.58790  0.71409  0.84596  1.0000
  C   C9        1.0  0.95453  0.13434  0.63017  1.0000
  C   C10       1.0  0.54547  0.36565  0.13017  1.0000
  C   C11       1.0  0.04547  0.86566  0.36983  1.0000
  C   C12       1.0  0.45454  0.63434  0.86983  1.0000
  C   C13       1.0  0.20769  0.18994  0.72536  1.0000
  C   C14       1.0  0.29231  0.31006  0.22536  1.0000
  C   C15       1.0  0.79231  0.81006  0.27464  1.0000
  C   C16       1.0  0.70769  0.68994  0.77464  1.0000
  C   C17       1.0  0.93905  0.03062  0.67883  1.0000
  C   C18       1.0  0.56095  0.46939  0.17883  1.0000
  C   C19       1.0  0.06094  0.96939  0.32117  1.0000
  C   C20       1.0  0.43906  0.53061  0.82117  1.0000
  C   C21       1.0  0.58050  0.79366  0.52735  1.0000
  C   C22       1.0  0.91950  0.70634  0.02735  1.0000
  C   C23       1.0  0.41950  0.20634  0.47265  1.0000
  C   C24       1.0  0.08050  0.29366  0.97265  1.0000
  C   C25       1.0  0.47148  0.69662  0.52226  1.0000
  C   C26       1.0  0.02852  0.80338  0.02226  1.0000
  C   C27       1.0  0.52853  0.30338  0.47774  1.0000
  C   C28       1.0  0.97148  0.19662  0.97774  1.0000
  C   C29       1.0  0.54875  0.87744  0.59544  1.0000
  C   C30       1.0  0.95125  0.62255  0.09543  1.0000
  C   C31       1.0  0.45126  0.12256  0.40456  1.0000
  C   C32       1.0  0.04875  0.37744  0.90457  1.0000
  C   C33       1.0  0.66849  0.98103  0.60437  1.0000
  C   C34       1.0  0.83151  0.51897  0.10436  1.0000
  C   C35       1.0  0.33150  0.01897  0.39563  1.0000
  C   C36       1.0  0.16849  0.48102  0.89563  1.0000
  C   C37       1.0  0.40622  0.86039  0.65597  1.0000
  C   C38       1.0  0.09378  0.63961  0.15597  1.0000
  C   C39       1.0  0.59379  0.13961  0.34403  1.0000
  C   C40       1.0  0.90621  0.36039  0.84403  1.0000
  C   C41       1.0  0.30126  0.76188  0.64624  1.0000
  C   C42       1.0  0.19874  0.73812  0.14624  1.0000
  C   C43       1.0  0.69874  0.23812  0.35376  1.0000
  C   C44       1.0  0.80126  0.26188  0.85376  1.0000
  C   C45       1.0  0.30721  0.05979  0.85695  1.0000
  C   C46       1.0  0.19279  0.44021  0.35695  1.0000
  C   C47       1.0  0.69278  0.94021  0.14305  1.0000
  C   C48       1.0  0.80721  0.55979  0.64305  1.0000
  C   C49       1.0  0.18775  0.08698  0.77595  1.0000
  C   C50       1.0  0.31225  0.41302  0.27595  1.0000
  C   C51       1.0  0.81224  0.91302  0.22405  1.0000
  C   C52       1.0  0.68775  0.58698  0.72405  1.0000
  C   C53       1.0  0.05303  0.00826  0.75382  1.0000
  C   C54       1.0  0.44697  0.49174  0.25382  1.0000
  C   C55       1.0  0.94697  0.99174  0.24618  1.0000
  C   C56       1.0  0.55303  0.50826  0.74618  1.0000
  N   N1        1.0  0.33368  0.68112  0.58075  1.0000
  N   N2        1.0  0.16633  0.81888  0.08075  1.0000
  N   N3        1.0  0.66633  0.31888  0.41925  1.0000
  N   N4        1.0  0.83367  0.18112  0.91925  1.0000
  O   O1        1.0  0.97350  0.33735  0.53989  1.0000
  O   O2        1.0  0.52649  0.16265  0.03988  1.0000
  O   O3        1.0  0.02650  0.66265  0.46011  1.0000
  O   O4        1.0  0.47350  0.83735  0.96011  1.0000
  O   O5        1.0  0.23748  0.00953  0.92896  1.0000
  O   O6        1.0  0.26253  0.49048  0.42896  1.0000
  O   O7        1.0  0.76251  0.99047  0.07105  1.0000
  O   O8        1.0  0.73748  0.50953  0.57104  1.0000
  O   O9        1.0  0.46722  0.08717  0.84590  1.0000
  O   O10       1.0  0.03278  0.41283  0.34591  1.0000
  O   O11       1.0  0.53277  0.91284  0.15410  1.0000
  O   O12       1.0  0.96722  0.58717  0.65409  1.0000
  O   O13       1.0  0.81574  0.94694  0.65863  1.0000
  O   O14       1.0  0.68427  0.55306  0.15862  1.0000
  O   O15       1.0  0.18426  0.05306  0.34137  1.0000
  O   O16       1.0  0.31574  0.44694  0.84137  1.0000
  O   O17       1.0  0.20660  0.40308  0.62405  1.0000
  O   O18       1.0  0.29340  0.09692  0.12405  1.0000
  O   O19       1.0  0.79341  0.59692  0.37595  1.0000
  O   O20       1.0  0.70660  0.90308  0.87595  1.0000
