data_image0
_chemical_formula_structural       Cu4H20C36N8Cl6
_chemical_formula_sum              "Cu4 H20 C36 N8 Cl6"
_cell_length_a       6.14831
_cell_length_b       10.0798
_cell_length_c       13.9784
_cell_angle_alpha    90.0018
_cell_angle_beta     89.9991
_cell_angle_gamma    104.848

_space_group_name_H-M_alt    "P 1"
_space_group_IT_number       1

loop_
  _space_group_symop_operation_xyz
  'x, y, z'

loop_
  _atom_site_type_symbol
  _atom_site_label
  _atom_site_symmetry_multiplicity
  _atom_site_fract_x
  _atom_site_fract_y
  _atom_site_fract_z
  _atom_site_occupancy
  Cu  Cu1       1.0  0.23734  0.04097  0.24999  1.0000
  Cu  Cu2       1.0  0.76266  0.95904  0.74999  1.0000
  Cu  Cu3       1.0  0.73414  0.88688  0.25000  1.0000
  Cu  Cu4       1.0  0.26585  0.11313  0.74999  1.0000
  H   H1        1.0  0.30411  0.09001  0.02812  1.0000
  H   H2        1.0  0.69586  0.90999  0.52812  1.0000
  H   H3        1.0  0.69589  0.90998  0.97187  1.0000
  H   H4        1.0  0.30412  0.09001  0.47187  1.0000
  H   H5        1.0  0.62726  0.21165  0.92516  1.0000
  H   H6        1.0  0.37270  0.78836  0.42517  1.0000
  H   H7        1.0  0.37276  0.78835  0.07483  1.0000
  H   H8        1.0  0.62727  0.21164  0.57483  1.0000
  H   H9        1.0  0.98769  0.34133  0.00477  1.0000
  H   H10       1.0  0.01228  0.65867  0.50477  1.0000
  H   H11       1.0  0.01233  0.65866  0.99523  1.0000
  H   H12       1.0  0.98770  0.34133  0.49523  1.0000
  H   H13       1.0  0.61914  0.55906  0.07040  1.0000
  H   H14       1.0  0.38085  0.44095  0.57041  1.0000
  H   H15       1.0  0.38088  0.44094  0.92961  1.0000
  H   H16       1.0  0.61915  0.55904  0.42960  1.0000
  H   H17       1.0  0.96560  0.67721  0.16226  1.0000
  H   H18       1.0  0.03440  0.32279  0.66227  1.0000
  H   H19       1.0  0.03441  0.32279  0.83775  1.0000
  H   H20       1.0  0.96561  0.67720  0.33775  1.0000
  C   C1        1.0  0.46246  0.14748  0.05971  1.0000
  C   C2        1.0  0.53752  0.85252  0.55971  1.0000
  C   C3        1.0  0.53755  0.85251  0.94028  1.0000
  C   C4        1.0  0.46246  0.14748  0.44028  1.0000
  C   C5        1.0  0.64366  0.21658  0.00279  1.0000
  C   C6        1.0  0.35632  0.78342  0.50279  1.0000
  C   C7        1.0  0.35638  0.78342  0.99720  1.0000
  C   C8        1.0  0.64366  0.21658  0.49721  1.0000
  C   C9        1.0  0.84192  0.28751  0.04628  1.0000
  C   C10       1.0  0.15806  0.71249  0.54629  1.0000
  C   C11       1.0  0.15809  0.71248  0.95371  1.0000
  C   C12       1.0  0.84193  0.28751  0.45371  1.0000
  C   C13       1.0  0.85639  0.28961  0.14651  1.0000
  C   C14       1.0  0.14359  0.71040  0.64652  1.0000
  C   C15       1.0  0.14362  0.71039  0.85349  1.0000
  C   C16       1.0  0.85639  0.28960  0.35348  1.0000
  C   C17       1.0  0.66592  0.21822  0.19827  1.0000
  C   C18       1.0  0.33407  0.78179  0.69827  1.0000
  C   C19       1.0  0.33409  0.78179  0.80172  1.0000
  C   C20       1.0  0.66592  0.21821  0.30172  1.0000
  C   C21       1.0  0.05806  0.36129  0.19845  1.0000
  C   C22       1.0  0.94193  0.63872  0.69845  1.0000
  C   C23       1.0  0.94194  0.63872  0.80156  1.0000
  C   C24       1.0  0.05808  0.36129  0.30155  1.0000
  C   C25       1.0  0.42369  0.49164  0.19828  1.0000
  C   C26       1.0  0.57630  0.50836  0.69830  1.0000
  C   C27       1.0  0.57630  0.50835  0.80173  1.0000
  C   C28       1.0  0.42370  0.49164  0.30172  1.0000
  C   C29       1.0  0.62163  0.56014  0.14845  1.0000
  C   C30       1.0  0.37837  0.43985  0.64846  1.0000
  C   C31       1.0  0.37838  0.43985  0.85156  1.0000
  C   C32       1.0  0.62163  0.56013  0.35156  1.0000
  C   C33       1.0  0.81106  0.62547  0.19909  1.0000
  C   C34       1.0  0.18895  0.37453  0.69910  1.0000
  C   C35       1.0  0.18895  0.37452  0.80093  1.0000
  C   C36       1.0  0.81107  0.62546  0.30092  1.0000
  N   N1        1.0  0.47368  0.14807  0.15505  1.0000
  N   N2        1.0  0.52632  0.85195  0.65505  1.0000
  N   N3        1.0  0.52634  0.85195  0.84494  1.0000
  N   N4        1.0  0.47368  0.14806  0.34495  1.0000
  N   N5        1.0  0.23854  0.42627  0.35145  1.0000
  N   N6        1.0  0.76147  0.57373  0.85146  1.0000
  N   N7        1.0  0.76143  0.57372  0.64855  1.0000
  N   N8        1.0  0.23856  0.42628  0.14854  1.0000
  Cl  Cl1       1.0  0.96593  0.96918  0.12923  1.0000
  Cl  Cl2       1.0  0.03406  0.03082  0.62923  1.0000
  Cl  Cl3       1.0  0.03408  0.03082  0.87076  1.0000
  Cl  Cl4       1.0  0.96593  0.96919  0.37076  1.0000
  Cl  Cl5       1.0  0.36632  0.81798  0.25000  1.0000
  Cl  Cl6       1.0  0.63366  0.18202  0.75000  1.0000
