data_image0
_chemical_formula_structural       Ni3H30C36N6O18
_chemical_formula_sum              "Ni3 H30 C36 N6 O18"
_cell_length_a       8.5884
_cell_length_b       11.5162
_cell_length_c       11.5124
_cell_angle_alpha    119.566
_cell_angle_beta     90.528
_cell_angle_gamma    89.4344

_space_group_name_H-M_alt    "P 1"
_space_group_IT_number       1

loop_
  _space_group_symop_operation_xyz
  'x, y, z'

loop_
  _atom_site_type_symbol
  _atom_site_label
  _atom_site_symmetry_multiplicity
  _atom_site_fract_x
  _atom_site_fract_y
  _atom_site_fract_z
  _atom_site_occupancy
  Ni  Ni1       1.0  0.00005  0.28946  0.28951  1.0000
  Ni  Ni2       1.0  0.33455  0.70670  0.00090  1.0000
  Ni  Ni3       1.0  0.66540  0.00084  0.70639  1.0000
  H   H1        1.0  0.47996  0.60058  0.40866  1.0000
  H   H2        1.0  0.81732  0.59098  0.19161  1.0000
  H   H3        1.0  0.14710  0.80954  0.40877  1.0000
  H   H4        1.0  0.51995  0.40911  0.60075  1.0000
  H   H5        1.0  0.18233  0.19139  0.59137  1.0000
  H   H6        1.0  0.85307  0.40830  0.80923  1.0000
  H   H7        1.0  0.11581  0.72400  0.69972  1.0000
  H   H8        1.0  0.45168  0.30062  0.02874  1.0000
  H   H9        1.0  0.78010  0.96998  0.27281  1.0000
  H   H10       1.0  0.88378  0.69996  0.72398  1.0000
  H   H11       1.0  0.54847  0.02911  0.30090  1.0000
  H   H12       1.0  0.22042  0.27272  0.96988  1.0000
  H   H13       1.0  0.31404  0.40070  0.25596  1.0000
  H   H14       1.0  0.64995  0.74243  0.14033  1.0000
  H   H15       1.0  0.98074  0.86190  0.60953  1.0000
  H   H16       1.0  0.68623  0.25632  0.40086  1.0000
  H   H17       1.0  0.34980  0.14021  0.74280  1.0000
  H   H18       1.0  0.01904  0.60929  0.86179  1.0000
  H   H19       1.0  0.08764  0.16815  0.03762  1.0000
  H   H20       1.0  0.41921  0.95202  0.12260  1.0000
  H   H21       1.0  0.75335  0.87801  0.83203  1.0000
  H   H22       1.0  0.91202  0.03787  0.16850  1.0000
  H   H23       1.0  0.58120  0.12239  0.95184  1.0000
  H   H24       1.0  0.24644  0.83245  0.87777  1.0000
  H   H25       1.0  0.21210  0.14843  0.13875  1.0000
  H   H26       1.0  0.54510  0.85122  0.00316  1.0000
  H   H27       1.0  0.87809  0.99822  0.84886  1.0000
  H   H28       1.0  0.78763  0.13912  0.14892  1.0000
  H   H29       1.0  0.45550  0.00269  0.85112  1.0000
  H   H30       1.0  0.12147  0.84919  0.99798  1.0000
  C   C1        1.0  0.36558  0.58560  0.43907  1.0000
  C   C2        1.0  0.70278  0.55975  0.14577  1.0000
  C   C3        1.0  0.03217  0.85485  0.42127  1.0000
  C   C4        1.0  0.63433  0.43940  0.58570  1.0000
  C   C5        1.0  0.29707  0.14570  0.56008  1.0000
  C   C6        1.0  0.96804  0.42096  0.85459  1.0000
  C   C7        1.0  0.16137  0.65536  0.60129  1.0000
  C   C8        1.0  0.49810  0.39821  0.05589  1.0000
  C   C9        1.0  0.82675  0.94305  0.34440  1.0000
  C   C10       1.0  0.83847  0.60151  0.65532  1.0000
  C   C11       1.0  0.50194  0.05617  0.39848  1.0000
  C   C12       1.0  0.17361  0.34427  0.94291  1.0000
  C   C13       1.0  0.30795  0.67725  0.56538  1.0000
  C   C14       1.0  0.64583  0.43369  0.11319  1.0000
  C   C15       1.0  0.97466  0.88596  0.32562  1.0000
  C   C16       1.0  0.69194  0.56563  0.67733  1.0000
  C   C17       1.0  0.35399  0.11319  0.43392  1.0000
  C   C18       1.0  0.02569  0.32543  0.88584  1.0000
  C   C19       1.0  0.40254  0.79711  0.66050  1.0000
  C   C20       1.0  0.73853  0.33665  0.13902  1.0000
  C   C21       1.0  0.07013  0.85934  0.20523  1.0000
  C   C22       1.0  0.59765  0.66094  0.79754  1.0000
  C   C23       1.0  0.26127  0.13897  0.33688  1.0000
  C   C24       1.0  0.92992  0.20529  0.85929  1.0000
  C   C25       1.0  0.07704  0.54338  0.51175  1.0000
  C   C26       1.0  0.41267  0.48694  0.03105  1.0000
  C   C27       1.0  0.74206  0.96912  0.45728  1.0000
  C   C28       1.0  0.92295  0.51196  0.54333  1.0000
  C   C29       1.0  0.58740  0.03124  0.48712  1.0000
  C   C30       1.0  0.25810  0.45719  0.96892  1.0000
  C   C31       1.0  0.27492  0.47594  0.35484  1.0000
  C   C32       1.0  0.61125  0.64383  0.11815  1.0000
  C   C33       1.0  0.94138  0.88331  0.53188  1.0000
  C   C34       1.0  0.72516  0.35515  0.47606  1.0000
  C   C35       1.0  0.38868  0.11809  0.64416  1.0000
  C   C36       1.0  0.05868  0.53162  0.88312  1.0000
  N   N1        1.0  0.13391  0.45508  0.39023  1.0000
  N   N2        1.0  0.46938  0.60831  0.06161  1.0000
  N   N3        1.0  0.79948  0.93988  0.55007  1.0000
  N   N4        1.0  0.86618  0.39045  0.45519  1.0000
  N   N5        1.0  0.53061  0.06151  0.60851  1.0000
  N   N6        1.0  0.20056  0.54996  0.93969  1.0000
  O   O1        1.0  0.34595  0.87510  0.77658  1.0000
  O   O2        1.0  0.68250  0.22005  0.09546  1.0000
  O   O3        1.0  0.01197  0.89593  0.12522  1.0000
  O   O4        1.0  0.65454  0.77686  0.87527  1.0000
  O   O5        1.0  0.31740  0.09552  0.22025  1.0000
  O   O6        1.0  0.98771  0.12497  0.89568  1.0000
  O   O7        1.0  0.53085  0.81148  0.61663  1.0000
  O   O8        1.0  0.86455  0.38046  0.20415  1.0000
  O   O9        1.0  0.19989  0.80205  0.19257  1.0000
  O   O10       1.0  0.46944  0.61731  0.81242  1.0000
  O   O11       1.0  0.13515  0.20409  0.38072  1.0000
  O   O12       1.0  0.80013  0.19321  0.80234  1.0000
  O   O13       1.0  0.14424  0.21240  0.12487  1.0000
  O   O14       1.0  0.47682  0.86523  0.08077  1.0000
  O   O15       1.0  0.80854  0.92102  0.78721  1.0000
  O   O16       1.0  0.85542  0.12515  0.21289  1.0000
  O   O17       1.0  0.52352  0.08038  0.86510  1.0000
  O   O18       1.0  0.19110  0.78764  0.92075  1.0000
