data_image0
_chemical_formula_structural       Na4H44C32S12N8O12
_chemical_formula_sum              "Na4 H44 C32 S12 N8 O12"
_cell_length_a       6.24908
_cell_length_b       12.899
_cell_length_c       16.5441
_cell_angle_alpha    111.453
_cell_angle_beta     90.0001
_cell_angle_gamma    89.9995

_space_group_name_H-M_alt    "P 1"
_space_group_IT_number       1

loop_
  _space_group_symop_operation_xyz
  'x, y, z'

loop_
  _atom_site_type_symbol
  _atom_site_label
  _atom_site_symmetry_multiplicity
  _atom_site_fract_x
  _atom_site_fract_y
  _atom_site_fract_z
  _atom_site_occupancy
  Na  Na1       1.0  0.81662  0.00590  0.08733  1.0000
  Na  Na2       1.0  0.68339  0.50590  0.58734  1.0000
  Na  Na3       1.0  0.18339  0.99410  0.91266  1.0000
  Na  Na4       1.0  0.31661  0.49410  0.41267  1.0000
  H   H1        1.0  0.47137  0.13605  0.18824  1.0000
  H   H2        1.0  0.02864  0.63605  0.68825  1.0000
  H   H3        1.0  0.52865  0.86396  0.81176  1.0000
  H   H4        1.0  0.97136  0.36395  0.31176  1.0000
  H   H5        1.0  0.42171  0.12983  0.09117  1.0000
  H   H6        1.0  0.07830  0.62983  0.59117  1.0000
  H   H7        1.0  0.57829  0.87017  0.90883  1.0000
  H   H8        1.0  0.92170  0.37018  0.40884  1.0000
  H   H9        1.0  0.82505  0.78481  0.94454  1.0000
  H   H10       1.0  0.67494  0.28481  0.44454  1.0000
  H   H11       1.0  0.17495  0.21519  0.05546  1.0000
  H   H12       1.0  0.32506  0.71519  0.55547  1.0000
  H   H13       1.0  0.60417  0.76758  0.98526  1.0000
  H   H14       1.0  0.89582  0.26757  0.48526  1.0000
  H   H15       1.0  0.39583  0.23242  0.01474  1.0000
  H   H16       1.0  0.10417  0.73243  0.51474  1.0000
  H   H17       1.0  0.64031  0.39661  0.25629  1.0000
  H   H18       1.0  0.85970  0.89662  0.75628  1.0000
  H   H19       1.0  0.35969  0.60339  0.74372  1.0000
  H   H20       1.0  0.14031  0.10338  0.24371  1.0000
  H   H21       1.0  0.98538  0.62371  0.36097  1.0000
  H   H22       1.0  0.51464  0.12371  0.86097  1.0000
  H   H23       1.0  0.01463  0.37631  0.63904  1.0000
  H   H24       1.0  0.48538  0.87630  0.13902  1.0000
  H   H25       1.0  0.97211  0.58907  0.04918  1.0000
  H   H26       1.0  0.52787  0.08909  0.54918  1.0000
  H   H27       1.0  0.02788  0.41090  0.95082  1.0000
  H   H28       1.0  0.47211  0.91092  0.45081  1.0000
  H   H29       1.0  0.68253  0.68967  0.15042  1.0000
  H   H30       1.0  0.81746  0.18968  0.65041  1.0000
  H   H31       1.0  0.31744  0.31031  0.84958  1.0000
  H   H32       1.0  0.18255  0.81032  0.34958  1.0000
  H   H33       1.0  0.68897  0.70721  0.30432  1.0000
  H   H34       1.0  0.81104  0.20722  0.80431  1.0000
  H   H35       1.0  0.31103  0.29279  0.69568  1.0000
  H   H36       1.0  0.18897  0.79279  0.19568  1.0000
  H   H37       1.0  0.28475  0.98507  0.07990  1.0000
  H   H38       1.0  0.21525  0.48507  0.57990  1.0000
  H   H39       1.0  0.71525  0.01492  0.92010  1.0000
  H   H40       1.0  0.78474  0.51493  0.42010  1.0000
  H   H41       1.0  0.19024  0.86382  0.02712  1.0000
  H   H42       1.0  0.30976  0.36381  0.52712  1.0000
  H   H43       1.0  0.80976  0.13618  0.97288  1.0000
  H   H44       1.0  0.69024  0.63619  0.47288  1.0000
  C   C1        1.0  0.43341  0.45198  0.18769  1.0000
  C   C2        1.0  0.06660  0.95199  0.68768  1.0000
  C   C3        1.0  0.56658  0.54802  0.81232  1.0000
  C   C4        1.0  0.93341  0.04801  0.31231  1.0000
  C   C5        1.0  0.98142  0.61482  0.29296  1.0000
  C   C6        1.0  0.51860  0.11484  0.79296  1.0000
  C   C7        1.0  0.01859  0.38518  0.70704  1.0000
  C   C8        1.0  0.48142  0.88517  0.20703  1.0000
  C   C9        1.0  0.14371  0.55544  0.23615  1.0000
  C   C10       1.0  0.35630  0.05546  0.73615  1.0000
  C   C11       1.0  0.85630  0.44455  0.76385  1.0000
  C   C12       1.0  0.64371  0.94455  0.26384  1.0000
  C   C13       1.0  0.13712  0.54618  0.14820  1.0000
  C   C14       1.0  0.36288  0.04621  0.64820  1.0000
  C   C15       1.0  0.86287  0.45380  0.85180  1.0000
  C   C16       1.0  0.63711  0.95381  0.35179  1.0000
  C   C17       1.0  0.75271  0.32802  0.13294  1.0000
  C   C18       1.0  0.74731  0.82803  0.63294  1.0000
  C   C19       1.0  0.24730  0.67198  0.86707  1.0000
  C   C20       1.0  0.25270  0.17197  0.36706  1.0000
  C   C21       1.0  0.97323  0.59444  0.11642  1.0000
  C   C22       1.0  0.52675  0.09445  0.61642  1.0000
  C   C23       1.0  0.02674  0.40555  0.88358  1.0000
  C   C24       1.0  0.47324  0.90555  0.38357  1.0000
  C   C25       1.0  0.81295  0.65200  0.17364  1.0000
  C   C26       1.0  0.68703  0.15202  0.67364  1.0000
  C   C27       1.0  0.18702  0.34799  0.82636  1.0000
  C   C28       1.0  0.31295  0.84799  0.32635  1.0000
  C   C29       1.0  0.81717  0.66206  0.26119  1.0000
  C   C30       1.0  0.68282  0.16208  0.76118  1.0000
  C   C31       1.0  0.18282  0.33793  0.73882  1.0000
  C   C32       1.0  0.31717  0.83793  0.23880  1.0000
  S   S1        1.0  0.72348  0.31340  0.02743  1.0000
  S   S2        1.0  0.77653  0.81340  0.52743  1.0000
  S   S3        1.0  0.27651  0.68661  0.97258  1.0000
  S   S4        1.0  0.22346  0.18660  0.47257  1.0000
  S   S5        1.0  0.95328  0.26762  0.17056  1.0000
  S   S6        1.0  0.54675  0.76764  0.67056  1.0000
  S   S7        1.0  0.04673  0.73237  0.82944  1.0000
  S   S8        1.0  0.45327  0.23237  0.32944  1.0000
  S   S9        1.0  0.35272  0.46717  0.09116  1.0000
  S   S10       1.0  0.14728  0.96719  0.59116  1.0000
  S   S11       1.0  0.64726  0.53282  0.90885  1.0000
  S   S12       1.0  0.85272  0.03282  0.40884  1.0000
  N   N1        1.0  0.31528  0.50174  0.25704  1.0000
  N   N2        1.0  0.18472  0.00175  0.75703  1.0000
  N   N3        1.0  0.68471  0.49826  0.74297  1.0000
  N   N4        1.0  0.81529  0.99825  0.24296  1.0000
  N   N5        1.0  0.61156  0.39237  0.19444  1.0000
  N   N6        1.0  0.88845  0.89237  0.69443  1.0000
  N   N7        1.0  0.38843  0.60763  0.80557  1.0000
  N   N8        1.0  0.11157  0.10762  0.30556  1.0000
  O   O1        1.0  0.47567  0.08620  0.12595  1.0000
  O   O2        1.0  0.02434  0.58620  0.62595  1.0000
  O   O3        1.0  0.52434  0.91380  0.87405  1.0000
  O   O4        1.0  0.97566  0.41380  0.37405  1.0000
  O   O5        1.0  0.70587  0.82531  0.98309  1.0000
  O   O6        1.0  0.79411  0.32531  0.48309  1.0000
  O   O7        1.0  0.29412  0.17469  0.01691  1.0000
  O   O8        1.0  0.20588  0.67469  0.51692  1.0000
  O   O9        1.0  0.16254  0.94462  0.04351  1.0000
  O   O10       1.0  0.33747  0.44461  0.54351  1.0000
  O   O11       1.0  0.83747  0.05539  0.95649  1.0000
  O   O12       1.0  0.66253  0.55539  0.45650  1.0000
