data_image0
_chemical_formula_structural       V4Cu4As4H12C16N8O24
_chemical_formula_sum              "V4 Cu4 As4 H12 C16 N8 O24"
_cell_length_a       7.86961
_cell_length_b       10.3308
_cell_length_c       11.7682
_cell_angle_alpha    99.3917
_cell_angle_beta     90.0167
_cell_angle_gamma    112.381

_space_group_name_H-M_alt    "P 1"
_space_group_IT_number       1

loop_
  _space_group_symop_operation_xyz
  'x, y, z'

loop_
  _atom_site_type_symbol
  _atom_site_label
  _atom_site_symmetry_multiplicity
  _atom_site_fract_x
  _atom_site_fract_y
  _atom_site_fract_z
  _atom_site_occupancy
  V   V1        1.0  0.65719  0.66642  0.23727  1.0000
  V   V2        1.0  0.99101  0.33349  0.26295  1.0000
  V   V3        1.0  0.34281  0.33357  0.76273  1.0000
  V   V4        1.0  0.00900  0.66652  0.73705  1.0000
  Cu  Cu1       1.0  0.25901  0.25167  0.46017  1.0000
  Cu  Cu2       1.0  0.00702  0.74829  0.03986  1.0000
  Cu  Cu3       1.0  0.74099  0.74833  0.53983  1.0000
  Cu  Cu4       1.0  0.99297  0.25171  0.96014  1.0000
  As  As1       1.0  0.67267  0.43106  0.39250  1.0000
  As  As2       1.0  0.24134  0.56877  0.10762  1.0000
  As  As3       1.0  0.32733  0.56893  0.60750  1.0000
  As  As4       1.0  0.75866  0.43124  0.89238  1.0000
  H   H1        1.0  0.54116  0.95367  0.63178  1.0000
  H   H2        1.0  0.58757  0.04696  0.86863  1.0000
  H   H3        1.0  0.45885  0.04633  0.36823  1.0000
  H   H4        1.0  0.41243  0.95303  0.13137  1.0000
  H   H5        1.0  0.63363  0.22164  0.64063  1.0000
  H   H6        1.0  0.41162  0.77897  0.85963  1.0000
  H   H7        1.0  0.36639  0.77836  0.35937  1.0000
  H   H8        1.0  0.58837  0.22103  0.14037  1.0000
  H   H9        1.0  0.95099  0.35947  0.57946  1.0000
  H   H10       1.0  0.59096  0.64080  0.92066  1.0000
  H   H11       1.0  0.04901  0.64053  0.42054  1.0000
  H   H12       1.0  0.40903  0.35921  0.07934  1.0000
  C   C1        1.0  0.94334  0.03701  0.52581  1.0000
  C   C2        1.0  0.90628  0.96308  0.97426  1.0000
  C   C3        1.0  0.05666  0.96299  0.47419  1.0000
  C   C4        1.0  0.09371  0.03692  0.02574  1.0000
  C   C5        1.0  0.67215  0.02281  0.60459  1.0000
  C   C6        1.0  0.64926  0.97765  0.89574  1.0000
  C   C7        1.0  0.32786  0.97719  0.39541  1.0000
  C   C8        1.0  0.35074  0.02235  0.10426  1.0000
  C   C9        1.0  0.72586  0.16874  0.61095  1.0000
  C   C10       1.0  0.55682  0.83173  0.88930  1.0000
  C   C11       1.0  0.27416  0.83127  0.38906  1.0000
  C   C12       1.0  0.44317  0.16827  0.11070  1.0000
  C   C13       1.0  0.89909  0.24490  0.57498  1.0000
  C   C14       1.0  0.65380  0.75538  0.92519  1.0000
  C   C15       1.0  0.10092  0.75511  0.42502  1.0000
  C   C16       1.0  0.34619  0.24462  0.07481  1.0000
  N   N1        1.0  0.00727  0.17791  0.53148  1.0000
  N   N2        1.0  0.82907  0.82219  0.96861  1.0000
  N   N3        1.0  0.99274  0.82209  0.46852  1.0000
  N   N4        1.0  0.17092  0.17781  0.03139  1.0000
  N   N5        1.0  0.78322  0.95770  0.56239  1.0000
  N   N6        1.0  0.82558  0.04255  0.93775  1.0000
  N   N7        1.0  0.21678  0.04230  0.43762  1.0000
  N   N8        1.0  0.17441  0.95746  0.06224  1.0000
  O   O1        1.0  0.48407  0.27741  0.38057  1.0000
  O   O2        1.0  0.20629  0.72239  0.11950  1.0000
  O   O3        1.0  0.51594  0.72258  0.61945  1.0000
  O   O4        1.0  0.79372  0.27762  0.88050  1.0000
  O   O5        1.0  0.71462  0.54972  0.51758  1.0000
  O   O6        1.0  0.16480  0.45025  0.98246  1.0000
  O   O7        1.0  0.28539  0.45028  0.48241  1.0000
  O   O8        1.0  0.83519  0.54975  0.01754  1.0000
  O   O9        1.0  0.68332  0.50466  0.26773  1.0000
  O   O10       1.0  0.17870  0.49528  0.23244  1.0000
  O   O11       1.0  0.31665  0.49533  0.73226  1.0000
  O   O12       1.0  0.82130  0.50473  0.76756  1.0000
  O   O13       1.0  0.86107  0.37915  0.38339  1.0000
  O   O14       1.0  0.48166  0.62073  0.11672  1.0000
  O   O15       1.0  0.13893  0.62084  0.61660  1.0000
  O   O16       1.0  0.51834  0.37927  0.88328  1.0000
  O   O17       1.0  0.07316  0.21797  0.29386  1.0000
  O   O18       1.0  0.85470  0.78203  0.20630  1.0000
  O   O19       1.0  0.92684  0.78204  0.70614  1.0000
  O   O20       1.0  0.14531  0.21796  0.79370  1.0000
  O   O21       1.0  0.40431  0.26115  0.64362  1.0000
  O   O22       1.0  0.14279  0.73891  0.85622  1.0000
  O   O23       1.0  0.59568  0.73883  0.35638  1.0000
  O   O24       1.0  0.85721  0.26109  0.14378  1.0000
