data_image0
_chemical_formula_structural       CuH32C24S2N8O4
_chemical_formula_sum              "Cu1 H32 C24 S2 N8 O4"
_cell_length_a       7.36777
_cell_length_b       9.34849
_cell_length_c       10.3595
_cell_angle_alpha    79.6481
_cell_angle_beta     89.6936
_cell_angle_gamma    75.395

_space_group_name_H-M_alt    "P 1"
_space_group_IT_number       1

loop_
  _space_group_symop_operation_xyz
  'x, y, z'

loop_
  _atom_site_type_symbol
  _atom_site_label
  _atom_site_symmetry_multiplicity
  _atom_site_fract_x
  _atom_site_fract_y
  _atom_site_fract_z
  _atom_site_occupancy
  Cu  Cu1       1.0  1.00000  0.50000  1.00000  1.0000
  H   H1        1.0  0.77322  0.72365  0.52840  1.0000
  H   H2        1.0  0.22677  0.27635  0.47160  1.0000
  H   H3        1.0  0.05978  0.59364  0.25002  1.0000
  H   H4        1.0  0.94023  0.40635  0.74998  1.0000
  H   H5        1.0  0.61386  0.49800  0.07166  1.0000
  H   H6        1.0  0.38615  0.50199  0.92834  1.0000
  H   H7        1.0  0.40189  0.56651  0.25549  1.0000
  H   H8        1.0  0.59812  0.43348  0.74451  1.0000
  H   H9        1.0  0.52669  0.65684  0.43901  1.0000
  H   H10       1.0  0.47330  0.34316  0.56098  1.0000
  H   H11       1.0  0.20016  0.72327  0.64600  1.0000
  H   H12       1.0  0.79984  0.27673  0.35400  1.0000
  H   H13       1.0  0.95304  0.79269  0.65715  1.0000
  H   H14       1.0  0.04696  0.20732  0.34286  1.0000
  H   H15       1.0  0.12244  0.99661  0.62119  1.0000
  H   H16       1.0  0.87756  0.00340  0.37881  1.0000
  H   H17       1.0  0.20931  0.94254  0.47359  1.0000
  H   H18       1.0  0.79068  0.05747  0.52640  1.0000
  H   H19       1.0  0.74155  0.18877  0.13097  1.0000
  H   H20       1.0  0.25845  0.81124  0.86902  1.0000
  H   H21       1.0  0.67118  0.02494  0.80345  1.0000
  H   H22       1.0  0.32883  0.97505  0.19655  1.0000
  H   H23       1.0  0.91764  0.97143  0.83510  1.0000
  H   H24       1.0  0.08237  0.02858  0.16489  1.0000
  H   H25       1.0  0.79881  0.16653  0.78725  1.0000
  H   H26       1.0  0.20118  0.83347  0.21275  1.0000
  H   H27       1.0  0.62391  0.89697  0.03217  1.0000
  H   H28       1.0  0.37608  0.10304  0.96782  1.0000
  H   H29       1.0  0.69756  0.96836  0.16637  1.0000
  H   H30       1.0  0.30243  0.03165  0.83363  1.0000
  H   H31       1.0  0.86540  0.84824  0.08077  1.0000
  H   H32       1.0  0.13459  0.15176  0.91924  1.0000
  C   C1        1.0  0.30194  0.28571  0.20204  1.0000
  C   C2        1.0  0.69806  0.71428  0.79797  1.0000
  C   C3        1.0  0.80423  0.63414  0.35953  1.0000
  C   C4        1.0  0.19577  0.36585  0.64048  1.0000
  C   C5        1.0  0.91414  0.58964  0.25539  1.0000
  C   C6        1.0  0.08586  0.41034  0.74462  1.0000
  C   C7        1.0  0.66174  0.53597  0.15553  1.0000
  C   C8        1.0  0.33827  0.46402  0.84447  1.0000
  C   C9        1.0  0.54647  0.57410  0.25750  1.0000
  C   C10       1.0  0.45353  0.42590  0.74249  1.0000
  C   C11       1.0  0.61696  0.62463  0.35979  1.0000
  C   C12       1.0  0.38304  0.37537  0.64021  1.0000
  C   C13       1.0  0.04644  0.71019  0.47888  1.0000
  C   C14       1.0  0.95356  0.28980  0.52113  1.0000
  C   C15       1.0  0.06996  0.78895  0.59065  1.0000
  C   C16       1.0  0.93004  0.21106  0.40935  1.0000
  C   C17       1.0  0.08852  0.94873  0.53745  1.0000
  C   C18       1.0  0.91147  0.05128  0.46255  1.0000
  C   C19       1.0  0.77103  0.19542  0.02525  1.0000
  C   C20       1.0  0.22897  0.80458  0.97475  1.0000
  C   C21       1.0  0.78856  0.05844  0.84370  1.0000
  C   C22       1.0  0.21144  0.94156  0.15630  1.0000
  C   C23       1.0  0.73547  0.93895  0.07014  1.0000
  C   C24       1.0  0.26453  0.06105  0.92986  1.0000
  S   S1        1.0  0.45133  0.18783  0.31952  1.0000
  S   S2        1.0  0.54866  0.81217  0.68048  1.0000
  N   N1        1.0  0.19087  0.35394  0.11654  1.0000
  N   N2        1.0  0.80912  0.64607  0.88346  1.0000
  N   N3        1.0  0.84102  0.54401  0.15639  1.0000
  N   N4        1.0  0.15899  0.45598  0.84361  1.0000
  N   N5        1.0  0.87090  0.68937  0.46141  1.0000
  N   N6        1.0  0.12910  0.31062  0.53859  1.0000
  N   N7        1.0  0.75947  0.07109  0.98051  1.0000
  N   N8        1.0  0.24054  0.92892  0.01949  1.0000
  O   O1        1.0  0.17730  0.67208  0.40633  1.0000
  O   O2        1.0  0.82270  0.32791  0.59368  1.0000
  O   O3        1.0  0.80759  0.30837  0.95778  1.0000
  O   O4        1.0  0.19243  0.69164  0.04221  1.0000
