data_image0
_chemical_formula_structural       Cu6H20C26I6N8
_chemical_formula_sum              "Cu6 H20 C26 I6 N8"
_cell_length_a       9.31345
_cell_length_b       9.52237
_cell_length_c       10.7007
_cell_angle_alpha    99.8492
_cell_angle_beta     108.57
_cell_angle_gamma    97.0706

_space_group_name_H-M_alt    "P 1"
_space_group_IT_number       1

loop_
  _space_group_symop_operation_xyz
  'x, y, z'

loop_
  _atom_site_type_symbol
  _atom_site_label
  _atom_site_symmetry_multiplicity
  _atom_site_fract_x
  _atom_site_fract_y
  _atom_site_fract_z
  _atom_site_occupancy
  Cu  Cu1       1.0  0.28456  0.28843  0.73995  1.0000
  Cu  Cu2       1.0  0.71544  0.71157  0.26005  1.0000
  Cu  Cu3       1.0  0.50200  0.33736  0.96789  1.0000
  Cu  Cu4       1.0  0.49801  0.66264  0.03211  1.0000
  Cu  Cu5       1.0  0.59333  0.08071  0.95915  1.0000
  Cu  Cu6       1.0  0.40667  0.91929  0.04086  1.0000
  H   H1        1.0  0.70175  0.99675  0.54047  1.0000
  H   H2        1.0  0.29826  0.00325  0.45954  1.0000
  H   H3        1.0  0.75748  0.18509  0.38985  1.0000
  H   H4        1.0  0.24252  0.81491  0.61016  1.0000
  H   H5        1.0  0.88460  0.32968  0.30636  1.0000
  H   H6        1.0  0.11540  0.67031  0.69364  1.0000
  H   H7        1.0  0.04800  0.51026  0.24290  1.0000
  H   H8        1.0  0.95200  0.48974  0.75710  1.0000
  H   H9        1.0  0.32626  0.60131  0.39078  1.0000
  H   H10       1.0  0.67374  0.39869  0.60923  1.0000
  H   H11       1.0  0.42779  0.50595  0.60189  1.0000
  H   H12       1.0  0.57221  0.49406  0.39811  1.0000
  H   H13       1.0  0.75349  0.90371  0.73064  1.0000
  H   H14       1.0  0.24651  0.09629  0.26936  1.0000
  H   H15       1.0  0.82189  0.75824  0.90564  1.0000
  H   H16       1.0  0.17811  0.24176  0.09436  1.0000
  H   H17       1.0  0.10075  0.76790  0.03567  1.0000
  H   H18       1.0  0.89924  0.23210  0.96433  1.0000
  H   H19       1.0  0.24276  0.05208  0.82608  1.0000
  H   H20       1.0  0.75724  0.94792  0.17392  1.0000
  C   C1        1.0  0.95686  0.07315  0.65722  1.0000
  C   C2        1.0  0.04314  0.92684  0.34278  1.0000
  C   C3        1.0  0.81087  0.06514  0.55677  1.0000
  C   C4        1.0  0.18913  0.93486  0.44323  1.0000
  C   C5        1.0  0.83612  0.15894  0.47837  1.0000
  C   C6        1.0  0.16388  0.84106  0.52163  1.0000
  C   C7        1.0  0.07317  0.32326  0.48767  1.0000
  C   C8        1.0  0.92683  0.67674  0.51233  1.0000
  C   C9        1.0  0.00517  0.37056  0.36975  1.0000
  C   C10       1.0  0.99483  0.62944  0.63025  1.0000
  C   C11       1.0  0.09762  0.47145  0.33454  1.0000
  C   C12       1.0  0.90238  0.52855  0.66546  1.0000
  C   C13       1.0  0.25217  0.52190  0.41659  1.0000
  C   C14       1.0  0.74783  0.47810  0.58341  1.0000
  C   C15       1.0  0.30889  0.46950  0.53266  1.0000
  C   C16       1.0  0.69111  0.53050  0.46734  1.0000
  C   C17       1.0  0.99293  0.98980  0.76197  1.0000
  C   C18       1.0  0.00707  0.01020  0.23803  1.0000
  C   C19       1.0  0.87438  0.90531  0.78647  1.0000
  C   C20       1.0  0.12562  0.09469  0.21353  1.0000
  C   C21       1.0  0.91181  0.82428  0.88455  1.0000
  C   C22       1.0  0.08819  0.17572  0.11545  1.0000
  C   C23       1.0  0.06615  0.82936  0.95732  1.0000
  C   C24       1.0  0.93385  0.17064  0.04268  1.0000
  C   C25       1.0  0.14545  0.98830  0.84009  1.0000
  C   C26       1.0  0.85455  0.01170  0.15990  1.0000
  I   I1        1.0  0.53421  0.19285  0.74347  1.0000
  I   I2        1.0  0.46580  0.80715  0.25653  1.0000
  I   I3        1.0  0.24907  0.45471  0.94262  1.0000
  I   I4        1.0  0.75093  0.54529  0.05738  1.0000
  I   I5        1.0  0.51128  0.20148  0.16309  1.0000
  I   I6        1.0  0.48872  0.79852  0.83692  1.0000
  N   N1        1.0  0.06537  0.16817  0.64049  1.0000
  N   N2        1.0  0.93463  0.83182  0.35951  1.0000
  N   N3        1.0  0.98999  0.21980  0.53105  1.0000
  N   N4        1.0  0.01001  0.78020  0.46895  1.0000
  N   N5        1.0  0.22096  0.37187  0.56840  1.0000
  N   N6        1.0  0.77904  0.62814  0.43160  1.0000
  N   N7        1.0  0.18145  0.91052  0.93564  1.0000
  N   N8        1.0  0.81854  0.08948  0.06436  1.0000
