data_image0
_chemical_formula_structural       CuH50C42S2N8O4
_chemical_formula_sum              "Cu1 H50 C42 S2 N8 O4"
_cell_length_a       7.32035
_cell_length_b       10.4082
_cell_length_c       14.0519
_cell_angle_alpha    83.1853
_cell_angle_beta     75.7566
_cell_angle_gamma    89.8642

_space_group_name_H-M_alt    "P 1"
_space_group_IT_number       1

loop_
  _space_group_symop_operation_xyz
  'x, y, z'

loop_
  _atom_site_type_symbol
  _atom_site_label
  _atom_site_symmetry_multiplicity
  _atom_site_fract_x
  _atom_site_fract_y
  _atom_site_fract_z
  _atom_site_occupancy
  Cu  Cu1       1.0  0.49999  0.00000  0.50000  1.0000
  H   H1        1.0  0.28463  0.53945  0.64477  1.0000
  H   H2        1.0  0.71536  0.46055  0.35524  1.0000
  H   H3        1.0  0.56167  0.24887  0.56606  1.0000
  H   H4        1.0  0.43833  0.75113  0.43394  1.0000
  H   H5        1.0  0.10981  0.06995  0.50153  1.0000
  H   H6        1.0  0.89018  0.93006  0.49847  1.0000
  H   H7        1.0  0.90199  0.26003  0.54327  1.0000
  H   H8        1.0  0.09800  0.73997  0.45674  1.0000
  H   H9        1.0  0.03532  0.45017  0.59660  1.0000
  H   H10       1.0  0.96467  0.54983  0.40341  1.0000
  H   H11       1.0  0.46364  0.66143  0.70178  1.0000
  H   H12       1.0  0.53636  0.33858  0.29822  1.0000
  H   H13       1.0  0.70941  0.64976  0.64767  1.0000
  H   H14       1.0  0.29059  0.35024  0.35233  1.0000
  H   H15       1.0  0.72772  0.47607  0.78640  1.0000
  H   H16       1.0  0.27229  0.52394  0.21360  1.0000
  H   H17       1.0  0.67625  0.63069  0.82285  1.0000
  H   H18       1.0  0.32375  0.36931  0.17716  1.0000
  H   H19       1.0  0.38386  0.41109  0.84274  1.0000
  H   H20       1.0  0.61614  0.58892  0.15726  1.0000
  H   H21       1.0  0.33032  0.56594  0.87786  1.0000
  H   H22       1.0  0.66969  0.43406  0.12215  1.0000
  H   H23       1.0  0.33724  0.39938  0.01942  1.0000
  H   H24       1.0  0.66277  0.60061  0.98058  1.0000
  H   H25       1.0  0.57617  0.37045  0.96751  1.0000
  H   H26       1.0  0.42383  0.62954  0.03250  1.0000
  H   H27       1.0  0.71131  0.86956  0.70226  1.0000
  H   H28       1.0  0.28865  0.13044  0.29773  1.0000
  H   H29       1.0  0.42801  0.89309  0.91623  1.0000
  H   H30       1.0  0.57200  0.10692  0.08378  1.0000
  H   H31       1.0  0.65179  0.93733  0.93498  1.0000
  H   H32       1.0  0.34822  0.06268  0.06501  1.0000
  H   H33       1.0  0.63724  0.81621  0.85771  1.0000
  H   H34       1.0  0.36277  0.18380  0.14229  1.0000
  H   H35       1.0  0.60284  0.20055  0.74200  1.0000
  H   H36       1.0  0.39716  0.79946  0.25800  1.0000
  H   H37       1.0  0.62731  0.16924  0.86617  1.0000
  H   H38       1.0  0.37269  0.83076  0.13383  1.0000
  H   H39       1.0  0.40380  0.14224  0.84041  1.0000
  H   H40       1.0  0.59620  0.85777  0.15959  1.0000
  H   H41       1.0  0.08137  0.69962  0.90972  1.0000
  H   H42       1.0  0.91864  0.30037  0.09027  1.0000
  H   H43       1.0  0.05336  0.54223  0.06120  1.0000
  H   H44       1.0  0.94664  0.45776  0.93879  1.0000
  H   H45       1.0  0.97710  0.61794  0.22725  1.0000
  H   H46       1.0  0.02290  0.38205  0.77275  1.0000
  H   H47       1.0  0.93125  0.85025  0.24507  1.0000
  H   H48       1.0  0.06877  0.14975  0.75493  1.0000
  H   H49       1.0  0.07707  0.92325  0.83282  1.0000
  H   H50       1.0  0.92296  0.07674  0.16718  1.0000
  C   C1        1.0  0.21101  0.80911  0.64644  1.0000
  C   C2        1.0  0.78897  0.19090  0.35355  1.0000
  C   C3        1.0  0.30999  0.36497  0.58729  1.0000
  C   C4        1.0  0.69001  0.63504  0.41272  1.0000
  C   C5        1.0  0.41637  0.25617  0.56141  1.0000
  C   C6        1.0  0.58363  0.74383  0.43859  1.0000
  C   C7        1.0  0.16009  0.15577  0.52560  1.0000
  C   C8        1.0  0.83990  0.84424  0.47441  1.0000
  C   C9        1.0  0.04783  0.26158  0.54783  1.0000
  C   C10       1.0  0.95216  0.73843  0.45218  1.0000
  C   C11       1.0  0.12290  0.36727  0.57841  1.0000
  C   C12       1.0  0.87710  0.63274  0.42160  1.0000
  C   C13       1.0  0.55393  0.48167  0.64226  1.0000
  C   C14       1.0  0.44607  0.51834  0.35774  1.0000
  C   C15       1.0  0.58314  0.59620  0.69422  1.0000
  C   C16       1.0  0.41686  0.40381  0.30579  1.0000
  C   C17       1.0  0.61772  0.54905  0.79591  1.0000
  C   C18       1.0  0.38228  0.45095  0.20409  1.0000
  C   C19       1.0  0.44026  0.49263  0.87120  1.0000
  C   C20       1.0  0.55975  0.50737  0.12881  1.0000
  C   C21       1.0  0.46979  0.44628  0.97376  1.0000
  C   C22       1.0  0.53022  0.55371  0.02624  1.0000
  C   C23       1.0  0.67576  0.97318  0.70280  1.0000
  C   C24       1.0  0.32420  0.02682  0.29720  1.0000
  C   C25       1.0  0.57944  0.90796  0.88082  1.0000
  C   C26       1.0  0.42056  0.09205  0.11918  1.0000
  C   C27       1.0  0.55739  0.13704  0.81194  1.0000
  C   C28       1.0  0.44260  0.86296  0.18806  1.0000
  C   C29       1.0  0.02518  0.86651  0.99007  1.0000
  C   C30       1.0  0.97485  0.13348  0.00992  1.0000
  C   C31       1.0  0.04926  0.73149  0.98322  1.0000
  C   C32       1.0  0.95077  0.26850  0.01678  1.0000
  C   C33       1.0  0.03251  0.64502  0.06688  1.0000
  C   C34       1.0  0.96751  0.35496  0.93312  1.0000
  C   C35       1.0  0.98924  0.68826  0.16199  1.0000
  C   C36       1.0  0.01078  0.31173  0.83800  1.0000
  C   C37       1.0  0.96354  0.81714  0.17202  1.0000
  C   C38       1.0  0.03648  0.18285  0.82797  1.0000
  C   C39       1.0  0.98063  0.91052  0.08697  1.0000
  C   C40       1.0  0.01941  0.08947  0.91303  1.0000
  C   C41       1.0  0.04396  0.95706  0.90571  1.0000
  C   C42       1.0  0.95609  0.04293  0.09429  1.0000
  S   S1        1.0  0.06058  0.69619  0.70789  1.0000
  S   S2        1.0  0.93939  0.30380  0.29211  1.0000
  N   N1        1.0  0.32183  0.89177  0.60339  1.0000
  N   N2        1.0  0.67814  0.10822  0.39660  1.0000
  N   N3        1.0  0.34011  0.15568  0.53182  1.0000
  N   N4        1.0  0.65989  0.84433  0.46818  1.0000
  N   N5        1.0  0.37964  0.46884  0.62372  1.0000
  N   N6        1.0  0.62035  0.53117  0.37629  1.0000
  N   N7        1.0  0.61003  0.00532  0.79508  1.0000
  N   N8        1.0  0.38996  0.99468  0.20491  1.0000
  O   O1        1.0  0.68089  0.40344  0.62054  1.0000
  O   O2        1.0  0.31911  0.59656  0.37946  1.0000
  O   O3        1.0  0.69832  0.04887  0.62508  1.0000
  O   O4        1.0  0.30161  0.95112  0.37491  1.0000
