data_image0
_chemical_formula_structural       Cu4H20C26I4N8
_chemical_formula_sum              "Cu4 H20 C26 I4 N8"
_cell_length_a       4.03614
_cell_length_b       8.68588
_cell_length_c       21.8748
_cell_angle_alpha    90.3039
_cell_angle_beta     90.0001
_cell_angle_gamma    89.9997

_space_group_name_H-M_alt    "P 1"
_space_group_IT_number       1

loop_
  _space_group_symop_operation_xyz
  'x, y, z'

loop_
  _atom_site_type_symbol
  _atom_site_label
  _atom_site_symmetry_multiplicity
  _atom_site_fract_x
  _atom_site_fract_y
  _atom_site_fract_z
  _atom_site_occupancy
  Cu  Cu1       1.0  0.21677  0.40579  0.84135  1.0000
  Cu  Cu2       1.0  0.71678  0.59421  0.15865  1.0000
  Cu  Cu3       1.0  0.62768  0.02705  0.54037  1.0000
  Cu  Cu4       1.0  0.12769  0.97295  0.45964  1.0000
  H   H1        1.0  0.72704  0.78716  0.67788  1.0000
  H   H2        1.0  0.22705  0.21283  0.32212  1.0000
  H   H3        1.0  0.55135  0.93375  0.78418  1.0000
  H   H4        1.0  0.05135  0.06625  0.21582  1.0000
  H   H5        1.0  0.22031  0.97968  0.86508  1.0000
  H   H6        1.0  0.72032  0.02032  0.13491  1.0000
  H   H7        1.0  0.95259  0.99573  0.96688  1.0000
  H   H8        1.0  0.45259  0.00428  0.03311  1.0000
  H   H9        1.0  0.80165  0.74917  0.02198  1.0000
  H   H10       1.0  0.30163  0.25085  0.97802  1.0000
  H   H11       1.0  0.91561  0.49807  0.96842  1.0000
  H   H12       1.0  0.41560  0.50194  0.03159  1.0000
  H   H13       1.0  0.24088  0.28838  0.73679  1.0000
  H   H14       1.0  0.74091  0.71162  0.26321  1.0000
  H   H15       1.0  0.31637  0.07543  0.66187  1.0000
  H   H16       1.0  0.81641  0.92457  0.33813  1.0000
  H   H17       1.0  0.83719  0.35543  0.54305  1.0000
  H   H18       1.0  0.33722  0.64456  0.45695  1.0000
  H   H19       1.0  0.78644  0.58042  0.61213  1.0000
  H   H20       1.0  0.28646  0.41957  0.38787  1.0000
  C   C1        1.0  0.48363  0.58424  0.72412  1.0000
  C   C2        1.0  0.98364  0.41576  0.27588  1.0000
  C   C3        1.0  0.59705  0.73862  0.71675  1.0000
  C   C4        1.0  0.09705  0.26138  0.28325  1.0000
  C   C5        1.0  0.50961  0.81559  0.76945  1.0000
  C   C6        1.0  0.00961  0.18440  0.23055  1.0000
  C   C7        1.0  0.21298  0.72986  0.86459  1.0000
  C   C8        1.0  0.71298  0.27013  0.13541  1.0000
  C   C9        1.0  0.15583  0.87531  0.88975  1.0000
  C   C10       1.0  0.65583  0.12469  0.11024  1.0000
  C   C11       1.0  0.00627  0.88325  0.94693  1.0000
  C   C12       1.0  0.50627  0.11676  0.05307  1.0000
  C   C13       1.0  0.91755  0.74738  0.97695  1.0000
  C   C14       1.0  0.41754  0.25263  0.02305  1.0000
  C   C15       1.0  0.98367  0.60795  0.94803  1.0000
  C   C16       1.0  0.48366  0.39205  0.05197  1.0000
  C   C17       1.0  0.51211  0.45468  0.68181  1.0000
  C   C18       1.0  0.01213  0.54532  0.31819  1.0000
  C   C19       1.0  0.37870  0.30881  0.69473  1.0000
  C   C20       1.0  0.87872  0.69119  0.30527  1.0000
  C   C21       1.0  0.42057  0.18926  0.65324  1.0000
  C   C22       1.0  0.92061  0.81073  0.34676  1.0000
  C   C23       1.0  0.70893  0.34526  0.58677  1.0000
  C   C24       1.0  0.20896  0.65474  0.41323  1.0000
  C   C25       1.0  0.67829  0.47087  0.62578  1.0000
  C   C26       1.0  0.17832  0.52913  0.37422  1.0000
  I   I1        1.0  0.71849  0.22920  0.85346  1.0000
  I   I2        1.0  0.21849  0.77080  0.14654  1.0000
  I   I3        1.0  0.62567  0.15958  0.43276  1.0000
  I   I4        1.0  0.12566  0.84041  0.56725  1.0000
  N   N1        1.0  0.33415  0.56921  0.77897  1.0000
  N   N2        1.0  0.83416  0.43079  0.22103  1.0000
  N   N3        1.0  0.35228  0.71054  0.80621  1.0000
  N   N4        1.0  0.85229  0.28945  0.19378  1.0000
  N   N5        1.0  0.13306  0.59793  0.89306  1.0000
  N   N6        1.0  0.63306  0.40208  0.10694  1.0000
  N   N7        1.0  0.58403  0.20488  0.59972  1.0000
  N   N8        1.0  0.08406  0.79511  0.40028  1.0000
