data_image0
_chemical_formula_structural       CuH28C30S2N8O6
_chemical_formula_sum              "Cu1 H28 C30 S2 N8 O6"
_cell_length_a       7.30995
_cell_length_b       9.75894
_cell_length_c       12.7635
_cell_angle_alpha    100.215
_cell_angle_beta     105.764
_cell_angle_gamma    109.714

_space_group_name_H-M_alt    "P 1"
_space_group_IT_number       1

loop_
  _space_group_symop_operation_xyz
  'x, y, z'

loop_
  _atom_site_type_symbol
  _atom_site_label
  _atom_site_symmetry_multiplicity
  _atom_site_fract_x
  _atom_site_fract_y
  _atom_site_fract_z
  _atom_site_occupancy
  Cu  Cu1       1.0  0.00001  0.99999  1.00000  1.0000
  H   H1        1.0  0.41223  0.08538  0.98369  1.0000
  H   H2        1.0  0.58778  0.91459  0.01631  1.0000
  H   H3        1.0  0.82413  0.97030  0.75270  1.0000
  H   H4        1.0  0.17588  0.02969  0.24731  1.0000
  H   H5        1.0  0.96338  0.03287  0.60129  1.0000
  H   H6        1.0  0.03663  0.96714  0.39871  1.0000
  H   H7        1.0  0.35276  0.12943  0.64647  1.0000
  H   H8        1.0  0.64724  0.87058  0.35353  1.0000
  H   H9        1.0  0.66426  0.32623  0.77984  1.0000
  H   H10       1.0  0.33575  0.67377  0.22017  1.0000
  H   H11       1.0  0.03417  0.28049  0.90757  1.0000
  H   H12       1.0  0.96583  0.71951  0.09244  1.0000
  H   H13       1.0  0.02740  0.36545  0.79492  1.0000
  H   H14       1.0  0.97260  0.63455  0.20508  1.0000
  H   H15       1.0  0.78960  0.43976  0.01751  1.0000
  H   H16       1.0  0.21040  0.56023  0.98250  1.0000
  H   H17       1.0  0.01661  0.41925  0.09254  1.0000
  H   H18       1.0  0.98340  0.58075  0.90747  1.0000
  H   H19       1.0  0.58611  0.20244  0.26681  1.0000
  H   H20       1.0  0.41388  0.79756  0.73319  1.0000
  H   H21       1.0  0.87538  0.30105  0.19518  1.0000
  H   H22       1.0  0.12461  0.69895  0.80482  1.0000
  H   H23       1.0  0.24327  0.41181  0.32824  1.0000
  H   H24       1.0  0.75672  0.58820  0.67175  1.0000
  H   H25       1.0  0.32287  0.42465  0.53450  1.0000
  H   H26       1.0  0.67712  0.57538  0.46550  1.0000
  H   H27       1.0  0.03341  0.33192  0.60585  1.0000
  H   H28       1.0  0.96659  0.66811  0.39416  1.0000
  C   C1        1.0  0.33956  0.32584  0.14136  1.0000
  C   C2        1.0  0.66044  0.67412  0.85863  1.0000
  C   C3        1.0  0.41133  0.11268  0.81850  1.0000
  C   C4        1.0  0.58868  0.88732  0.18150  1.0000
  C   C5        1.0  0.31955  0.07666  0.89816  1.0000
  C   C6        1.0  0.68046  0.92331  0.10183  1.0000
  C   C7        1.0  0.99003  0.01270  0.76854  1.0000
  C   C8        1.0  0.00998  0.98729  0.23146  1.0000
  C   C9        1.0  0.07046  0.04846  0.68500  1.0000
  C   C10       1.0  0.92955  0.95154  0.31500  1.0000
  C   C11       1.0  0.28464  0.10118  0.71018  1.0000
  C   C12       1.0  0.71537  0.89883  0.28982  1.0000
  C   C13       1.0  0.64158  0.15970  0.85659  1.0000
  C   C14       1.0  0.35843  0.84031  0.14341  1.0000
  C   C15       1.0  0.97087  0.35167  0.86545  1.0000
  C   C16       1.0  0.02913  0.64833  0.13455  1.0000
  C   C17       1.0  0.03918  0.50656  0.95062  1.0000
  C   C18       1.0  0.96083  0.49344  0.04939  1.0000
  C   C19       1.0  0.79701  0.26115  0.43931  1.0000
  C   C20       1.0  0.20298  0.73887  0.56069  1.0000
  C   C21       1.0  0.74784  0.25126  0.32384  1.0000
  C   C22       1.0  0.25216  0.74875  0.67617  1.0000
  C   C23       1.0  0.91046  0.30710  0.28486  1.0000
  C   C24       1.0  0.08954  0.69290  0.71514  1.0000
  C   C25       1.0  0.11704  0.36870  0.35980  1.0000
  C   C26       1.0  0.88295  0.63131  0.64020  1.0000
  C   C27       1.0  0.16245  0.37650  0.47513  1.0000
  C   C28       1.0  0.83754  0.62352  0.52488  1.0000
  C   C29       1.0  0.00204  0.32422  0.51621  1.0000
  C   C30       1.0  0.99796  0.67580  0.48380  1.0000
  S   S1        1.0  0.52129  0.49589  0.20403  1.0000
  S   S2        1.0  0.47869  0.50408  0.79596  1.0000
  N   N1        1.0  0.20663  0.20085  0.09748  1.0000
  N   N2        1.0  0.79336  0.79912  0.90251  1.0000
  N   N3        1.0  0.11435  0.03029  0.87375  1.0000
  N   N4        1.0  0.88566  0.96968  0.12625  1.0000
  N   N5        1.0  0.74554  0.27145  0.81982  1.0000
  N   N6        1.0  0.25446  0.72855  0.18018  1.0000
  N   N7        1.0  0.62767  0.20523  0.48161  1.0000
  N   N8        1.0  0.37232  0.79478  0.51839  1.0000
  O   O1        1.0  0.72368  0.09659  0.92043  1.0000
  O   O2        1.0  0.27633  0.90341  0.07957  1.0000
  O   O3        1.0  0.66472  0.25453  0.58524  1.0000
  O   O4        1.0  0.33525  0.74548  0.41475  1.0000
  O   O5        1.0  0.45432  0.11114  0.41221  1.0000
  O   O6        1.0  0.54568  0.88886  0.58779  1.0000
