data_image0
_chemical_formula_structural       CuH50C44S2N8O4
_chemical_formula_sum              "Cu1 H50 C44 S2 N8 O4"
_cell_length_a       7.32632
_cell_length_b       10.4894
_cell_length_c       14.433
_cell_angle_alpha    105.573
_cell_angle_beta     101.114
_cell_angle_gamma    89.9894

_space_group_name_H-M_alt    "P 1"
_space_group_IT_number       1

loop_
  _space_group_symop_operation_xyz
  'x, y, z'

loop_
  _atom_site_type_symbol
  _atom_site_label
  _atom_site_symmetry_multiplicity
  _atom_site_fract_x
  _atom_site_fract_y
  _atom_site_fract_z
  _atom_site_occupancy
  Cu  Cu1       1.0  0.50000  0.50001  0.00001  1.0000
  H   H1        1.0  0.91861  0.43241  0.56808  1.0000
  H   H2        1.0  0.08139  0.56758  0.43192  1.0000
  H   H3        1.0  0.99672  0.29881  0.61698  1.0000
  H   H4        1.0  0.00329  0.70119  0.38301  1.0000
  H   H5        1.0  0.14819  0.37606  0.56248  1.0000
  H   H6        1.0  0.85181  0.62395  0.43751  1.0000
  H   H7        1.0  0.05778  0.64929  0.64690  1.0000
  H   H8        1.0  0.94220  0.35073  0.35311  1.0000
  H   H9        1.0  0.29756  0.63536  0.69679  1.0000
  H   H10       1.0  0.70243  0.36465  0.30321  1.0000
  H   H11       1.0  0.13896  0.68782  0.77719  1.0000
  H   H12       1.0  0.86104  0.31218  0.22282  1.0000
  H   H13       1.0  0.09735  0.34075  0.77309  1.0000
  H   H14       1.0  0.90264  0.65925  0.22690  1.0000
  H   H15       1.0  0.60885  0.26817  0.06695  1.0000
  H   H16       1.0  0.39115  0.73182  0.93305  1.0000
  H   H17       1.0  0.10516  0.43102  0.99438  1.0000
  H   H18       1.0  0.89483  0.56897  0.00561  1.0000
  H   H19       1.0  0.92896  0.25359  0.03621  1.0000
  H   H20       1.0  0.07103  0.74640  0.96379  1.0000
  H   H21       1.0  0.10398  0.07684  0.09256  1.0000
  H   H22       1.0  0.89603  0.92315  0.90745  1.0000
  H   H23       1.0  0.39706  0.99659  0.14193  1.0000
  H   H24       1.0  0.60295  0.00341  0.85808  1.0000
  H   H25       1.0  0.84605  0.89451  0.15449  1.0000
  H   H26       1.0  0.15396  0.10549  0.84552  1.0000
  H   H27       1.0  0.62327  0.87414  0.18344  1.0000
  H   H28       1.0  0.37674  0.12586  0.81657  1.0000
  H   H29       1.0  0.91516  0.10219  0.29096  1.0000
  H   H30       1.0  0.08485  0.89780  0.70905  1.0000
  H   H31       1.0  0.69192  0.08972  0.31816  1.0000
  H   H32       1.0  0.30809  0.91027  0.68185  1.0000
  H   H33       1.0  0.99702  0.89291  0.33511  1.0000
  H   H34       1.0  0.00299  0.10709  0.66489  1.0000
  H   H35       1.0  0.77343  0.87609  0.36082  1.0000
  H   H36       1.0  0.22658  0.12390  0.63918  1.0000
  H   H37       1.0  0.83075  0.08619  0.49378  1.0000
  H   H38       1.0  0.16926  0.91380  0.50623  1.0000
  H   H39       1.0  0.04415  0.11794  0.46274  1.0000
  H   H40       1.0  0.95586  0.88204  0.53727  1.0000
  H   H41       1.0  0.36015  0.60974  0.28037  1.0000
  H   H42       1.0  0.63984  0.39026  0.71962  1.0000
  H   H43       1.0  0.28861  0.36950  0.24250  1.0000
  H   H44       1.0  0.71139  0.63050  0.75750  1.0000
  H   H45       1.0  0.47672  0.82326  0.40110  1.0000
  H   H46       1.0  0.52328  0.17676  0.59890  1.0000
  H   H47       1.0  0.62398  0.95127  0.57222  1.0000
  H   H48       1.0  0.37602  0.04874  0.42778  1.0000
  H   H49       1.0  0.29302  0.16288  0.29720  1.0000
  H   H50       1.0  0.70698  0.83712  0.70280  1.0000
  C   C1        1.0  0.67230  0.27523  0.85947  1.0000
  C   C2        1.0  0.32768  0.72479  0.14054  1.0000
  C   C3        1.0  0.04005  0.39345  0.60723  1.0000
  C   C4        1.0  0.95995  0.60655  0.39276  1.0000
  C   C5        1.0  0.15380  0.62238  0.70616  1.0000
  C   C6        1.0  0.84618  0.37762  0.29384  1.0000
  C   C7        1.0  0.13998  0.44643  0.78555  1.0000
  C   C8        1.0  0.86002  0.55357  0.21445  1.0000
  C   C9        1.0  0.37257  0.15759  0.08456  1.0000
  C   C10       1.0  0.62743  0.84240  0.91544  1.0000
  C   C11       1.0  0.45936  0.26048  0.06081  1.0000
  C   C12       1.0  0.54065  0.73951  0.93919  1.0000
  C   C13       1.0  0.17452  0.35233  0.02094  1.0000
  C   C14       1.0  0.82548  0.64766  0.97906  1.0000
  C   C15       1.0  0.07916  0.25327  0.04328  1.0000
  C   C16       1.0  0.92085  0.74672  0.95672  1.0000
  C   C17       1.0  0.17808  0.15490  0.07528  1.0000
  C   C18       1.0  0.82192  0.84509  0.92472  1.0000
  C   C19       1.0  0.65972  0.04155  0.12631  1.0000
  C   C20       1.0  0.34028  0.95844  0.87369  1.0000
  C   C21       1.0  0.73224  0.94705  0.18518  1.0000
  C   C22       1.0  0.26777  0.05294  0.81483  1.0000
  C   C23       1.0  0.80495  0.03083  0.29105  1.0000
  C   C24       1.0  0.19506  0.96917  0.70896  1.0000
  C   C25       1.0  0.88131  0.94962  0.36118  1.0000
  C   C26       1.0  0.11870  0.05037  0.63882  1.0000
  C   C27       1.0  0.94982  0.03749  0.46511  1.0000
  C   C28       1.0  0.05019  0.96250  0.53490  1.0000
  C   C29       1.0  0.39245  0.55910  0.33788  1.0000
  C   C30       1.0  0.60754  0.44090  0.66211  1.0000
  C   C31       1.0  0.35326  0.42582  0.31689  1.0000
  C   C32       1.0  0.64674  0.57418  0.68310  1.0000
  C   C33       1.0  0.39506  0.35687  0.39130  1.0000
  C   C34       1.0  0.60494  0.64314  0.60870  1.0000
  C   C35       1.0  0.48004  0.43048  0.48903  1.0000
  C   C36       1.0  0.51996  0.56953  0.51096  1.0000
  C   C37       1.0  0.47522  0.63570  0.43535  1.0000
  C   C38       1.0  0.52477  0.36430  0.56464  1.0000
  C   C39       1.0  0.51317  0.77348  0.45905  1.0000
  C   C40       1.0  0.48683  0.22653  0.54094  1.0000
  C   C41       1.0  0.59542  0.84448  0.55459  1.0000
  C   C42       1.0  0.40458  0.15552  0.44541  1.0000
  C   C43       1.0  0.35781  0.21952  0.37152  1.0000
  C   C44       1.0  0.64219  0.78049  0.62847  1.0000
  S   S1        1.0  0.75669  0.14931  0.79095  1.0000
  S   S2        1.0  0.24329  0.85071  0.20906  1.0000
  N   N1        1.0  0.61005  0.36775  0.90815  1.0000
  N   N2        1.0  0.38995  0.63228  0.09187  1.0000
  N   N3        1.0  0.10950  0.48583  0.70255  1.0000
  N   N4        1.0  0.89049  0.51418  0.29744  1.0000
  N   N5        1.0  0.36029  0.35412  0.03020  1.0000
  N   N6        1.0  0.63971  0.64588  0.96981  1.0000
  N   N7        1.0  0.47243  0.06067  0.11887  1.0000
  N   N8        1.0  0.52758  0.93932  0.88112  1.0000
  O   O1        1.0  0.20656  0.51945  0.86875  1.0000
  O   O2        1.0  0.79345  0.48055  0.13124  1.0000
  O   O3        1.0  0.76500  0.10425  0.09454  1.0000
  O   O4        1.0  0.23501  0.89573  0.90545  1.0000
