data_image0
_chemical_formula_structural       CuH38C50S2N12O8
_chemical_formula_sum              "Cu1 H38 C50 S2 N12 O8"
_cell_length_a       7.95397
_cell_length_b       9.80496
_cell_length_c       15.295
_cell_angle_alpha    72.762
_cell_angle_beta     87.4203
_cell_angle_gamma    87.0865

_space_group_name_H-M_alt    "P 1"
_space_group_IT_number       1

loop_
  _space_group_symop_operation_xyz
  'x, y, z'

loop_
  _atom_site_type_symbol
  _atom_site_label
  _atom_site_symmetry_multiplicity
  _atom_site_fract_x
  _atom_site_fract_y
  _atom_site_fract_z
  _atom_site_occupancy
  Cu  Cu1       1.0  1.00000  1.00000  0.00000  1.0000
  H   H1        1.0  0.39214  0.94261  0.28706  1.0000
  H   H2        1.0  0.60786  0.05739  0.71294  1.0000
  H   H3        1.0  0.16545  0.97175  0.17933  1.0000
  H   H4        1.0  0.83455  0.02824  0.82067  1.0000
  H   H5        1.0  0.27805  0.18911  0.90738  1.0000
  H   H6        1.0  0.72194  0.81089  0.09262  1.0000
  H   H7        1.0  0.52921  0.29251  0.95115  1.0000
  H   H8        1.0  0.47079  0.70749  0.04885  1.0000
  H   H9        1.0  0.60229  0.22907  0.11698  1.0000
  H   H10       1.0  0.39772  0.77092  0.88302  1.0000
  H   H11       1.0  0.67202  0.20262  0.41255  1.0000
  H   H12       1.0  0.32799  0.79737  0.58745  1.0000
  H   H13       1.0  0.29022  0.90216  0.42096  1.0000
  H   H14       1.0  0.70979  0.09784  0.57905  1.0000
  H   H15       1.0  0.37434  0.43722  0.29347  1.0000
  H   H16       1.0  0.62566  0.56278  0.70653  1.0000
  H   H17       1.0  0.09957  0.76386  0.20403  1.0000
  H   H18       1.0  0.90043  0.23614  0.79597  1.0000
  H   H19       1.0  0.05852  0.69974  0.95035  1.0000
  H   H20       1.0  0.94148  0.30027  0.04965  1.0000
  H   H21       1.0  0.22842  0.46868  0.99869  1.0000
  H   H22       1.0  0.77158  0.53132  0.00131  1.0000
  H   H23       1.0  0.35574  0.39541  0.15433  1.0000
  H   H24       1.0  0.64426  0.60460  0.84567  1.0000
  H   H25       1.0  0.57245  0.74378  0.40451  1.0000
  H   H26       1.0  0.42756  0.25622  0.59548  1.0000
  H   H27       1.0  0.30595  0.35824  0.44200  1.0000
  H   H28       1.0  0.69406  0.64176  0.55800  1.0000
  H   H29       1.0  0.18460  0.46964  0.60857  1.0000
  H   H30       1.0  0.81539  0.53038  0.39143  1.0000
  H   H31       1.0  0.04330  0.64235  0.47343  1.0000
  H   H32       1.0  0.95669  0.35766  0.52656  1.0000
  H   H33       1.0  0.90535  0.86727  0.49007  1.0000
  H   H34       1.0  0.09464  0.13274  0.50993  1.0000
  H   H35       1.0  0.91182  0.92230  0.63903  1.0000
  H   H36       1.0  0.08818  0.07771  0.36097  1.0000
  H   H37       1.0  0.05529  0.75222  0.77119  1.0000
  H   H38       1.0  0.94471  0.24778  0.22881  1.0000
  C   C1        1.0  0.86237  0.96193  0.19424  1.0000
  C   C2        1.0  0.13764  0.03806  0.80576  1.0000
  C   C3        1.0  0.38792  0.09455  0.16034  1.0000
  C   C4        1.0  0.61208  0.90545  0.83966  1.0000
  C   C5        1.0  0.24932  0.04141  0.12982  1.0000
  C   C6        1.0  0.75069  0.95859  0.87018  1.0000
  C   C7        1.0  0.31274  0.16322  0.97854  1.0000
  C   C8        1.0  0.68725  0.83678  0.02146  1.0000
  C   C9        1.0  0.45240  0.22082  0.00395  1.0000
  C   C10       1.0  0.54760  0.77918  0.99605  1.0000
  C   C11       1.0  0.49254  0.18666  0.09583  1.0000
  C   C12       1.0  0.50747  0.81334  0.90417  1.0000
  C   C13       1.0  0.46385  0.13194  0.30563  1.0000
  C   C14       1.0  0.53616  0.86806  0.69437  1.0000
  C   C15       1.0  0.48043  0.06009  0.40564  1.0000
  C   C16       1.0  0.51958  0.93990  0.59435  1.0000
  C   C17       1.0  0.59719  0.11379  0.45154  1.0000
  C   C18       1.0  0.40282  0.88620  0.54845  1.0000
  C   C19       1.0  0.38260  0.94571  0.45490  1.0000
  C   C20       1.0  0.61742  0.05428  0.54510  1.0000
  C   C21       1.0  0.24250  0.57738  0.18934  1.0000
  C   C22       1.0  0.75750  0.42262  0.81066  1.0000
  C   C23       1.0  0.13617  0.69954  0.15892  1.0000
  C   C24       1.0  0.86383  0.30046  0.84108  1.0000
  C   C25       1.0  0.10909  0.66025  0.01878  1.0000
  C   C26       1.0  0.89091  0.33976  0.98122  1.0000
  C   C27       1.0  0.20519  0.53258  0.04547  1.0000
  C   C28       1.0  0.79481  0.46743  0.95453  1.0000
  C   C29       1.0  0.27485  0.49144  0.13140  1.0000
  C   C30       1.0  0.72515  0.50856  0.86860  1.0000
  C   C31       1.0  0.35356  0.62753  0.32389  1.0000
  C   C32       1.0  0.64644  0.37247  0.67611  1.0000
  C   C33       1.0  0.43137  0.55829  0.41366  1.0000
  C   C34       1.0  0.56863  0.44170  0.58634  1.0000
  C   C35       1.0  0.53897  0.63808  0.44745  1.0000
  C   C36       1.0  0.46103  0.36191  0.55255  1.0000
  C   C37       1.0  0.39306  0.41965  0.46668  1.0000
  C   C38       1.0  0.60693  0.58034  0.53332  1.0000
  C   C39       1.0  0.12459  0.60306  0.69553  1.0000
  C   C40       1.0  0.87540  0.39695  0.30447  1.0000
  C   C41       1.0  0.12278  0.56888  0.61323  1.0000
  C   C42       1.0  0.87721  0.43113  0.38677  1.0000
  C   C43       1.0  0.04361  0.66511  0.53902  1.0000
  C   C44       1.0  0.95638  0.33490  0.46097  1.0000
  C   C45       1.0  0.96608  0.79165  0.54841  1.0000
  C   C46       1.0  0.03391  0.20835  0.45159  1.0000
  C   C47       1.0  0.96794  0.82246  0.63193  1.0000
  C   C48       1.0  0.03205  0.17754  0.36807  1.0000
  C   C49       1.0  0.04806  0.72830  0.70644  1.0000
  C   C50       1.0  0.95193  0.27170  0.29356  1.0000
  S   S1        1.0  0.84447  0.89600  0.30413  1.0000
  S   S2        1.0  0.15554  0.10399  0.69588  1.0000
  N   N1        1.0  0.87705  0.01270  0.11329  1.0000
  N   N2        1.0  0.12295  0.98729  0.88672  1.0000
  N   N3        1.0  0.21293  0.07441  0.04114  1.0000
  N   N4        1.0  0.78706  0.92559  0.95886  1.0000
  N   N5        1.0  0.41480  0.04852  0.25524  1.0000
  N   N6        1.0  0.58521  0.95147  0.74476  1.0000
  N   N7        1.0  0.07454  0.74138  0.07465  1.0000
  N   N8        1.0  0.92546  0.25862  0.92535  1.0000
  N   N9        1.0  0.31574  0.53691  0.27538  1.0000
  N   N10       1.0  0.68426  0.46309  0.72462  1.0000
  N   N11       1.0  0.21500  0.50585  0.77254  1.0000
  N   N12       1.0  0.78499  0.49415  0.22746  1.0000
  O   O1        1.0  0.49285  0.26144  0.27222  1.0000
  O   O2        1.0  0.50715  0.73855  0.72778  1.0000
  O   O3        1.0  0.32283  0.75897  0.29729  1.0000
  O   O4        1.0  0.67716  0.24103  0.70272  1.0000
  O   O5        1.0  0.20758  0.53454  0.84645  1.0000
  O   O6        1.0  0.79242  0.46547  0.15355  1.0000
  O   O7        1.0  0.29504  0.40104  0.75969  1.0000
  O   O8        1.0  0.70496  0.59897  0.24031  1.0000
