data_image0
_chemical_formula_structural       Cu6H20C26I6N8
_chemical_formula_sum              "Cu6 H20 C26 I6 N8"
_cell_length_a       9.32588
_cell_length_b       9.50375
_cell_length_c       10.7181
_cell_angle_alpha    99.857
_cell_angle_beta     108.664
_cell_angle_gamma    97.3558

_space_group_name_H-M_alt    "P 1"
_space_group_IT_number       1

loop_
  _space_group_symop_operation_xyz
  'x, y, z'

loop_
  _atom_site_type_symbol
  _atom_site_label
  _atom_site_symmetry_multiplicity
  _atom_site_fract_x
  _atom_site_fract_y
  _atom_site_fract_z
  _atom_site_occupancy
  Cu  Cu1       1.0  0.71481  0.71038  0.75847  1.0000
  Cu  Cu2       1.0  0.28519  0.28962  0.24153  1.0000
  Cu  Cu3       1.0  0.49836  0.66083  0.53073  1.0000
  Cu  Cu4       1.0  0.50164  0.33917  0.46927  1.0000
  Cu  Cu5       1.0  0.40636  0.91927  0.53858  1.0000
  Cu  Cu6       1.0  0.59364  0.08073  0.46143  1.0000
  H   H1        1.0  0.29197  0.01934  0.93892  1.0000
  H   H2        1.0  0.70803  0.98066  0.06108  1.0000
  H   H3        1.0  0.26440  0.83877  0.10462  1.0000
  H   H4        1.0  0.73560  0.16122  0.89538  1.0000
  H   H5        1.0  0.11643  0.67083  0.19022  1.0000
  H   H6        1.0  0.88357  0.32917  0.80978  1.0000
  H   H7        1.0  0.95162  0.48904  0.25352  1.0000
  H   H8        1.0  0.04838  0.51096  0.74648  1.0000
  H   H9        1.0  0.67249  0.40098  0.10618  1.0000
  H   H10       1.0  0.32751  0.59902  0.89383  1.0000
  H   H11       1.0  0.57149  0.49868  0.89749  1.0000
  H   H12       1.0  0.42852  0.50133  0.10251  1.0000
  H   H13       1.0  0.24924  0.09572  0.76111  1.0000
  H   H14       1.0  0.75076  0.90428  0.23889  1.0000
  H   H15       1.0  0.17624  0.24195  0.58940  1.0000
  H   H16       1.0  0.82376  0.75805  0.41060  1.0000
  H   H17       1.0  0.89521  0.23338  0.46495  1.0000
  H   H18       1.0  0.10479  0.76662  0.53505  1.0000
  H   H19       1.0  0.76114  0.95052  0.68039  1.0000
  H   H20       1.0  0.23886  0.04948  0.31961  1.0000
  C   C1        1.0  0.19089  0.94578  0.93453  1.0000
  C   C2        1.0  0.80911  0.05422  0.06547  1.0000
  C   C3        1.0  0.17420  0.85462  0.01774  1.0000
  C   C4        1.0  0.82580  0.14537  0.98226  1.0000
  C   C5        1.0  0.01575  0.78901  0.96644  1.0000
  C   C6        1.0  0.98425  0.21099  0.03356  1.0000
  C   C7        1.0  0.92957  0.68158  0.01122  1.0000
  C   C8        1.0  0.07043  0.31841  0.98878  1.0000
  C   C9        1.0  0.99501  0.63116  0.12800  1.0000
  C   C10       1.0  0.00499  0.36883  0.87200  1.0000
  C   C11       1.0  0.90236  0.52994  0.16322  1.0000
  C   C12       1.0  0.09764  0.47007  0.83678  1.0000
  C   C13       1.0  0.74743  0.48102  0.08143  1.0000
  C   C14       1.0  0.25257  0.51898  0.91857  1.0000
  C   C15       1.0  0.69097  0.53466  0.96598  1.0000
  C   C16       1.0  0.30903  0.46534  0.03402  1.0000
  C   C17       1.0  0.01026  0.01387  0.73737  1.0000
  C   C18       1.0  0.98974  0.98613  0.26263  1.0000
  C   C19       1.0  0.12776  0.09560  0.70989  1.0000
  C   C20       1.0  0.87224  0.90440  0.29011  1.0000
  C   C21       1.0  0.08718  0.17657  0.61237  1.0000
  C   C22       1.0  0.91282  0.82343  0.38763  1.0000
  C   C23       1.0  0.93209  0.17204  0.54291  1.0000
  C   C24       1.0  0.06790  0.82796  0.45709  1.0000
  C   C25       1.0  0.85651  0.01413  0.66347  1.0000
  C   C26       1.0  0.14350  0.98587  0.33653  1.0000
  I   I1        1.0  0.46600  0.80782  0.75482  1.0000
  I   I2        1.0  0.53399  0.19217  0.24518  1.0000
  I   I3        1.0  0.49018  0.79822  0.33743  1.0000
  I   I4        1.0  0.50983  0.20179  0.66258  1.0000
  I   I5        1.0  0.24766  0.45433  0.44216  1.0000
  I   I6        1.0  0.75234  0.54567  0.55784  1.0000
  N   N1        1.0  0.04789  0.93392  0.83881  1.0000
  N   N2        1.0  0.95211  0.06608  0.16119  1.0000
  N   N3        1.0  0.93927  0.83866  0.85800  1.0000
  N   N4        1.0  0.06073  0.16134  0.14200  1.0000
  N   N5        1.0  0.77932  0.63231  0.93070  1.0000
  N   N6        1.0  0.22068  0.36769  0.06930  1.0000
  N   N7        1.0  0.81895  0.09107  0.56737  1.0000
  N   N8        1.0  0.18104  0.90893  0.43264  1.0000
