data_image0
_chemical_formula_structural       Cd2H32C24N4O18
_chemical_formula_sum              "Cd2 H32 C24 N4 O18"
_cell_length_a       5.00397
_cell_length_b       5.00402
_cell_length_c       30.9187
_cell_angle_alpha    88.2115
_cell_angle_beta     88.2107
_cell_angle_gamma    86.5572

_space_group_name_H-M_alt    "P 1"
_space_group_IT_number       1

loop_
  _space_group_symop_operation_xyz
  'x, y, z'

loop_
  _atom_site_type_symbol
  _atom_site_label
  _atom_site_symmetry_multiplicity
  _atom_site_fract_x
  _atom_site_fract_y
  _atom_site_fract_z
  _atom_site_occupancy
  Cd  Cd1       1.0  0.25493  0.74506  0.75000  1.0000
  Cd  Cd2       1.0  0.74506  0.25494  0.25000  1.0000
  H   H1        1.0  0.36070  0.38893  0.85868  1.0000
  H   H2        1.0  0.61104  0.63927  0.64132  1.0000
  H   H3        1.0  0.63928  0.61105  0.14132  1.0000
  H   H4        1.0  0.38897  0.36074  0.35868  1.0000
  H   H5        1.0  0.18587  0.12827  0.88487  1.0000
  H   H6        1.0  0.87170  0.81412  0.61514  1.0000
  H   H7        1.0  0.81413  0.87170  0.11514  1.0000
  H   H8        1.0  0.12830  0.18589  0.38486  1.0000
  H   H9        1.0  0.00077  0.34664  0.94078  1.0000
  H   H10       1.0  0.65336  0.99923  0.55922  1.0000
  H   H11       1.0  0.99924  0.65337  0.05922  1.0000
  H   H12       1.0  0.34663  0.00077  0.44078  1.0000
  H   H13       1.0  0.69008  0.63165  0.99947  1.0000
  H   H14       1.0  0.36835  0.30993  0.50053  1.0000
  H   H15       1.0  0.30994  0.36837  0.00053  1.0000
  H   H16       1.0  0.63163  0.69007  0.49947  1.0000
  H   H17       1.0  0.89218  0.58137  0.81820  1.0000
  H   H18       1.0  0.41862  0.10780  0.68181  1.0000
  H   H19       1.0  0.10781  0.41862  0.18180  1.0000
  H   H20       1.0  0.58137  0.89220  0.31819  1.0000
  H   H21       1.0  0.07648  0.29707  0.80527  1.0000
  H   H22       1.0  0.70292  0.92351  0.69473  1.0000
  H   H23       1.0  0.92352  0.70293  0.19473  1.0000
  H   H24       1.0  0.29707  0.07649  0.30527  1.0000
  H   H25       1.0  0.56750  0.26042  0.73338  1.0000
  H   H26       1.0  0.73957  0.43249  0.76662  1.0000
  H   H27       1.0  0.43249  0.73958  0.26662  1.0000
  H   H28       1.0  0.26042  0.56750  0.23338  1.0000
  H   H29       1.0  0.62136  0.35927  0.91508  1.0000
  H   H30       1.0  0.64072  0.37864  0.58493  1.0000
  H   H31       1.0  0.37865  0.64073  0.08492  1.0000
  H   H32       1.0  0.35928  0.62136  0.41507  1.0000
  C   C1        1.0  0.44021  0.99914  0.83286  1.0000
  C   C2        1.0  0.00085  0.55979  0.66714  1.0000
  C   C3        1.0  0.55980  0.00085  0.16714  1.0000
  C   C4        1.0  0.99914  0.44023  0.33286  1.0000
  C   C5        1.0  0.38277  0.18125  0.87130  1.0000
  C   C6        1.0  0.81872  0.61722  0.62870  1.0000
  C   C7        1.0  0.61723  0.81872  0.12870  1.0000
  C   C8        1.0  0.18128  0.38279  0.37130  1.0000
  C   C9        1.0  0.63299  0.95371  0.92995  1.0000
  C   C10       1.0  0.04628  0.36701  0.57005  1.0000
  C   C11       1.0  0.36703  0.04629  0.07005  1.0000
  C   C12       1.0  0.95371  0.63300  0.42995  1.0000
  C   C13       1.0  0.82250  0.98467  0.96577  1.0000
  C   C14       1.0  0.01533  0.17751  0.53423  1.0000
  C   C15       1.0  0.17751  0.01534  0.03423  1.0000
  C   C16       1.0  0.98466  0.82250  0.46577  1.0000
  C   C17       1.0  0.99782  0.19297  0.96653  1.0000
  C   C18       1.0  0.80702  0.00218  0.53347  1.0000
  C   C19       1.0  0.00219  0.80703  0.03347  1.0000
  C   C20       1.0  0.19297  0.99782  0.46653  1.0000
  C   C21       1.0  0.82680  0.79281  0.99974  1.0000
  C   C22       1.0  0.20719  0.17321  0.50026  1.0000
  C   C23       1.0  0.17322  0.20719  0.00027  1.0000
  C   C24       1.0  0.79281  0.82679  0.49973  1.0000
  N   N1        1.0  0.58029  0.17446  0.90437  1.0000
  N   N2        1.0  0.82552  0.41970  0.59563  1.0000
  N   N3        1.0  0.41971  0.82553  0.09563  1.0000
  N   N4        1.0  0.17448  0.58030  0.40437  1.0000
  O   O1        1.0  0.24416  0.01967  0.80579  1.0000
  O   O2        1.0  0.98033  0.75583  0.69421  1.0000
  O   O3        1.0  0.75585  0.98033  0.19421  1.0000
  O   O4        1.0  0.01967  0.24418  0.30579  1.0000
  O   O5        1.0  0.64630  0.85090  0.82871  1.0000
  O   O6        1.0  0.14909  0.35370  0.67129  1.0000
  O   O7        1.0  0.35371  0.14909  0.17129  1.0000
  O   O8        1.0  0.85091  0.64632  0.32871  1.0000
  O   O9        1.0  0.53090  0.73597  0.92431  1.0000
  O   O10       1.0  0.26400  0.46913  0.57569  1.0000
  O   O11       1.0  0.46913  0.26402  0.07569  1.0000
  O   O12       1.0  0.73598  0.53088  0.42431  1.0000
  O   O13       1.0  0.98997  0.47734  0.79550  1.0000
  O   O14       1.0  0.52265  0.01002  0.70450  1.0000
  O   O15       1.0  0.01003  0.52265  0.20450  1.0000
  O   O16       1.0  0.47734  0.98998  0.29550  1.0000
  O   O17       1.0  0.57201  0.42800  0.75000  1.0000
  O   O18       1.0  0.42799  0.57201  0.25000  1.0000
