data_image0
_chemical_formula_structural       Zn2H20C24N4O12
_chemical_formula_sum              "Zn2 H20 C24 N4 O12"
_cell_length_a       4.86254
_cell_length_b       4.86255
_cell_length_c       27.3068
_cell_angle_alpha    85.1153
_cell_angle_beta     85.1149
_cell_angle_gamma    90.2919

_space_group_name_H-M_alt    "P 1"
_space_group_IT_number       1

loop_
  _space_group_symop_operation_xyz
  'x, y, z'

loop_
  _atom_site_type_symbol
  _atom_site_label
  _atom_site_symmetry_multiplicity
  _atom_site_fract_x
  _atom_site_fract_y
  _atom_site_fract_z
  _atom_site_occupancy
  Zn  Zn1       1.0  0.83191  0.16808  0.25000  1.0000
  Zn  Zn2       1.0  0.16809  0.83191  0.75000  1.0000
  H   H1        1.0  0.69858  0.05399  0.14646  1.0000
  H   H2        1.0  0.94601  0.30142  0.35354  1.0000
  H   H3        1.0  0.30142  0.94601  0.85354  1.0000
  H   H4        1.0  0.05399  0.69858  0.64646  1.0000
  H   H5        1.0  0.57404  0.72914  0.17337  1.0000
  H   H6        1.0  0.27087  0.42597  0.32663  1.0000
  H   H7        1.0  0.42596  0.27087  0.82663  1.0000
  H   H8        1.0  0.72913  0.57403  0.67337  1.0000
  H   H9        1.0  0.33558  0.39014  0.99364  1.0000
  H   H10       1.0  0.60986  0.66442  0.50636  1.0000
  H   H11       1.0  0.66442  0.60986  0.00636  1.0000
  H   H12       1.0  0.39014  0.33558  0.49364  1.0000
  H   H13       1.0  0.92561  0.68865  0.07706  1.0000
  H   H14       1.0  0.31135  0.07439  0.42294  1.0000
  H   H15       1.0  0.07439  0.31134  0.92294  1.0000
  H   H16       1.0  0.68866  0.92562  0.57706  1.0000
  H   H17       1.0  0.33677  0.68789  0.10488  1.0000
  H   H18       1.0  0.31212  0.66323  0.39512  1.0000
  H   H19       1.0  0.66323  0.31212  0.89512  1.0000
  H   H20       1.0  0.68788  0.33677  0.60488  1.0000
  C   C1        1.0  0.33519  0.06765  0.19632  1.0000
  C   C2        1.0  0.93235  0.66481  0.30367  1.0000
  C   C3        1.0  0.66481  0.93235  0.80368  1.0000
  C   C4        1.0  0.06765  0.33519  0.69633  1.0000
  C   C5        1.0  0.50997  0.92962  0.15658  1.0000
  C   C6        1.0  0.07038  0.49003  0.34342  1.0000
  C   C7        1.0  0.49003  0.07038  0.84342  1.0000
  C   C8        1.0  0.92962  0.50997  0.65658  1.0000
  C   C9        1.0  0.31090  0.10370  0.08247  1.0000
  C   C10       1.0  0.89631  0.68910  0.41754  1.0000
  C   C11       1.0  0.68910  0.89631  0.91753  1.0000
  C   C12       1.0  0.10369  0.31090  0.58246  1.0000
  C   C13       1.0  0.15116  0.04527  0.04019  1.0000
  C   C14       1.0  0.95474  0.84884  0.45981  1.0000
  C   C15       1.0  0.84884  0.95473  0.95981  1.0000
  C   C16       1.0  0.04527  0.15116  0.54019  1.0000
  C   C17       1.0  0.18761  0.21995  0.99657  1.0000
  C   C18       1.0  0.78005  0.81239  0.50343  1.0000
  C   C19       1.0  0.81239  0.78005  0.00343  1.0000
  C   C20       1.0  0.21995  0.18761  0.49657  1.0000
  C   C21       1.0  0.96109  0.82507  0.04334  1.0000
  C   C22       1.0  0.17493  0.03891  0.45666  1.0000
  C   C23       1.0  0.03891  0.17493  0.95666  1.0000
  C   C24       1.0  0.82507  0.96109  0.54334  1.0000
  N   N1        1.0  0.36555  0.88620  0.11400  1.0000
  N   N2        1.0  0.11381  0.63445  0.38599  1.0000
  N   N3        1.0  0.63445  0.11380  0.88599  1.0000
  N   N4        1.0  0.88620  0.36555  0.61401  1.0000
  O   O1        1.0  0.44672  0.15406  0.23285  1.0000
  O   O2        1.0  0.84593  0.55327  0.26715  1.0000
  O   O3        1.0  0.55328  0.84593  0.76715  1.0000
  O   O4        1.0  0.15406  0.44672  0.73285  1.0000
  O   O5        1.0  0.07735  0.08577  0.19221  1.0000
  O   O6        1.0  0.91423  0.92264  0.30779  1.0000
  O   O7        1.0  0.92265  0.91423  0.80779  1.0000
  O   O8        1.0  0.08577  0.07735  0.69221  1.0000
  O   O9        1.0  0.38993  0.34315  0.08867  1.0000
  O   O10       1.0  0.65685  0.61006  0.41133  1.0000
  O   O11       1.0  0.61007  0.65685  0.91133  1.0000
  O   O12       1.0  0.34315  0.38994  0.58867  1.0000
