data_image0
_chemical_formula_structural       Cd2H40C34S4I4N8
_chemical_formula_sum              "Cd2 H40 C34 S4 I4 N8"
_cell_length_a       7.75927
_cell_length_b       11.304
_cell_length_c       14.7194
_cell_angle_alpha    117.81
_cell_angle_beta     90.0997
_cell_angle_gamma    93.2491

_space_group_name_H-M_alt    "P 1"
_space_group_IT_number       1

loop_
  _space_group_symop_operation_xyz
  'x, y, z'

loop_
  _atom_site_type_symbol
  _atom_site_label
  _atom_site_symmetry_multiplicity
  _atom_site_fract_x
  _atom_site_fract_y
  _atom_site_fract_z
  _atom_site_occupancy
  Cd  Cd1       1.0  0.73156  0.66687  0.83156  1.0000
  Cd  Cd2       1.0  0.26843  0.33313  0.16845  1.0000
  H   H1        1.0  0.28910  0.67198  0.87597  1.0000
  H   H2        1.0  0.71089  0.32801  0.12403  1.0000
  H   H3        1.0  0.11247  0.48237  0.91639  1.0000
  H   H4        1.0  0.88753  0.51762  0.08360  1.0000
  H   H5        1.0  0.32816  0.31404  0.89353  1.0000
  H   H6        1.0  0.67184  0.68594  0.10646  1.0000
  H   H7        1.0  0.64134  0.30679  0.65425  1.0000
  H   H8        1.0  0.35866  0.69321  0.34576  1.0000
  H   H9        1.0  0.78499  0.19395  0.65897  1.0000
  H   H10       1.0  0.21501  0.80606  0.34103  1.0000
  H   H11       1.0  0.34134  0.36830  0.69169  1.0000
  H   H12       1.0  0.65864  0.63170  0.30832  1.0000
  H   H13       1.0  0.18002  0.27650  0.59638  1.0000
  H   H14       1.0  0.81997  0.72349  0.40362  1.0000
  H   H15       1.0  0.39565  0.29043  0.56166  1.0000
  H   H16       1.0  0.60435  0.70958  0.43835  1.0000
  H   H17       1.0  0.09102  0.06772  0.57435  1.0000
  H   H18       1.0  0.90899  0.93228  0.42565  1.0000
  H   H19       1.0  0.98106  0.85641  0.53902  1.0000
  H   H20       1.0  0.01893  0.14359  0.46098  1.0000
  H   H21       1.0  0.06221  0.79877  0.62292  1.0000
  H   H22       1.0  0.93779  0.20124  0.37709  1.0000
  H   H23       1.0  0.12604  0.72684  0.49451  1.0000
  H   H24       1.0  0.87396  0.27316  0.50549  1.0000
  H   H25       1.0  0.81884  0.99913  0.63078  1.0000
  H   H26       1.0  0.18116  0.00087  0.36922  1.0000
  H   H27       1.0  0.73463  0.88463  0.67203  1.0000
  H   H28       1.0  0.26537  0.11537  0.32797  1.0000
  H   H29       1.0  0.75546  0.05779  0.75873  1.0000
  H   H30       1.0  0.24454  0.94222  0.24127  1.0000
  H   H31       1.0  0.56502  0.74002  0.60629  1.0000
  H   H32       1.0  0.43498  0.25998  0.39371  1.0000
  H   H33       1.0  0.35563  0.68626  0.54827  1.0000
  H   H34       1.0  0.64437  0.31374  0.45173  1.0000
  H   H35       1.0  0.81242  0.00486  0.97121  1.0000
  H   H36       1.0  0.18758  0.99514  0.02880  1.0000
  H   H37       1.0  0.59704  0.19302  0.96994  1.0000
  H   H38       1.0  0.40297  0.80698  0.03006  1.0000
  H   H39       1.0  0.34356  0.05313  0.85081  1.0000
  H   H40       1.0  0.65644  0.94687  0.14919  1.0000
  C   C1        1.0  0.33560  0.58378  0.87645  1.0000
  C   C2        1.0  0.66440  0.41621  0.12354  1.0000
  C   C3        1.0  0.24504  0.48994  0.89571  1.0000
  C   C4        1.0  0.75495  0.51004  0.10428  1.0000
  C   C5        1.0  0.51502  0.43076  0.85606  1.0000
  C   C6        1.0  0.48498  0.56923  0.14394  1.0000
  C   C7        1.0  0.65830  0.23464  0.68318  1.0000
  C   C8        1.0  0.34170  0.76536  0.31682  1.0000
  C   C9        1.0  0.51452  0.12744  0.65061  1.0000
  C   C10       1.0  0.48548  0.87255  0.34939  1.0000
  C   C11       1.0  0.35102  0.15072  0.62245  1.0000
  C   C12       1.0  0.64898  0.84928  0.37755  1.0000
  C   C13       1.0  0.31532  0.27765  0.61831  1.0000
  C   C14       1.0  0.68468  0.72235  0.38169  1.0000
  C   C15       1.0  0.21878  0.04957  0.59454  1.0000
  C   C16       1.0  0.78122  0.95043  0.40545  1.0000
  C   C17       1.0  0.24353  0.92628  0.59089  1.0000
  C   C18       1.0  0.75647  0.07372  0.40911  1.0000
  C   C19       1.0  0.09622  0.82238  0.56032  1.0000
  C   C20       1.0  0.90379  0.17763  0.43968  1.0000
  C   C21       1.0  0.40868  0.90154  0.61657  1.0000
  C   C22       1.0  0.59132  0.09846  0.38343  1.0000
  C   C23       1.0  0.54386  0.00306  0.64790  1.0000
  C   C24       1.0  0.45614  0.99694  0.35210  1.0000
  C   C25       1.0  0.72079  0.98403  0.67870  1.0000
  C   C26       1.0  0.27921  0.01597  0.32130  1.0000
  C   C27       1.0  0.43115  0.76812  0.61228  1.0000
  C   C28       1.0  0.56885  0.23188  0.38771  1.0000
  C   C29       1.0  0.47609  0.88034  0.82051  1.0000
  C   C30       1.0  0.52392  0.11967  0.17949  1.0000
  C   C31       1.0  0.69217  0.99050  0.92874  1.0000
  C   C32       1.0  0.30784  0.00951  0.07126  1.0000
  C   C33       1.0  0.58603  0.08470  0.92982  1.0000
  C   C34       1.0  0.41397  0.91531  0.07018  1.0000
  S   S1        1.0  0.69393  0.33542  0.82541  1.0000
  S   S2        1.0  0.30608  0.66457  0.17459  1.0000
  S   S3        1.0  0.34326  0.75580  0.72556  1.0000
  S   S4        1.0  0.65675  0.24421  0.27444  1.0000
  I   I1        1.0  0.91554  0.77216  0.02273  1.0000
  I   I2        1.0  0.08446  0.22784  0.97727  1.0000
  I   I3        1.0  0.86743  0.55516  0.64183  1.0000
  I   I4        1.0  0.13254  0.44484  0.35817  1.0000
  N   N1        1.0  0.50253  0.54728  0.85314  1.0000
  N   N2        1.0  0.49747  0.45271  0.14686  1.0000
  N   N3        1.0  0.35941  0.39582  0.88275  1.0000
  N   N4        1.0  0.64059  0.60417  0.11725  1.0000
  N   N5        1.0  0.62292  0.86483  0.86113  1.0000
  N   N6        1.0  0.37708  0.13518  0.13887  1.0000
  N   N7        1.0  0.45141  0.01386  0.86250  1.0000
  N   N8        1.0  0.54860  0.98614  0.13750  1.0000
