data_image0
_chemical_formula_structural       Zn4H32C48S8N8O16
_chemical_formula_sum              "Zn4 H32 C48 S8 N8 O16"
_cell_length_a       7.40409
_cell_length_b       12.8608
_cell_length_c       13.376
_cell_angle_alpha    90
_cell_angle_beta     96.2584
_cell_angle_gamma    90

_space_group_name_H-M_alt    "P 1"
_space_group_IT_number       1

loop_
  _space_group_symop_operation_xyz
  'x, y, z'

loop_
  _atom_site_type_symbol
  _atom_site_label
  _atom_site_symmetry_multiplicity
  _atom_site_fract_x
  _atom_site_fract_y
  _atom_site_fract_z
  _atom_site_occupancy
  Zn  Zn1       1.0  0.42579  0.91925  0.26556  1.0000
  Zn  Zn2       1.0  0.07421  0.41925  0.73444  1.0000
  Zn  Zn3       1.0  0.57421  0.08075  0.73444  1.0000
  Zn  Zn4       1.0  0.92580  0.58075  0.26556  1.0000
  H   H1        1.0  0.40821  0.34492  0.26249  1.0000
  H   H2        1.0  0.09179  0.84492  0.73751  1.0000
  H   H3        1.0  0.59179  0.65508  0.73751  1.0000
  H   H4        1.0  0.90821  0.15508  0.26249  1.0000
  H   H5        1.0  0.56377  0.43246  0.41906  1.0000
  H   H6        1.0  0.93623  0.93246  0.58094  1.0000
  H   H7        1.0  0.43623  0.56754  0.58094  1.0000
  H   H8        1.0  0.06377  0.06754  0.41906  1.0000
  H   H9        1.0  0.71569  0.31114  0.55523  1.0000
  H   H10       1.0  0.78431  0.81114  0.44477  1.0000
  H   H11       1.0  0.28431  0.68886  0.44477  1.0000
  H   H12       1.0  0.21569  0.18886  0.55523  1.0000
  H   H13       1.0  0.51195  0.49502  0.25705  1.0000
  H   H14       1.0  0.98805  0.99502  0.74295  1.0000
  H   H15       1.0  0.48805  0.50499  0.74295  1.0000
  H   H16       1.0  0.01195  0.00498  0.25705  1.0000
  H   H17       1.0  0.33803  0.40902  0.10549  1.0000
  H   H18       1.0  0.16196  0.90902  0.89451  1.0000
  H   H19       1.0  0.66197  0.59098  0.89451  1.0000
  H   H20       1.0  0.83803  0.09098  0.10549  1.0000
  H   H21       1.0  0.23562  0.52911  0.95758  1.0000
  H   H22       1.0  0.26437  0.02911  0.04242  1.0000
  H   H23       1.0  0.76438  0.47089  0.04242  1.0000
  H   H24       1.0  0.73562  0.97088  0.95758  1.0000
  H   H25       1.0  0.71020  0.13994  0.53145  1.0000
  H   H26       1.0  0.78980  0.63994  0.46855  1.0000
  H   H27       1.0  0.28979  0.86006  0.46855  1.0000
  H   H28       1.0  0.21020  0.36006  0.53145  1.0000
  H   H29       1.0  0.27370  0.69929  0.96926  1.0000
  H   H30       1.0  0.22630  0.19929  0.03075  1.0000
  H   H31       1.0  0.72630  0.30071  0.03074  1.0000
  H   H32       1.0  0.77370  0.80071  0.96926  1.0000
  C   C1        1.0  0.57773  0.12962  0.38467  1.0000
  C   C2        1.0  0.92227  0.62962  0.61533  1.0000
  C   C3        1.0  0.42227  0.87038  0.61533  1.0000
  C   C4        1.0  0.07773  0.37038  0.38467  1.0000
  C   C5        1.0  0.48364  0.19266  0.30819  1.0000
  C   C6        1.0  0.01636  0.69266  0.69181  1.0000
  C   C7        1.0  0.51636  0.80734  0.69181  1.0000
  C   C8        1.0  0.98364  0.30734  0.30819  1.0000
  C   C9        1.0  0.48048  0.29997  0.32297  1.0000
  C   C10       1.0  0.01952  0.79997  0.67704  1.0000
  C   C11       1.0  0.51952  0.70003  0.67703  1.0000
  C   C12       1.0  0.98048  0.20003  0.32297  1.0000
  C   C13       1.0  0.56398  0.34847  0.40930  1.0000
  C   C14       1.0  0.93602  0.84847  0.59070  1.0000
  C   C15       1.0  0.43602  0.65153  0.59070  1.0000
  C   C16       1.0  0.06398  0.15153  0.40930  1.0000
  C   C17       1.0  0.64645  0.28512  0.48363  1.0000
  C   C18       1.0  0.85355  0.78511  0.51637  1.0000
  C   C19       1.0  0.35355  0.71488  0.51637  1.0000
  C   C20       1.0  0.14645  0.21488  0.48363  1.0000
  C   C21       1.0  0.38352  0.15459  0.20992  1.0000
  C   C22       1.0  0.11648  0.65459  0.79008  1.0000
  C   C23       1.0  0.61648  0.84541  0.79008  1.0000
  C   C24       1.0  0.88352  0.34541  0.20992  1.0000
  C   C25       1.0  0.40502  0.71185  0.11810  1.0000
  C   C26       1.0  0.09498  0.21185  0.88190  1.0000
  C   C27       1.0  0.59498  0.28815  0.88190  1.0000
  C   C28       1.0  0.90502  0.78815  0.11810  1.0000
  C   C29       1.0  0.47691  0.64824  0.20006  1.0000
  C   C30       1.0  0.02309  0.14824  0.79994  1.0000
  C   C31       1.0  0.52309  0.35176  0.79994  1.0000
  C   C32       1.0  0.97691  0.85176  0.20006  1.0000
  C   C33       1.0  0.45195  0.54073  0.19383  1.0000
  C   C34       1.0  0.04805  0.04073  0.80617  1.0000
  C   C35       1.0  0.54805  0.45928  0.80617  1.0000
  C   C36       1.0  0.95195  0.95927  0.19382  1.0000
  C   C37       1.0  0.35941  0.49277  0.10997  1.0000
  C   C38       1.0  0.14059  0.99277  0.89003  1.0000
  C   C39       1.0  0.64059  0.50723  0.89004  1.0000
  C   C40       1.0  0.85941  0.00723  0.10996  1.0000
  C   C41       1.0  0.30185  0.55602  0.02966  1.0000
  C   C42       1.0  0.19815  0.05602  0.97033  1.0000
  C   C43       1.0  0.69815  0.44398  0.97034  1.0000
  C   C44       1.0  0.80185  0.94397  0.02966  1.0000
  C   C45       1.0  0.58403  0.68723  0.29394  1.0000
  C   C46       1.0  0.91597  0.18723  0.70606  1.0000
  C   C47       1.0  0.41597  0.31277  0.70606  1.0000
  C   C48       1.0  0.08403  0.81277  0.29394  1.0000
  S   S1        1.0  0.62858  0.99969  0.38543  1.0000
  S   S2        1.0  0.87142  0.49969  0.61457  1.0000
  S   S3        1.0  0.37142  0.00031  0.61457  1.0000
  S   S4        1.0  0.12858  0.50031  0.38543  1.0000
  S   S5        1.0  0.40719  0.84457  0.10627  1.0000
  S   S6        1.0  0.09281  0.34457  0.89373  1.0000
  S   S7        1.0  0.59280  0.15543  0.89373  1.0000
  S   S8        1.0  0.90719  0.65543  0.10627  1.0000
  N   N1        1.0  0.64851  0.18152  0.46992  1.0000
  N   N2        1.0  0.85149  0.68152  0.53008  1.0000
  N   N3        1.0  0.35149  0.81848  0.53008  1.0000
  N   N4        1.0  0.14851  0.31848  0.46992  1.0000
  N   N5        1.0  0.32821  0.65938  0.03491  1.0000
  N   N6        1.0  0.17179  0.15938  0.96509  1.0000
  N   N7        1.0  0.67179  0.34062  0.96509  1.0000
  N   N8        1.0  0.82821  0.84062  0.03491  1.0000
  O   O1        1.0  0.33843  0.05875  0.19943  1.0000
  O   O2        1.0  0.16157  0.55875  0.80057  1.0000
  O   O3        1.0  0.66157  0.94125  0.80057  1.0000
  O   O4        1.0  0.83843  0.44125  0.19943  1.0000
  O   O5        1.0  0.34331  0.22301  0.14360  1.0000
  O   O6        1.0  0.15669  0.72301  0.85640  1.0000
  O   O7        1.0  0.65669  0.77699  0.85640  1.0000
  O   O8        1.0  0.84332  0.27699  0.14360  1.0000
  O   O9        1.0  0.55907  0.77633  0.32896  1.0000
  O   O10       1.0  0.94094  0.27633  0.67104  1.0000
  O   O11       1.0  0.44092  0.22368  0.67104  1.0000
  O   O12       1.0  0.05907  0.72368  0.32896  1.0000
  O   O13       1.0  0.69991  0.62213  0.33878  1.0000
  O   O14       1.0  0.80009  0.12213  0.66122  1.0000
  O   O15       1.0  0.30009  0.37787  0.66122  1.0000
  O   O16       1.0  0.19991  0.87787  0.33878  1.0000
