data_image0
_chemical_formula_structural       Cu3H32C16S4Cl6O4
_chemical_formula_sum              "Cu3 H32 C16 S4 Cl6 O4"
_cell_length_a       7.9113
_cell_length_b       9.18893
_cell_length_c       11.0205
_cell_angle_alpha    69.1076
_cell_angle_beta     73.6659
_cell_angle_gamma    75.2595

_space_group_name_H-M_alt    "P 1"
_space_group_IT_number       1

loop_
  _space_group_symop_operation_xyz
  'x, y, z'

loop_
  _atom_site_type_symbol
  _atom_site_label
  _atom_site_symmetry_multiplicity
  _atom_site_fract_x
  _atom_site_fract_y
  _atom_site_fract_z
  _atom_site_occupancy
  Cu  Cu1       1.0  0.02076  0.39115  0.65733  1.0000
  Cu  Cu2       1.0  0.97923  0.60884  0.34268  1.0000
  Cu  Cu3       1.0  1.00000  0.50000  1.00000  1.0000
  H   H1        1.0  0.65042  0.21724  0.14439  1.0000
  H   H2        1.0  0.34958  0.78276  0.85561  1.0000
  H   H3        1.0  0.41999  0.30898  0.16546  1.0000
  H   H4        1.0  0.58002  0.69102  0.83453  1.0000
  H   H5        1.0  0.59764  0.08684  0.37838  1.0000
  H   H6        1.0  0.40235  0.91315  0.62162  1.0000
  H   H7        1.0  0.37611  0.19480  0.39609  1.0000
  H   H8        1.0  0.62388  0.80520  0.60391  1.0000
  H   H9        1.0  0.49033  0.29760  0.51745  1.0000
  H   H10       1.0  0.50967  0.70239  0.48255  1.0000
  H   H11       1.0  0.70909  0.28546  0.41629  1.0000
  H   H12       1.0  0.29091  0.71454  0.58371  1.0000
  H   H13       1.0  0.37785  0.52493  0.33338  1.0000
  H   H14       1.0  0.62215  0.47507  0.66662  1.0000
  H   H15       1.0  0.58440  0.57015  0.33744  1.0000
  H   H16       1.0  0.41560  0.42984  0.66256  1.0000
  H   H17       1.0  0.27627  0.01943  0.96877  1.0000
  H   H18       1.0  0.72375  0.98056  0.03124  1.0000
  H   H19       1.0  0.15623  0.88184  0.10515  1.0000
  H   H20       1.0  0.84379  0.11816  0.89485  1.0000
  H   H21       1.0  0.42613  0.05940  0.12351  1.0000
  H   H22       1.0  0.57387  0.94060  0.87650  1.0000
  H   H23       1.0  0.44872  0.85141  0.16765  1.0000
  H   H24       1.0  0.55129  0.14859  0.83236  1.0000
  H   H25       1.0  0.20541  0.83971  0.35840  1.0000
  H   H26       1.0  0.79458  0.16030  0.64159  1.0000
  H   H27       1.0  0.30331  0.99170  0.35992  1.0000
  H   H28       1.0  0.69668  0.00830  0.64009  1.0000
  H   H29       1.0  0.93928  0.01692  0.33706  1.0000
  H   H30       1.0  0.06071  0.98309  0.66293  1.0000
  H   H31       1.0  0.04094  0.18197  0.30993  1.0000
  H   H32       1.0  0.95906  0.81804  0.69006  1.0000
  C   C1        1.0  0.54299  0.28280  0.20253  1.0000
  C   C2        1.0  0.45701  0.71720  0.79747  1.0000
  C   C3        1.0  0.51721  0.20591  0.35436  1.0000
  C   C4        1.0  0.48278  0.79409  0.64563  1.0000
  C   C5        1.0  0.56617  0.31303  0.41488  1.0000
  C   C6        1.0  0.43383  0.68696  0.58512  1.0000
  C   C7        1.0  0.52213  0.48250  0.32700  1.0000
  C   C8        1.0  0.47786  0.51750  0.67300  1.0000
  C   C9        1.0  0.22278  0.98451  0.07618  1.0000
  C   C10       1.0  0.77724  0.01549  0.92382  1.0000
  C   C11       1.0  0.35113  0.96097  0.16428  1.0000
  C   C12       1.0  0.64887  0.03903  0.83573  1.0000
  C   C13       1.0  0.23451  0.95922  0.30219  1.0000
  C   C14       1.0  0.76548  0.04079  0.69781  1.0000
  C   C15       1.0  0.05711  0.07370  0.28433  1.0000
  C   C16       1.0  0.94289  0.92631  0.71567  1.0000
  S   S1        1.0  0.04927  0.14448  0.10847  1.0000
  S   S2        1.0  0.95074  0.85552  0.89152  1.0000
  S   S3        1.0  0.61414  0.47192  0.15953  1.0000
  S   S4        1.0  0.38586  0.52809  0.84046  1.0000
  Cl  Cl1       1.0  0.83489  0.40655  0.84828  1.0000
  Cl  Cl2       1.0  0.16510  0.59344  0.15172  1.0000
  Cl  Cl3       1.0  0.21647  0.17964  0.73020  1.0000
  Cl  Cl4       1.0  0.78354  0.82036  0.26980  1.0000
  Cl  Cl5       1.0  0.95911  0.65350  0.54143  1.0000
  Cl  Cl6       1.0  0.04089  0.34650  0.45857  1.0000
  O   O1        1.0  0.14935  0.28762  0.04840  1.0000
  O   O2        1.0  0.85066  0.71238  0.95159  1.0000
  O   O3        1.0  0.81686  0.42355  0.15984  1.0000
  O   O4        1.0  0.18314  0.57644  0.84016  1.0000
