data_image0
_chemical_formula_structural       Cu3H32C16S4Br6O4
_chemical_formula_sum              "Cu3 H32 C16 S4 Br6 O4"
_cell_length_a       8.24612
_cell_length_b       9.41203
_cell_length_c       11.5351
_cell_angle_alpha    115.057
_cell_angle_beta     95.3945
_cell_angle_gamma    107.005

_space_group_name_H-M_alt    "P 1"
_space_group_IT_number       1

loop_
  _space_group_symop_operation_xyz
  'x, y, z'

loop_
  _atom_site_type_symbol
  _atom_site_label
  _atom_site_symmetry_multiplicity
  _atom_site_fract_x
  _atom_site_fract_y
  _atom_site_fract_z
  _atom_site_occupancy
  Cu  Cu1       1.0  0.01533  0.94469  0.33639  1.0000
  Cu  Cu2       1.0  0.98465  0.05529  0.66360  1.0000
  Cu  Cu3       1.0  0.00001  0.49999  1.00000  1.0000
  H   H1        1.0  0.68439  0.62402  0.83376  1.0000
  H   H2        1.0  0.31560  0.37596  0.16625  1.0000
  H   H3        1.0  0.46060  0.53297  0.83173  1.0000
  H   H4        1.0  0.53939  0.46700  0.16827  1.0000
  H   H5        1.0  0.58098  0.51744  0.60135  1.0000
  H   H6        1.0  0.41899  0.48255  0.39866  1.0000
  H   H7        1.0  0.37345  0.38886  0.59922  1.0000
  H   H8        1.0  0.62653  0.61112  0.40079  1.0000
  H   H9        1.0  0.48288  0.18062  0.47419  1.0000
  H   H10       1.0  0.51711  0.81937  0.52580  1.0000
  H   H11       1.0  0.70083  0.29882  0.57437  1.0000
  H   H12       1.0  0.29915  0.70117  0.42562  1.0000
  H   H13       1.0  0.38515  0.13699  0.66015  1.0000
  H   H14       1.0  0.61487  0.86298  0.33985  1.0000
  H   H15       1.0  0.58505  0.09529  0.65760  1.0000
  H   H16       1.0  0.41497  0.90469  0.34238  1.0000
  H   H17       1.0  0.33631  0.96325  0.00102  1.0000
  H   H18       1.0  0.66368  0.03678  0.99899  1.0000
  H   H19       1.0  0.19462  0.03360  0.93109  1.0000
  H   H20       1.0  0.80535  0.96640  0.06891  1.0000
  H   H21       1.0  0.45122  0.92319  0.80770  1.0000
  H   H22       1.0  0.54878  0.07685  0.19232  1.0000
  H   H23       1.0  0.26326  0.93175  0.72719  1.0000
  H   H24       1.0  0.73674  0.06828  0.27283  1.0000
  H   H25       1.0  0.22996  0.63899  0.59982  1.0000
  H   H26       1.0  0.77006  0.36105  0.40019  1.0000
  H   H27       1.0  0.29760  0.62485  0.74384  1.0000
  H   H28       1.0  0.70242  0.37518  0.25615  1.0000
  H   H29       1.0  0.95748  0.67600  0.66958  1.0000
  H   H30       1.0  0.04252  0.32401  0.33042  1.0000
  H   H31       1.0  0.97327  0.50027  0.68969  1.0000
  H   H32       1.0  0.02675  0.49973  0.31029  1.0000
  C   C1        1.0  0.56671  0.50821  0.78563  1.0000
  C   C2        1.0  0.43329  0.49177  0.21438  1.0000
  C   C3        1.0  0.51550  0.42640  0.63375  1.0000
  C   C4        1.0  0.48447  0.57359  0.36625  1.0000
  C   C5        1.0  0.56216  0.26802  0.57603  1.0000
  C   C6        1.0  0.43785  0.73197  0.42397  1.0000
  C   C7        1.0  0.52567  0.18839  0.66613  1.0000
  C   C8        1.0  0.47433  0.81160  0.33386  1.0000
  C   C9        1.0  0.24218  0.93009  0.91149  1.0000
  C   C10       1.0  0.75781  0.06993  0.08852  1.0000
  C   C11       1.0  0.30744  0.87617  0.78479  1.0000
  C   C12       1.0  0.69256  0.12387  0.21522  1.0000
  C   C13       1.0  0.22707  0.68346  0.70402  1.0000
  C   C14       1.0  0.77295  0.31657  0.29598  1.0000
  C   C15       1.0  0.04014  0.63363  0.71803  1.0000
  C   C16       1.0  0.95987  0.36639  0.28197  1.0000
  S   S1        1.0  0.05856  0.75097  0.89382  1.0000
  S   S2        1.0  0.94144  0.24902  0.10617  1.0000
  S   S3        1.0  0.62522  0.36318  0.83215  1.0000
  S   S4        1.0  0.37479  0.63680  0.16784  1.0000
  Br  Br1       1.0  0.80716  0.72086  0.13985  1.0000
  Br  Br2       1.0  0.19283  0.27913  0.86014  1.0000
  Br  Br3       1.0  0.21265  0.08413  0.24996  1.0000
  Br  Br4       1.0  0.78733  0.91587  0.75006  1.0000
  Br  Br5       1.0  0.99072  0.80495  0.47263  1.0000
  Br  Br6       1.0  0.00927  0.19504  0.52737  1.0000
  O   O1        1.0  0.15035  0.66928  0.95719  1.0000
  O   O2        1.0  0.84968  0.33072  0.04280  1.0000
  O   O3        1.0  0.82302  0.40851  0.83435  1.0000
  O   O4        1.0  0.17699  0.59149  0.16565  1.0000
