data_image0
_chemical_formula_structural       Na2B2H16C8O8
_chemical_formula_sum              "Na2 B2 H16 C8 O8"
_cell_length_a       5.72743
_cell_length_b       7.94395
_cell_length_c       8.28433
_cell_angle_alpha    61.3337
_cell_angle_beta     82.9038
_cell_angle_gamma    75.0776

_space_group_name_H-M_alt    "P 1"
_space_group_IT_number       1

loop_
  _space_group_symop_operation_xyz
  'x, y, z'

loop_
  _atom_site_type_symbol
  _atom_site_label
  _atom_site_symmetry_multiplicity
  _atom_site_fract_x
  _atom_site_fract_y
  _atom_site_fract_z
  _atom_site_occupancy
  Na  Na1       1.0  0.75040  0.08131  0.83750  1.0000
  Na  Na2       1.0  0.24960  0.91869  0.16250  1.0000
  B   B1        1.0  0.74953  0.87955  0.24093  1.0000
  B   B2        1.0  0.25047  0.12045  0.75906  1.0000
  H   H1        1.0  0.05719  0.50438  0.19074  1.0000
  H   H2        1.0  0.55819  0.69523  0.80889  1.0000
  H   H3        1.0  0.94281  0.49562  0.80926  1.0000
  H   H4        1.0  0.44181  0.30477  0.19111  1.0000
  H   H5        1.0  0.78445  0.62336  0.05855  1.0000
  H   H6        1.0  0.28565  0.68158  0.94131  1.0000
  H   H7        1.0  0.21555  0.37664  0.94145  1.0000
  H   H8        1.0  0.71436  0.31842  0.05869  1.0000
  H   H9        1.0  0.60475  0.46327  0.35944  1.0000
  H   H10       1.0  0.10537  0.82280  0.64065  1.0000
  H   H11       1.0  0.39525  0.53673  0.64056  1.0000
  H   H12       1.0  0.89462  0.17720  0.35936  1.0000
  H   H13       1.0  0.85113  0.46067  0.47169  1.0000
  H   H14       1.0  0.35168  0.93242  0.52817  1.0000
  H   H15       1.0  0.14887  0.53933  0.52831  1.0000
  H   H16       1.0  0.64832  0.06757  0.47183  1.0000
  C   C1        1.0  0.88214  0.61004  0.17229  1.0000
  C   C2        1.0  0.38314  0.78233  0.82754  1.0000
  C   C3        1.0  0.11786  0.38996  0.82771  1.0000
  C   C4        1.0  0.61686  0.21767  0.17246  1.0000
  C   C5        1.0  0.73254  0.54963  0.34989  1.0000
  C   C6        1.0  0.23333  0.89956  0.65002  1.0000
  C   C7        1.0  0.26746  0.45037  0.65011  1.0000
  C   C8        1.0  0.76667  0.10044  0.34998  1.0000
  O   O1        1.0  0.91996  0.79848  0.12968  1.0000
  O   O2        1.0  0.42079  0.92802  0.87030  1.0000
  O   O3        1.0  0.08004  0.20152  0.87032  1.0000
  O   O4        1.0  0.57921  0.07199  0.12970  1.0000
  O   O5        1.0  0.60340  0.73194  0.34429  1.0000
  O   O6        1.0  0.10439  0.07636  0.65560  1.0000
  O   O7        1.0  0.39660  0.26806  0.65571  1.0000
  O   O8        1.0  0.89560  0.92364  0.34440  1.0000
