data_image0
_chemical_formula_structural       Cu2H28C38S2N4O12
_chemical_formula_sum              "Cu2 H28 C38 S2 N4 O12"
_cell_length_a       9.58693
_cell_length_b       9.91217
_cell_length_c       10.7731
_cell_angle_alpha    66.4659
_cell_angle_beta     77.3764
_cell_angle_gamma    63.5285

_space_group_name_H-M_alt    "P 1"
_space_group_IT_number       1

loop_
  _space_group_symop_operation_xyz
  'x, y, z'

loop_
  _atom_site_type_symbol
  _atom_site_label
  _atom_site_symmetry_multiplicity
  _atom_site_fract_x
  _atom_site_fract_y
  _atom_site_fract_z
  _atom_site_occupancy
  Cu  Cu1       1.0  0.19857  0.38530  0.28462  1.0000
  Cu  Cu2       1.0  0.80143  0.61470  0.71538  1.0000
  H   H1        1.0  0.30786  0.80294  0.12487  1.0000
  H   H2        1.0  0.69214  0.19706  0.87513  1.0000
  H   H3        1.0  0.42290  0.99854  0.07520  1.0000
  H   H4        1.0  0.57710  0.00146  0.92480  1.0000
  H   H5        1.0  0.47970  0.85250  0.50266  1.0000
  H   H6        1.0  0.52030  0.14750  0.49734  1.0000
  H   H7        1.0  0.35972  0.66015  0.55136  1.0000
  H   H8        1.0  0.64028  0.33986  0.44864  1.0000
  H   H9        1.0  0.35321  0.58498  0.03881  1.0000
  H   H10       1.0  0.64679  0.41502  0.96119  1.0000
  H   H11       1.0  0.41684  0.60196  0.79651  1.0000
  H   H12       1.0  0.58316  0.39804  0.20349  1.0000
  H   H13       1.0  0.31981  0.46046  0.70663  1.0000
  H   H14       1.0  0.68019  0.53954  0.29337  1.0000
  H   H15       1.0  0.16472  0.28940  0.75597  1.0000
  H   H16       1.0  0.83528  0.71060  0.24403  1.0000
  H   H17       1.0  0.00717  0.14884  0.91815  1.0000
  H   H18       1.0  0.99283  0.85116  0.08185  1.0000
  H   H19       1.0  0.88831  0.05979  0.16431  1.0000
  H   H20       1.0  0.11169  0.94022  0.83569  1.0000
  H   H21       1.0  0.85848  0.06156  0.39645  1.0000
  H   H22       1.0  0.14152  0.93844  0.60355  1.0000
  H   H23       1.0  0.98853  0.20134  0.45407  1.0000
  H   H24       1.0  0.01147  0.79866  0.54594  1.0000
  H   H25       1.0  0.22391  0.21007  0.53817  1.0000
  H   H26       1.0  0.77609  0.78993  0.46183  1.0000
  H   H27       1.0  0.17901  0.39936  0.50391  1.0000
  H   H28       1.0  0.82099  0.60065  0.49609  1.0000
  C   C1        1.0  0.26364  0.59279  0.37589  1.0000
  C   C2        1.0  0.73636  0.40722  0.62411  1.0000
  C   C3        1.0  0.32577  0.71836  0.34212  1.0000
  C   C4        1.0  0.67423  0.28164  0.65788  1.0000
  C   C5        1.0  0.34294  0.81481  0.20813  1.0000
  C   C6        1.0  0.65706  0.18519  0.79187  1.0000
  C   C7        1.0  0.40928  0.92451  0.17954  1.0000
  C   C8        1.0  0.59072  0.07549  0.82046  1.0000
  C   C9        1.0  0.46040  0.93621  0.28511  1.0000
  C   C10       1.0  0.53960  0.06379  0.71489  1.0000
  C   C11       1.0  0.44073  0.84319  0.41982  1.0000
  C   C12       1.0  0.55927  0.15681  0.58018  1.0000
  C   C13       1.0  0.37329  0.73531  0.44739  1.0000
  C   C14       1.0  0.62671  0.26470  0.55261  1.0000
  C   C15       1.0  0.31756  0.52154  0.99784  1.0000
  C   C16       1.0  0.68244  0.47846  0.00216  1.0000
  C   C17       1.0  0.35105  0.53113  0.86144  1.0000
  C   C18       1.0  0.64895  0.46887  0.13856  1.0000
  C   C19       1.0  0.29890  0.45290  0.81250  1.0000
  C   C20       1.0  0.70110  0.54710  0.18751  1.0000
  C   C21       1.0  0.21225  0.36472  0.90072  1.0000
  C   C22       1.0  0.78775  0.63528  0.09928  1.0000
  C   C23       1.0  0.14624  0.28473  0.86074  1.0000
  C   C24       1.0  0.85376  0.71526  0.13926  1.0000
  C   C25       1.0  0.06042  0.20466  0.95153  1.0000
  C   C26       1.0  0.93958  0.79534  0.04847  1.0000
  C   C27       1.0  0.03582  0.19480  0.09033  1.0000
  C   C28       1.0  0.96419  0.80520  0.90967  1.0000
  C   C29       1.0  0.94754  0.11639  0.18979  1.0000
  C   C30       1.0  0.05246  0.88361  0.81021  1.0000
  C   C31       1.0  0.93075  0.11686  0.32050  1.0000
  C   C32       1.0  0.06925  0.88314  0.67950  1.0000
  C   C33       1.0  0.00187  0.19451  0.35346  1.0000
  C   C34       1.0  0.99813  0.80550  0.64654  1.0000
  C   C35       1.0  0.18733  0.35879  0.03680  1.0000
  C   C36       1.0  0.81267  0.64121  0.96320  1.0000
  C   C37       1.0  0.10187  0.27123  0.13215  1.0000
  C   C38       1.0  0.89813  0.72877  0.86785  1.0000
  S   S1        1.0  0.55737  0.06578  0.25228  1.0000
  S   S2        1.0  0.44263  0.93422  0.74772  1.0000
  N   N1        1.0  0.23888  0.43662  0.08309  1.0000
  N   N2        1.0  0.76112  0.56338  0.91691  1.0000
  N   N3        1.0  0.08574  0.26906  0.26124  1.0000
  N   N4        1.0  0.91426  0.73094  0.73877  1.0000
  O   O1        1.0  0.25174  0.56017  0.27492  1.0000
  O   O2        1.0  0.74826  0.43983  0.72508  1.0000
  O   O3        1.0  0.22990  0.52584  0.49878  1.0000
  O   O4        1.0  0.77010  0.47416  0.50122  1.0000
  O   O5        1.0  0.70156  0.96337  0.32799  1.0000
  O   O6        1.0  0.29844  0.03663  0.67201  1.0000
  O   O7        1.0  0.58657  0.12832  0.10595  1.0000
  O   O8        1.0  0.41343  0.87168  0.89404  1.0000
  O   O9        1.0  0.45172  0.19165  0.31016  1.0000
  O   O10       1.0  0.54828  0.80835  0.68984  1.0000
  O   O11       1.0  0.15316  0.31983  0.48344  1.0000
  O   O12       1.0  0.84683  0.68017  0.51656  1.0000
