data_image0
_chemical_formula_structural       Ag2H6C10S2O6
_chemical_formula_sum              "Ag2 H6 C10 S2 O6"
_cell_length_a       5.14861
_cell_length_b       7.51584
_cell_length_c       7.65557
_cell_angle_alpha    96.19
_cell_angle_beta     106.019
_cell_angle_gamma    93.0739

_space_group_name_H-M_alt    "P 1"
_space_group_IT_number       1

loop_
  _space_group_symop_operation_xyz
  'x, y, z'

loop_
  _atom_site_type_symbol
  _atom_site_label
  _atom_site_symmetry_multiplicity
  _atom_site_fract_x
  _atom_site_fract_y
  _atom_site_fract_z
  _atom_site_occupancy
  Ag  Ag1       1.0  0.28283  0.24020  0.59671  1.0000
  Ag  Ag2       1.0  0.71716  0.75980  0.40329  1.0000
  H   H1        1.0  0.17390  0.07121  0.02751  1.0000
  H   H2        1.0  0.82610  0.92879  0.97249  1.0000
  H   H3        1.0  0.96609  0.48414  0.28956  1.0000
  H   H4        1.0  0.03391  0.51586  0.71044  1.0000
  H   H5        1.0  0.88402  0.21372  0.77078  1.0000
  H   H6        1.0  0.11598  0.78628  0.22922  1.0000
  C   C1        1.0  0.24120  0.20075  0.99750  1.0000
  C   C2        1.0  0.75881  0.79925  0.00250  1.0000
  C   C3        1.0  0.47824  0.29020  0.11006  1.0000
  C   C4        1.0  0.52176  0.70980  0.88994  1.0000
  C   C5        1.0  0.57885  0.46050  0.07668  1.0000
  C   C6        1.0  0.42115  0.53949  0.92332  1.0000
  C   C7        1.0  0.82957  0.55313  0.18864  1.0000
  C   C8        1.0  0.17043  0.44687  0.81136  1.0000
  C   C9        1.0  0.08331  0.27870  0.84746  1.0000
  C   C10       1.0  0.91669  0.72130  0.15254  1.0000
  S   S1        1.0  0.64353  0.19178  0.30944  1.0000
  S   S2        1.0  0.35648  0.80822  0.69056  1.0000
  O   O1        1.0  0.62729  0.32042  0.46644  1.0000
  O   O2        1.0  0.37271  0.67958  0.53356  1.0000
  O   O3        1.0  0.92662  0.17446  0.30743  1.0000
  O   O4        1.0  0.07338  0.82554  0.69256  1.0000
  O   O5        1.0  0.48766  0.01858  0.29508  1.0000
  O   O6        1.0  0.51234  0.98142  0.70492  1.0000
