data_image0
_chemical_formula_structural       Zn4H20C24S4N4O14
_chemical_formula_sum              "Zn4 H20 C24 S4 N4 O14"
_cell_length_a       7.96905
_cell_length_b       9.35097
_cell_length_c       10.1964
_cell_angle_alpha    81.6006
_cell_angle_beta     80.8646
_cell_angle_gamma    76.2023

_space_group_name_H-M_alt    "P 1"
_space_group_IT_number       1

loop_
  _space_group_symop_operation_xyz
  'x, y, z'

loop_
  _atom_site_type_symbol
  _atom_site_label
  _atom_site_symmetry_multiplicity
  _atom_site_fract_x
  _atom_site_fract_y
  _atom_site_fract_z
  _atom_site_occupancy
  Zn  Zn1       1.0  0.73885  0.50385  0.44187  1.0000
  Zn  Zn2       1.0  0.26116  0.49615  0.55813  1.0000
  Zn  Zn3       1.0  0.82527  0.17730  0.66501  1.0000
  Zn  Zn4       1.0  0.17472  0.82270  0.33499  1.0000
  H   H1        1.0  0.08493  0.85903  0.67264  1.0000
  H   H2        1.0  0.91507  0.14097  0.32736  1.0000
  H   H3        1.0  0.15727  0.64758  0.84420  1.0000
  H   H4        1.0  0.84273  0.35242  0.15580  1.0000
  H   H5        1.0  0.99301  0.65831  0.07872  1.0000
  H   H6        1.0  0.00700  0.34170  0.92128  1.0000
  H   H7        1.0  0.76086  0.80112  0.23709  1.0000
  H   H8        1.0  0.23914  0.19888  0.76292  1.0000
  H   H9        1.0  0.52633  0.02358  0.27525  1.0000
  H   H10       1.0  0.47367  0.97642  0.72475  1.0000
  H   H11       1.0  0.35828  0.27346  0.18588  1.0000
  H   H12       1.0  0.64172  0.72655  0.81412  1.0000
  H   H13       1.0  0.31172  0.46974  0.99131  1.0000
  H   H14       1.0  0.68828  0.53026  0.00869  1.0000
  H   H15       1.0  0.50591  0.43597  0.77371  1.0000
  H   H16       1.0  0.49409  0.56403  0.22629  1.0000
  H   H17       1.0  0.16032  0.04625  0.53449  1.0000
  H   H18       1.0  0.83968  0.95375  0.46551  1.0000
  H   H19       1.0  0.10763  0.22153  0.49370  1.0000
  H   H20       1.0  0.89237  0.77847  0.50630  1.0000
  C   C1        1.0  0.01702  0.86317  0.77382  1.0000
  C   C2        1.0  0.98298  0.13683  0.22618  1.0000
  C   C3        1.0  0.05724  0.74323  0.87256  1.0000
  C   C4        1.0  0.94276  0.25677  0.12744  1.0000
  C   C5        1.0  0.96778  0.74977  0.99983  1.0000
  C   C6        1.0  0.03222  0.25023  0.00017  1.0000
  C   C7        1.0  0.83760  0.87705  0.02894  1.0000
  C   C8        1.0  0.16240  0.12295  0.97106  1.0000
  C   C9        1.0  0.80678  0.99286  0.92351  1.0000
  C   C10       1.0  0.19322  0.00714  0.07649  1.0000
  C   C11       1.0  0.67407  0.12380  0.94662  1.0000
  C   C12       1.0  0.32593  0.87620  0.05338  1.0000
  C   C13       1.0  0.73510  0.89112  0.15709  1.0000
  C   C14       1.0  0.26490  0.10888  0.84292  1.0000
  C   C15       1.0  0.60633  0.01441  0.17826  1.0000
  C   C16       1.0  0.39367  0.98559  0.82174  1.0000
  C   C17       1.0  0.57270  0.13373  0.07393  1.0000
  C   C18       1.0  0.42730  0.86627  0.92607  1.0000
  C   C19       1.0  0.43992  0.26231  0.08959  1.0000
  C   C20       1.0  0.56008  0.73769  0.91041  1.0000
  C   C21       1.0  0.41455  0.37026  0.98202  1.0000
  C   C22       1.0  0.58545  0.62974  0.01798  1.0000
  C   C23       1.0  0.52275  0.35220  0.85984  1.0000
  C   C24       1.0  0.47725  0.64779  0.14016  1.0000
  S   S1        1.0  0.55792  0.23553  0.45663  1.0000
  S   S2        1.0  0.44208  0.76447  0.54337  1.0000
  S   S3        1.0  0.87727  0.50203  0.70710  1.0000
  S   S4        1.0  0.12273  0.49797  0.29290  1.0000
  N   N1        1.0  0.89606  0.98480  0.79868  1.0000
  N   N2        1.0  0.10393  0.01520  0.20132  1.0000
  N   N3        1.0  0.64981  0.23212  0.84316  1.0000
  N   N4        1.0  0.35018  0.76788  0.15684  1.0000
  O   O1        1.0  0.64687  0.35310  0.36919  1.0000
  O   O2        1.0  0.35313  0.64690  0.63081  1.0000
  O   O3        1.0  0.70540  0.12327  0.52694  1.0000
  O   O4        1.0  0.29460  0.87673  0.47306  1.0000
  O   O5        1.0  0.44743  0.31533  0.57458  1.0000
  O   O6        1.0  0.55257  0.68467  0.42542  1.0000
  O   O7        1.0  0.82622  0.40060  0.61034  1.0000
  O   O8        1.0  0.17378  0.59940  0.38966  1.0000
  O   O9        1.0  0.07636  0.45069  0.70089  1.0000
  O   O10       1.0  0.92364  0.54931  0.29911  1.0000
  O   O11       1.0  0.83142  0.65443  0.63339  1.0000
  O   O12       1.0  0.16858  0.34556  0.36661  1.0000
  O   O13       1.0  0.08165  0.13922  0.56167  1.0000
  O   O14       1.0  0.91835  0.86078  0.43833  1.0000
