data_image0
_chemical_formula_structural       Na2H16C10O10
_chemical_formula_sum              "Na2 H16 C10 O10"
_cell_length_a       4.92082
_cell_length_b       5.8186
_cell_length_c       11.8945
_cell_angle_alpha    87.0193
_cell_angle_beta     86.2967
_cell_angle_gamma    80.0416

_space_group_name_H-M_alt    "P 1"
_space_group_IT_number       1

loop_
  _space_group_symop_operation_xyz
  'x, y, z'

loop_
  _atom_site_type_symbol
  _atom_site_label
  _atom_site_symmetry_multiplicity
  _atom_site_fract_x
  _atom_site_fract_y
  _atom_site_fract_z
  _atom_site_occupancy
  Na  Na1       1.0  0.46632  0.61448  0.35489  1.0000
  Na  Na2       1.0  0.53369  0.38552  0.64512  1.0000
  H   H1        1.0  0.93050  0.91290  0.33589  1.0000
  H   H2        1.0  0.06951  0.08710  0.66411  1.0000
  H   H3        1.0  0.90432  0.78431  0.45093  1.0000
  H   H4        1.0  0.09568  0.21568  0.54907  1.0000
  H   H5        1.0  0.26570  0.84623  0.55531  1.0000
  H   H6        1.0  0.73431  0.15376  0.44470  1.0000
  H   H7        1.0  0.05922  0.67949  0.59466  1.0000
  H   H8        1.0  0.94078  0.32051  0.40535  1.0000
  H   H9        1.0  0.65566  0.02871  0.15444  1.0000
  H   H10       1.0  0.34433  0.97132  0.84556  1.0000
  H   H11       1.0  0.38689  0.21294  0.08251  1.0000
  H   H12       1.0  0.61309  0.78707  0.91749  1.0000
  H   H13       1.0  0.74750  0.17646  0.96815  1.0000
  H   H14       1.0  0.25250  0.82352  0.03185  1.0000
  H   H15       1.0  0.93545  0.70308  0.17985  1.0000
  H   H16       1.0  0.06455  0.29691  0.82014  1.0000
  C   C1        1.0  0.29000  0.16019  0.25686  1.0000
  C   C2        1.0  0.71000  0.83982  0.74314  1.0000
  C   C3        1.0  0.50105  0.18911  0.16031  1.0000
  C   C4        1.0  0.49894  0.81090  0.83969  1.0000
  C   C5        1.0  0.81308  0.43537  0.08540  1.0000
  C   C6        1.0  0.18691  0.56462  0.91459  1.0000
  C   C7        1.0  0.85655  0.31754  0.98427  1.0000
  C   C8        1.0  0.14347  0.68246  0.01572  1.0000
  C   C9        1.0  0.95865  0.61662  0.10013  1.0000
  C   C10       1.0  0.04135  0.38339  0.89988  1.0000
  O   O1        1.0  0.21268  0.32564  0.32287  1.0000
  O   O2        1.0  0.78732  0.67437  0.67713  1.0000
  O   O3        1.0  0.20275  0.96632  0.25935  1.0000
  O   O4        1.0  0.79726  0.03369  0.74065  1.0000
  O   O5        1.0  0.63365  0.38517  0.17366  1.0000
  O   O6        1.0  0.36632  0.61484  0.82633  1.0000
  O   O7        1.0  0.78571  0.86209  0.39137  1.0000
  O   O8        1.0  0.21430  0.13789  0.60863  1.0000
  O   O9        1.0  0.22145  0.69129  0.53887  1.0000
  O   O10       1.0  0.77855  0.30870  0.46113  1.0000
