data_image0
_chemical_formula_structural       Cd2H36C56N8O8
_chemical_formula_sum              "Cd2 H36 C56 N8 O8"
_cell_length_a       12.2111
_cell_length_b       12.2134
_cell_length_c       13.675
_cell_angle_alpha    67.7831
_cell_angle_beta     67.7787
_cell_angle_gamma    83.3381

_space_group_name_H-M_alt    "P 1"
_space_group_IT_number       1

loop_
  _space_group_symop_operation_xyz
  'x, y, z'

loop_
  _atom_site_type_symbol
  _atom_site_label
  _atom_site_symmetry_multiplicity
  _atom_site_fract_x
  _atom_site_fract_y
  _atom_site_fract_z
  _atom_site_occupancy
  Cd  Cd1       1.0  0.65344  0.34652  0.25001  1.0000
  Cd  Cd2       1.0  0.34656  0.65348  0.74999  1.0000
  H   H1        1.0  0.68916  0.59580  0.28444  1.0000
  H   H2        1.0  0.40422  0.31089  0.21553  1.0000
  H   H3        1.0  0.31083  0.40420  0.71556  1.0000
  H   H4        1.0  0.59578  0.68911  0.78447  1.0000
  H   H5        1.0  0.36432  0.29128  0.45692  1.0000
  H   H6        1.0  0.70878  0.63570  0.04307  1.0000
  H   H7        1.0  0.63568  0.70872  0.54308  1.0000
  H   H8        1.0  0.29122  0.36430  0.95693  1.0000
  H   H9        1.0  0.15342  0.34627  0.53983  1.0000
  H   H10       1.0  0.65376  0.84656  0.96018  1.0000
  H   H11       1.0  0.84658  0.65373  0.46017  1.0000
  H   H12       1.0  0.34624  0.15344  0.03982  1.0000
  H   H13       1.0  0.10511  0.55051  0.53309  1.0000
  H   H14       1.0  0.44947  0.89483  0.96694  1.0000
  H   H15       1.0  0.89488  0.44948  0.46691  1.0000
  H   H16       1.0  0.55053  0.10517  0.03306  1.0000
  H   H17       1.0  0.26164  0.70712  0.44744  1.0000
  H   H18       1.0  0.29286  0.73833  0.05258  1.0000
  H   H19       1.0  0.73836  0.29288  0.55256  1.0000
  H   H20       1.0  0.70714  0.26167  0.94742  1.0000
  H   H21       1.0  0.39635  0.76809  0.48839  1.0000
  H   H22       1.0  0.23192  0.60364  0.01162  1.0000
  H   H23       1.0  0.60365  0.23191  0.51161  1.0000
  H   H24       1.0  0.76808  0.39636  0.98837  1.0000
  H   H25       1.0  0.43753  0.97858  0.44818  1.0000
  H   H26       1.0  0.02139  0.56245  0.05184  1.0000
  H   H27       1.0  0.56247  0.02142  0.55182  1.0000
  H   H28       1.0  0.97861  0.43755  0.94816  1.0000
  H   H29       1.0  0.71657  0.00284  0.13332  1.0000
  H   H30       1.0  0.99714  0.28343  0.36666  1.0000
  H   H31       1.0  0.28342  0.99716  0.86668  1.0000
  H   H32       1.0  0.00286  0.71657  0.63334  1.0000
  H   H33       1.0  0.67092  0.79342  0.16796  1.0000
  H   H34       1.0  0.20660  0.32909  0.33202  1.0000
  H   H35       1.0  0.32908  0.20658  0.83204  1.0000
  H   H36       1.0  0.79340  0.67091  0.66798  1.0000
  C   C1        1.0  0.59569  0.57069  0.32493  1.0000
  C   C2        1.0  0.42934  0.40434  0.17505  1.0000
  C   C3        1.0  0.40430  0.42931  0.67507  1.0000
  C   C4        1.0  0.57066  0.59566  0.82495  1.0000
  C   C5        1.0  0.42976  0.46946  0.40577  1.0000
  C   C6        1.0  0.53057  0.57025  0.09423  1.0000
  C   C7        1.0  0.57024  0.53054  0.59423  1.0000
  C   C8        1.0  0.46943  0.42975  0.90577  1.0000
  C   C9        1.0  0.34132  0.38106  0.45440  1.0000
  C   C10       1.0  0.61899  0.65868  0.04559  1.0000
  C   C11       1.0  0.65868  0.61894  0.54560  1.0000
  C   C12       1.0  0.38101  0.34132  0.95441  1.0000
  C   C13       1.0  0.22495  0.41278  0.49994  1.0000
  C   C14       1.0  0.58725  0.77504  0.00006  1.0000
  C   C15       1.0  0.77505  0.58721  0.50006  1.0000
  C   C16       1.0  0.41276  0.22496  0.99994  1.0000
  C   C17       1.0  0.19717  0.52931  0.49601  1.0000
  C   C18       1.0  0.47069  0.80279  0.00401  1.0000
  C   C19       1.0  0.80282  0.47069  0.50399  1.0000
  C   C20       1.0  0.52931  0.19721  0.99599  1.0000
  C   C21       1.0  0.28438  0.61821  0.44783  1.0000
  C   C22       1.0  0.38179  0.71559  0.05219  1.0000
  C   C23       1.0  0.71562  0.38179  0.55217  1.0000
  C   C24       1.0  0.61822  0.28441  0.94781  1.0000
  C   C25       1.0  0.40113  0.58594  0.40376  1.0000
  C   C26       1.0  0.41407  0.59886  0.09625  1.0000
  C   C27       1.0  0.59887  0.41405  0.59625  1.0000
  C   C28       1.0  0.58594  0.40114  0.90375  1.0000
  C   C29       1.0  0.53082  0.76881  0.32985  1.0000
  C   C30       1.0  0.23118  0.46918  0.17015  1.0000
  C   C31       1.0  0.46918  0.23119  0.67015  1.0000
  C   C32       1.0  0.76882  0.53082  0.82984  1.0000
  C   C33       1.0  0.46388  0.82013  0.40900  1.0000
  C   C34       1.0  0.17987  0.53612  0.09101  1.0000
  C   C35       1.0  0.53612  0.17987  0.59100  1.0000
  C   C36       1.0  0.82013  0.46388  0.90899  1.0000
  C   C37       1.0  0.48749  0.93767  0.38687  1.0000
  C   C38       1.0  0.06230  0.51251  0.11315  1.0000
  C   C39       1.0  0.51251  0.06233  0.61314  1.0000
  C   C40       1.0  0.93770  0.48749  0.88685  1.0000
  C   C41       1.0  0.57834  0.00369  0.28768  1.0000
  C   C42       1.0  0.99630  0.42165  0.21232  1.0000
  C   C43       1.0  0.42166  0.99631  0.71232  1.0000
  C   C44       1.0  0.00370  0.57835  0.78768  1.0000
  C   C45       1.0  0.64551  0.95073  0.20965  1.0000
  C   C46       1.0  0.04925  0.35449  0.29034  1.0000
  C   C47       1.0  0.35449  0.04926  0.79035  1.0000
  C   C48       1.0  0.95075  0.64551  0.70966  1.0000
  C   C49       1.0  0.62140  0.83405  0.22976  1.0000
  C   C50       1.0  0.16596  0.37861  0.27023  1.0000
  C   C51       1.0  0.37860  0.16595  0.77025  1.0000
  C   C52       1.0  0.83404  0.62139  0.72976  1.0000
  C   C53       1.0  0.60557  0.12851  0.26690  1.0000
  C   C54       1.0  0.87146  0.39443  0.23310  1.0000
  C   C55       1.0  0.39443  0.87149  0.73310  1.0000
  C   C56       1.0  0.12854  0.60558  0.76690  1.0000
  N   N1        1.0  0.55197  0.46353  0.35600  1.0000
  N   N2        1.0  0.53652  0.44806  0.14398  1.0000
  N   N3        1.0  0.44802  0.53647  0.64400  1.0000
  N   N4        1.0  0.46348  0.55194  0.85602  1.0000
  N   N5        1.0  0.50969  0.64854  0.35142  1.0000
  N   N6        1.0  0.35147  0.49032  0.14858  1.0000
  N   N7        1.0  0.49031  0.35146  0.64859  1.0000
  N   N8        1.0  0.64853  0.50968  0.85142  1.0000
  O   O1        1.0  0.53965  0.17347  0.34019  1.0000
  O   O2        1.0  0.82649  0.46034  0.15982  1.0000
  O   O3        1.0  0.46036  0.82653  0.65981  1.0000
  O   O4        1.0  0.17351  0.53967  0.84018  1.0000
  O   O5        1.0  0.69235  0.18531  0.17960  1.0000
  O   O6        1.0  0.81465  0.30766  0.32039  1.0000
  O   O7        1.0  0.30765  0.81469  0.82040  1.0000
  O   O8        1.0  0.18535  0.69234  0.67961  1.0000
