data_image0
_chemical_formula_structural       Cu4H32C30S2I4N6
_chemical_formula_sum              "Cu4 H32 C30 S2 I4 N6"
_cell_length_a       9.70463
_cell_length_b       10.0794
_cell_length_c       10.8396
_cell_angle_alpha    91.6522
_cell_angle_beta     96.5382
_cell_angle_gamma    116.87

_space_group_name_H-M_alt    "P 1"
_space_group_IT_number       1

loop_
  _space_group_symop_operation_xyz
  'x, y, z'

loop_
  _atom_site_type_symbol
  _atom_site_label
  _atom_site_symmetry_multiplicity
  _atom_site_fract_x
  _atom_site_fract_y
  _atom_site_fract_z
  _atom_site_occupancy
  Cu  Cu1       1.0  0.05574  0.15495  0.01771  1.0000
  Cu  Cu2       1.0  0.94426  0.84505  0.98230  1.0000
  Cu  Cu3       1.0  0.36342  0.00155  0.99766  1.0000
  Cu  Cu4       1.0  0.63658  0.99845  0.00234  1.0000
  H   H1        1.0  0.16050  0.47474  0.07054  1.0000
  H   H2        1.0  0.83950  0.52526  0.92946  1.0000
  H   H3        1.0  0.10302  0.64320  0.20250  1.0000
  H   H4        1.0  0.89698  0.35680  0.79750  1.0000
  H   H5        1.0  0.02386  0.75895  0.31098  1.0000
  H   H6        1.0  0.97614  0.24105  0.68903  1.0000
  H   H7        1.0  0.94514  0.89465  0.45382  1.0000
  H   H8        1.0  0.05486  0.10535  0.54618  1.0000
  H   H9        1.0  0.76406  0.76136  0.60599  1.0000
  H   H10       1.0  0.23593  0.23863  0.39401  1.0000
  H   H11       1.0  0.65904  0.48484  0.60711  1.0000
  H   H12       1.0  0.34096  0.51516  0.39289  1.0000
  H   H13       1.0  0.73905  0.34623  0.46036  1.0000
  H   H14       1.0  0.26095  0.65377  0.53964  1.0000
  H   H15       1.0  0.59532  0.08677  0.27203  1.0000
  H   H16       1.0  0.40468  0.91324  0.72797  1.0000
  H   H17       1.0  0.54040  0.89301  0.25766  1.0000
  H   H18       1.0  0.45960  0.10699  0.74233  1.0000
  H   H19       1.0  0.76930  0.12193  0.47063  1.0000
  H   H20       1.0  0.23071  0.87808  0.52937  1.0000
  H   H21       1.0  0.74216  0.93708  0.44944  1.0000
  H   H22       1.0  0.25784  0.06292  0.55056  1.0000
  H   H23       1.0  0.45949  0.83622  0.46675  1.0000
  H   H24       1.0  0.54051  0.16378  0.53325  1.0000
  H   H25       1.0  0.58138  0.94599  0.60251  1.0000
  H   H26       1.0  0.41862  0.05401  0.39749  1.0000
  H   H27       1.0  0.53484  0.43578  0.82039  1.0000
  H   H28       1.0  0.46515  0.56421  0.17961  1.0000
  H   H29       1.0  0.47574  0.58055  0.83170  1.0000
  H   H30       1.0  0.52425  0.41944  0.16830  1.0000
  H   H31       1.0  0.39151  0.44054  0.70187  1.0000
  H   H32       1.0  0.60849  0.55946  0.29813  1.0000
  C   C1        1.0  0.89290  0.22571  0.21284  1.0000
  C   C2        1.0  0.10710  0.77429  0.78716  1.0000
  C   C3        1.0  0.07423  0.42940  0.13418  1.0000
  C   C4        1.0  0.92577  0.57060  0.86582  1.0000
  C   C5        1.0  0.04191  0.52311  0.20868  1.0000
  C   C6        1.0  0.95809  0.47690  0.79132  1.0000
  C   C7        1.0  0.93160  0.45657  0.29016  1.0000
  C   C8        1.0  0.06840  0.54343  0.70984  1.0000
  C   C9        1.0  0.88758  0.54176  0.37673  1.0000
  C   C10       1.0  0.11243  0.45825  0.62327  1.0000
  C   C11       1.0  0.94520  0.69704  0.37616  1.0000
  C   C12       1.0  0.05480  0.30296  0.62384  1.0000
  C   C13       1.0  0.89978  0.77453  0.45735  1.0000
  C   C14       1.0  0.10022  0.22547  0.54265  1.0000
  C   C15       1.0  0.79715  0.69958  0.54113  1.0000
  C   C16       1.0  0.20285  0.30042  0.45887  1.0000
  C   C17       1.0  0.73906  0.54480  0.54213  1.0000
  C   C18       1.0  0.26094  0.45520  0.45787  1.0000
  C   C19       1.0  0.78350  0.46664  0.46070  1.0000
  C   C20       1.0  0.21650  0.53336  0.53930  1.0000
  C   C21       1.0  0.63532  0.00337  0.29525  1.0000
  C   C22       1.0  0.36468  0.99663  0.70475  1.0000
  C   C23       1.0  0.68362  0.00759  0.43420  1.0000
  C   C24       1.0  0.31638  0.99241  0.56580  1.0000
  C   C25       1.0  0.54232  0.95175  0.50428  1.0000
  C   C26       1.0  0.45768  0.04825  0.49572  1.0000
  C   C27       1.0  0.31480  0.36879  0.87146  1.0000
  C   C28       1.0  0.68519  0.63120  0.12854  1.0000
  C   C29       1.0  0.43642  0.46207  0.80196  1.0000
  C   C30       1.0  0.56358  0.53792  0.19804  1.0000
  S   S1        1.0  0.78470  0.02965  0.19840  1.0000
  S   S2        1.0  0.21531  0.97035  0.80160  1.0000
  I   I1        1.0  0.18398  0.01477  0.15583  1.0000
  I   I2        1.0  0.81602  0.98523  0.84417  1.0000
  I   I3        1.0  0.61337  0.24867  0.99142  1.0000
  I   I4        1.0  0.38663  0.75133  0.00858  1.0000
  N   N1        1.0  0.00221  0.27958  0.13482  1.0000
  N   N2        1.0  0.99779  0.72042  0.86518  1.0000
  N   N3        1.0  0.85875  0.30663  0.29060  1.0000
  N   N4        1.0  0.14125  0.69337  0.70940  1.0000
  N   N5        1.0  0.21715  0.29237  0.92741  1.0000
  N   N6        1.0  0.78285  0.70762  0.07258  1.0000
