data_image0
_chemical_formula_structural       Ho2Ag2H24C36N8O20
_chemical_formula_sum              "Ho2 Ag2 H24 C36 N8 O20"
_cell_length_a       9.52726
_cell_length_b       9.89284
_cell_length_c       12.106
_cell_angle_alpha    65.8797
_cell_angle_beta     80.0646
_cell_angle_gamma    65.0525

_space_group_name_H-M_alt    "P 1"
_space_group_IT_number       1

loop_
  _space_group_symop_operation_xyz
  'x, y, z'

loop_
  _atom_site_type_symbol
  _atom_site_label
  _atom_site_symmetry_multiplicity
  _atom_site_fract_x
  _atom_site_fract_y
  _atom_site_fract_z
  _atom_site_occupancy
  Ho  Ho1       1.0  0.73377  0.68069  0.51287  1.0000
  Ho  Ho2       1.0  0.23362  0.19361  0.48717  1.0000
  Ag  Ag1       1.0  0.91010  0.30532  0.17065  1.0000
  Ag  Ag2       1.0  0.41026  0.47596  0.82936  1.0000
  H   H1        1.0  0.47304  0.61372  0.45887  1.0000
  H   H2        1.0  0.97304  0.07266  0.54106  1.0000
  H   H3        1.0  0.52771  0.73180  0.33748  1.0000
  H   H4        1.0  0.02767  0.06916  0.66252  1.0000
  H   H5        1.0  0.83165  0.32461  0.54964  1.0000
  H   H6        1.0  0.33162  0.87416  0.45040  1.0000
  H   H7        1.0  0.64576  0.39643  0.57317  1.0000
  H   H8        1.0  0.14575  0.96957  0.42685  1.0000
  H   H9        1.0  0.48852  0.94425  0.11465  1.0000
  H   H10       1.0  0.98845  0.05900  0.88522  1.0000
  H   H11       1.0  0.31495  0.56076  0.25711  1.0000
  H   H12       1.0  0.81502  0.81796  0.74297  1.0000
  H   H13       1.0  0.27191  0.02988  0.25559  1.0000
  H   H14       1.0  0.77186  0.28574  0.74434  1.0000
  H   H15       1.0  0.95807  0.38963  0.87641  1.0000
  H   H16       1.0  0.45796  0.26592  0.12362  1.0000
  H   H17       1.0  0.52970  0.08908  0.84633  1.0000
  H   H18       1.0  0.02968  0.93561  0.15352  1.0000
  H   H19       1.0  0.58002  0.37602  0.34656  1.0000
  H   H20       1.0  0.08012  0.72278  0.65337  1.0000
  H   H21       1.0  0.20100  0.82196  0.01625  1.0000
  H   H22       1.0  0.70112  0.83808  0.98396  1.0000
  H   H23       1.0  0.75692  0.54768  0.91638  1.0000
  H   H24       1.0  0.25725  0.46401  0.08352  1.0000
  C   C1        1.0  0.58714  0.74271  0.72095  1.0000
  C   C2        1.0  0.08724  0.46311  0.27901  1.0000
  C   C3        1.0  0.26146  0.07940  0.15772  1.0000
  C   C4        1.0  0.76145  0.23728  0.84224  1.0000
  C   C5        1.0  0.17143  0.22270  0.97550  1.0000
  C   C6        1.0  0.67140  0.19818  0.02450  1.0000
  C   C7        1.0  0.08177  0.32215  0.87216  1.0000
  C   C8        1.0  0.58165  0.19420  0.12784  1.0000
  C   C9        1.0  0.15194  0.33274  0.75941  1.0000
  C   C10       1.0  0.65185  0.09210  0.24056  1.0000
  C   C11       1.0  0.04290  0.41969  0.65550  1.0000
  C   C12       1.0  0.54288  0.07494  0.34451  1.0000
  C   C13       1.0  0.31554  0.25598  0.74883  1.0000
  C   C14       1.0  0.81547  0.00497  0.25109  1.0000
  C   C15       1.0  0.40200  0.30487  0.63011  1.0000
  C   C16       1.0  0.90188  0.93515  0.36980  1.0000
  C   C17       1.0  0.40492  0.14979  0.85316  1.0000
  C   C18       1.0  0.90489  0.00308  0.14676  1.0000
  C   C19       1.0  0.33033  0.12922  0.96544  1.0000
  C   C20       1.0  0.83029  0.09467  0.03450  1.0000
  C   C21       1.0  0.55980  0.45614  0.25205  1.0000
  C   C22       1.0  0.05989  0.70835  0.74790  1.0000
  C   C23       1.0  0.42933  0.64320  0.08608  1.0000
  C   C24       1.0  0.92944  0.72912  0.91402  1.0000
  C   C25       1.0  0.32204  0.76306  0.99589  1.0000
  C   C26       1.0  0.82218  0.75882  0.00425  1.0000
  C   C27       1.0  0.37281  0.80432  0.87547  1.0000
  C   C28       1.0  0.87299  0.67949  0.12465  1.0000
  C   C29       1.0  0.26160  0.93091  0.77508  1.0000
  C   C30       1.0  0.76175  0.70577  0.22504  1.0000
  C   C31       1.0  0.52999  0.72484  0.84777  1.0000
  C   C32       1.0  0.03020  0.57230  0.15223  1.0000
  C   C33       1.0  0.63759  0.60984  0.93881  1.0000
  C   C34       1.0  0.13785  0.54850  0.06116  1.0000
  C   C35       1.0  0.58732  0.56943  0.05871  1.0000
  C   C36       1.0  0.08748  0.62806  0.94128  1.0000
  N   N1        1.0  0.38195  0.03792  0.08306  1.0000
  N   N2        1.0  0.88190  0.12105  0.91686  1.0000
  N   N3        1.0  0.13258  0.19055  0.09710  1.0000
  N   N4        1.0  0.63260  0.28777  0.90293  1.0000
  N   N5        1.0  0.66667  0.45498  0.16495  1.0000
  N   N6        1.0  0.16678  0.61996  0.83497  1.0000
  N   N7        1.0  0.41663  0.56773  0.21023  1.0000
  N   N8        1.0  0.91672  0.77797  0.78984  1.0000
  O   O1        1.0  0.55268  0.66829  0.67098  1.0000
  O   O2        1.0  0.05262  0.33880  0.32888  1.0000
  O   O3        1.0  0.68058  0.81136  0.67143  1.0000
  O   O4        1.0  0.18073  0.48201  0.32866  1.0000
  O   O5        1.0  0.91227  0.52632  0.66564  1.0000
  O   O6        1.0  0.41224  0.19162  0.33445  1.0000
  O   O7        1.0  0.07763  0.37882  0.56455  1.0000
  O   O8        1.0  0.57771  0.94307  0.43541  1.0000
  O   O9        1.0  0.40564  0.25814  0.54625  1.0000
  O   O10       1.0  0.90572  0.80438  0.45357  1.0000
  O   O11       1.0  0.47033  0.39375  0.62487  1.0000
  O   O12       1.0  0.97006  0.01889  0.37508  1.0000
  O   O13       1.0  0.11599  0.97756  0.79604  1.0000
  O   O14       1.0  0.61613  0.77369  0.20404  1.0000
  O   O15       1.0  0.31765  0.98643  0.67138  1.0000
  O   O16       1.0  0.81774  0.65754  0.32876  1.0000
  O   O17       1.0  0.49143  0.71325  0.42438  1.0000
  O   O18       1.0  0.99144  0.13758  0.57563  1.0000
  O   O19       1.0  0.74030  0.42181  0.55097  1.0000
  O   O20       1.0  0.24023  0.97260  0.44923  1.0000
