data_image0
_chemical_formula_structural       Tb4H28C44N12O28
_chemical_formula_sum              "Tb4 H28 C44 N12 O28"
_cell_length_a       8.23828
_cell_length_b       11.4953
_cell_length_c       14.724
_cell_angle_alpha    90
_cell_angle_beta     90
_cell_angle_gamma    90.7909

_space_group_name_H-M_alt    "P 1"
_space_group_IT_number       1

loop_
  _space_group_symop_operation_xyz
  'x, y, z'

loop_
  _atom_site_type_symbol
  _atom_site_label
  _atom_site_symmetry_multiplicity
  _atom_site_fract_x
  _atom_site_fract_y
  _atom_site_fract_z
  _atom_site_occupancy
  Tb  Tb1       1.0  0.22441  0.07247  0.86847  1.0000
  Tb  Tb2       1.0  0.77559  0.42753  0.36847  1.0000
  Tb  Tb3       1.0  0.77559  0.92753  0.13153  1.0000
  Tb  Tb4       1.0  0.22440  0.57247  0.63153  1.0000
  H   H1        1.0  0.74883  0.01631  0.82183  1.0000
  H   H2        1.0  0.25116  0.48369  0.32183  1.0000
  H   H3        1.0  0.25117  0.98369  0.17817  1.0000
  H   H4        1.0  0.74883  0.51631  0.67817  1.0000
  H   H5        1.0  0.58686  0.83061  0.83224  1.0000
  H   H6        1.0  0.41314  0.66939  0.33224  1.0000
  H   H7        1.0  0.41314  0.16939  0.16776  1.0000
  H   H8        1.0  0.58686  0.33061  0.66776  1.0000
  H   H9        1.0  0.91681  0.90059  0.55923  1.0000
  H   H10       1.0  0.08319  0.59940  0.05923  1.0000
  H   H11       1.0  0.08319  0.09940  0.44077  1.0000
  H   H12       1.0  0.91681  0.40059  0.94077  1.0000
  H   H13       1.0  0.74925  0.72089  0.58025  1.0000
  H   H14       1.0  0.25076  0.77910  0.08025  1.0000
  H   H15       1.0  0.25075  0.27911  0.41974  1.0000
  H   H16       1.0  0.74925  0.22089  0.91974  1.0000
  H   H17       1.0  0.83588  0.15086  0.55566  1.0000
  H   H18       1.0  0.16412  0.34915  0.05566  1.0000
  H   H19       1.0  0.16412  0.84914  0.44434  1.0000
  H   H20       1.0  0.83588  0.65086  0.94434  1.0000
  H   H21       1.0  0.46706  0.03953  0.72420  1.0000
  H   H22       1.0  0.53294  0.46047  0.22420  1.0000
  H   H23       1.0  0.53294  0.96047  0.27580  1.0000
  H   H24       1.0  0.46706  0.53953  0.77580  1.0000
  H   H25       1.0  0.52982  0.16082  0.77327  1.0000
  H   H26       1.0  0.47018  0.33918  0.27327  1.0000
  H   H27       1.0  0.47019  0.83918  0.22673  1.0000
  H   H28       1.0  0.52982  0.66082  0.72674  1.0000
  C   C1        1.0  0.18777  0.31902  0.76376  1.0000
  C   C2        1.0  0.81223  0.18098  0.26376  1.0000
  C   C3        1.0  0.81223  0.68098  0.23624  1.0000
  C   C4        1.0  0.18777  0.81902  0.73624  1.0000
  C   C5        1.0  0.07413  0.24467  0.70885  1.0000
  C   C6        1.0  0.92587  0.25533  0.20885  1.0000
  C   C7        1.0  0.92587  0.75533  0.29115  1.0000
  C   C8        1.0  0.07413  0.74467  0.79115  1.0000
  C   C9        1.0  0.99645  0.26150  0.62619  1.0000
  C   C10       1.0  0.00355  0.23850  0.12619  1.0000
  C   C11       1.0  0.00355  0.73850  0.37381  1.0000
  C   C12       1.0  0.99645  0.76150  0.87381  1.0000
  C   C13       1.0  0.96184  0.36201  0.56670  1.0000
  C   C14       1.0  0.03815  0.13800  0.06670  1.0000
  C   C15       1.0  0.03816  0.63800  0.43330  1.0000
  C   C16       1.0  0.96184  0.86201  0.93330  1.0000
  C   C17       1.0  0.93458  0.08528  0.68063  1.0000
  C   C18       1.0  0.06542  0.41472  0.18063  1.0000
  C   C19       1.0  0.06542  0.91473  0.31937  1.0000
  C   C20       1.0  0.93458  0.58528  0.81937  1.0000
  C   C21       1.0  0.84548  0.97422  0.68926  1.0000
  C   C22       1.0  0.15452  0.52578  0.18926  1.0000
  C   C23       1.0  0.15452  0.02578  0.31074  1.0000
  C   C24       1.0  0.84548  0.47422  0.81074  1.0000
  C   C25       1.0  0.75176  0.95292  0.76714  1.0000
  C   C26       1.0  0.24824  0.54708  0.26714  1.0000
  C   C27       1.0  0.24824  0.04708  0.23286  1.0000
  C   C28       1.0  0.75176  0.45292  0.73286  1.0000
  C   C29       1.0  0.66321  0.84923  0.77318  1.0000
  C   C30       1.0  0.33680  0.65077  0.27318  1.0000
  C   C31       1.0  0.33680  0.15077  0.22681  1.0000
  C   C32       1.0  0.66320  0.34923  0.72682  1.0000
  C   C33       1.0  0.84435  0.88970  0.62061  1.0000
  C   C34       1.0  0.15565  0.61029  0.12061  1.0000
  C   C35       1.0  0.15565  0.11030  0.37939  1.0000
  C   C36       1.0  0.84435  0.38970  0.87939  1.0000
  C   C37       1.0  0.75266  0.78793  0.63273  1.0000
  C   C38       1.0  0.24734  0.71207  0.13273  1.0000
  C   C39       1.0  0.24734  0.21207  0.36727  1.0000
  C   C40       1.0  0.75266  0.28793  0.86727  1.0000
  C   C41       1.0  0.53408  0.06342  0.99976  1.0000
  C   C42       1.0  0.46593  0.43658  0.49976  1.0000
  C   C43       1.0  0.46593  0.93658  0.00025  1.0000
  C   C44       1.0  0.53408  0.56342  0.50024  1.0000
  N   N1        1.0  0.91349  0.15891  0.60934  1.0000
  N   N2        1.0  0.08651  0.34109  0.10934  1.0000
  N   N3        1.0  0.08651  0.84109  0.39066  1.0000
  N   N4        1.0  0.91349  0.65891  0.89066  1.0000
  N   N5        1.0  0.03366  0.13532  0.74154  1.0000
  N   N6        1.0  0.96634  0.36468  0.24154  1.0000
  N   N7        1.0  0.96634  0.86468  0.25846  1.0000
  N   N8        1.0  0.03366  0.63532  0.75846  1.0000
  N   N9        1.0  0.66396  0.76757  0.70784  1.0000
  N   N10       1.0  0.33604  0.73242  0.20784  1.0000
  N   N11       1.0  0.33604  0.23243  0.29216  1.0000
  N   N12       1.0  0.66396  0.26757  0.79216  1.0000
  O   O1        1.0  0.23392  0.27476  0.83829  1.0000
  O   O2        1.0  0.76608  0.22523  0.33829  1.0000
  O   O3        1.0  0.76608  0.72523  0.16171  1.0000
  O   O4        1.0  0.23392  0.77477  0.66171  1.0000
  O   O5        1.0  0.23194  0.41868  0.73576  1.0000
  O   O6        1.0  0.76805  0.08132  0.23576  1.0000
  O   O7        1.0  0.76806  0.58132  0.26424  1.0000
  O   O8        1.0  0.23194  0.91868  0.76424  1.0000
  O   O9        1.0  0.99855  0.46341  0.59301  1.0000
  O   O10       1.0  0.00145  0.03659  0.09300  1.0000
  O   O11       1.0  0.00145  0.53659  0.40700  1.0000
  O   O12       1.0  0.99856  0.96341  0.90699  1.0000
  O   O13       1.0  0.88283  0.33528  0.49539  1.0000
  O   O14       1.0  0.11716  0.16472  0.99539  1.0000
  O   O15       1.0  0.11717  0.66473  0.50461  1.0000
  O   O16       1.0  0.88283  0.83528  0.00461  1.0000
  O   O17       1.0  0.45698  0.13714  0.95390  1.0000
  O   O18       1.0  0.54301  0.36286  0.45390  1.0000
  O   O19       1.0  0.54301  0.86286  0.04611  1.0000
  O   O20       1.0  0.45699  0.63714  0.54611  1.0000
  O   O21       1.0  0.66232  0.08220  0.04564  1.0000
  O   O22       1.0  0.33768  0.41780  0.54565  1.0000
  O   O23       1.0  0.33769  0.91779  0.95436  1.0000
  O   O24       1.0  0.66231  0.58221  0.45435  1.0000
  O   O25       1.0  0.43352  0.10654  0.75936  1.0000
  O   O26       1.0  0.56648  0.39346  0.25936  1.0000
  O   O27       1.0  0.56648  0.89346  0.24065  1.0000
  O   O28       1.0  0.43352  0.60654  0.74065  1.0000
