data_image0
_chemical_formula_structural       Cd8H36C48N12O28
_chemical_formula_sum              "Cd8 H36 C48 N12 O28"
_cell_length_a       6.98208
_cell_length_b       13.0094
_cell_length_c       16.19
_cell_angle_alpha    102.772
_cell_angle_beta     90
_cell_angle_gamma    90

_space_group_name_H-M_alt    "P 1"
_space_group_IT_number       1

loop_
  _space_group_symop_operation_xyz
  'x, y, z'

loop_
  _atom_site_type_symbol
  _atom_site_label
  _atom_site_symmetry_multiplicity
  _atom_site_fract_x
  _atom_site_fract_y
  _atom_site_fract_z
  _atom_site_occupancy
  Cd  Cd1       1.0  0.63628  0.21080  0.13836  1.0000
  Cd  Cd2       1.0  0.13627  0.28920  0.36164  1.0000
  Cd  Cd3       1.0  0.36373  0.78919  0.86165  1.0000
  Cd  Cd4       1.0  0.86372  0.71080  0.63836  1.0000
  Cd  Cd5       1.0  0.56451  0.68954  0.11639  1.0000
  Cd  Cd6       1.0  0.06451  0.81046  0.38361  1.0000
  Cd  Cd7       1.0  0.43550  0.31047  0.88362  1.0000
  Cd  Cd8       1.0  0.93548  0.18953  0.61638  1.0000
  H   H1        1.0  0.95032  0.82069  0.13785  1.0000
  H   H2        1.0  0.45034  0.67934  0.36216  1.0000
  H   H3        1.0  0.04968  0.17934  0.86216  1.0000
  H   H4        1.0  0.54967  0.32068  0.63785  1.0000
  H   H5        1.0  0.20462  0.75728  0.03156  1.0000
  H   H6        1.0  0.70462  0.74274  0.46845  1.0000
  H   H7        1.0  0.79540  0.24274  0.96845  1.0000
  H   H8        1.0  0.29538  0.25726  0.53156  1.0000
  H   H9        1.0  0.68501  0.97270  0.95479  1.0000
  H   H10       1.0  0.18504  0.52729  0.54520  1.0000
  H   H11       1.0  0.31497  0.02729  0.04520  1.0000
  H   H12       1.0  0.81500  0.47269  0.45480  1.0000
  H   H13       1.0  0.95631  0.90655  0.85688  1.0000
  H   H14       1.0  0.45632  0.59343  0.64312  1.0000
  H   H15       1.0  0.04368  0.09344  0.14312  1.0000
  H   H16       1.0  0.54371  0.40653  0.35688  1.0000
  H   H17       1.0  0.26755  0.33826  0.18156  1.0000
  H   H18       1.0  0.76756  0.16176  0.31845  1.0000
  H   H19       1.0  0.73243  0.66175  0.81845  1.0000
  H   H20       1.0  0.23244  0.83824  0.68155  1.0000
  H   H21       1.0  0.15391  0.44681  0.14933  1.0000
  H   H22       1.0  0.65390  0.05320  0.35066  1.0000
  H   H23       1.0  0.84609  0.55319  0.85067  1.0000
  H   H24       1.0  0.34609  0.94680  0.64933  1.0000
  H   H25       1.0  0.39560  0.45725  0.18617  1.0000
  H   H26       1.0  0.89559  0.04275  0.31383  1.0000
  H   H27       1.0  0.60439  0.54275  0.81384  1.0000
  H   H28       1.0  0.10440  0.95724  0.68616  1.0000
  H   H29       1.0  0.26207  0.54926  0.05658  1.0000
  H   H30       1.0  0.76205  0.95073  0.44341  1.0000
  H   H31       1.0  0.73794  0.45074  0.94343  1.0000
  H   H32       1.0  0.23791  0.04925  0.55658  1.0000
  H   H33       1.0  0.14213  0.63164  0.12734  1.0000
  H   H34       1.0  0.64213  0.86836  0.37265  1.0000
  H   H35       1.0  0.85788  0.36838  0.87266  1.0000
  H   H36       1.0  0.35786  0.13162  0.62733  1.0000
  C   C1        1.0  0.31593  0.88066  0.27412  1.0000
  C   C2        1.0  0.81599  0.61935  0.22587  1.0000
  C   C3        1.0  0.68406  0.11934  0.72587  1.0000
  C   C4        1.0  0.18404  0.38065  0.77413  1.0000
  C   C5        1.0  0.42681  0.92573  0.21186  1.0000
  C   C6        1.0  0.92682  0.57427  0.28814  1.0000
  C   C7        1.0  0.57318  0.07427  0.78813  1.0000
  C   C8        1.0  0.07319  0.42572  0.71186  1.0000
  C   C9        1.0  0.43941  0.02968  0.20308  1.0000
  C   C10       1.0  0.93944  0.47033  0.29693  1.0000
  C   C11       1.0  0.56057  0.97032  0.79691  1.0000
  C   C12       1.0  0.06058  0.52967  0.70308  1.0000
  C   C13       1.0  0.34771  0.12526  0.25214  1.0000
  C   C14       1.0  0.84771  0.37475  0.24786  1.0000
  C   C15       1.0  0.65229  0.87475  0.74786  1.0000
  C   C16       1.0  0.15230  0.62525  0.75215  1.0000
  C   C17       1.0  0.64128  0.93550  0.11595  1.0000
  C   C18       1.0  0.14130  0.56450  0.38405  1.0000
  C   C19       1.0  0.35870  0.06450  0.88405  1.0000
  C   C20       1.0  0.85871  0.43550  0.61596  1.0000
  C   C21       1.0  0.79487  0.90149  0.05447  1.0000
  C   C22       1.0  0.29488  0.59852  0.44552  1.0000
  C   C23       1.0  0.20513  0.09851  0.94552  1.0000
  C   C24       1.0  0.70513  0.40149  0.55448  1.0000
  C   C25       1.0  0.94371  0.84014  0.07592  1.0000
  C   C26       1.0  0.44371  0.65988  0.42410  1.0000
  C   C27       1.0  0.05630  0.15988  0.92408  1.0000
  C   C28       1.0  0.55628  0.34014  0.57591  1.0000
  C   C29       1.0  0.08841  0.80646  0.01747  1.0000
  C   C30       1.0  0.58840  0.69356  0.48254  1.0000
  C   C31       1.0  0.91159  0.19355  0.98254  1.0000
  C   C32       1.0  0.41159  0.30646  0.51747  1.0000
  C   C33       1.0  0.79870  0.92647  0.97464  1.0000
  C   C34       1.0  0.29869  0.57353  0.52537  1.0000
  C   C35       1.0  0.20130  0.07353  0.02536  1.0000
  C   C36       1.0  0.70130  0.42646  0.47464  1.0000
  C   C37       1.0  0.94832  0.88933  0.91972  1.0000
  C   C38       1.0  0.44832  0.61065  0.58028  1.0000
  C   C39       1.0  0.05167  0.11066  0.08027  1.0000
  C   C40       1.0  0.55170  0.38934  0.41973  1.0000
  C   C41       1.0  0.36105  0.36417  0.06156  1.0000
  C   C42       1.0  0.86104  0.13582  0.43844  1.0000
  C   C43       1.0  0.63895  0.63583  0.93845  1.0000
  C   C44       1.0  0.13895  0.86418  0.56156  1.0000
  C   C45       1.0  0.28810  0.40364  0.15007  1.0000
  C   C46       1.0  0.78809  0.09637  0.34992  1.0000
  C   C47       1.0  0.71190  0.59636  0.84993  1.0000
  C   C48       1.0  0.21191  0.90363  0.65007  1.0000
  N   N1        1.0  0.55544  0.86694  0.15728  1.0000
  N   N2        1.0  0.05546  0.63307  0.34272  1.0000
  N   N3        1.0  0.44455  0.13306  0.84271  1.0000
  N   N4        1.0  0.94455  0.36693  0.65728  1.0000
  N   N5        1.0  0.57570  0.03457  0.14227  1.0000
  N   N6        1.0  0.07571  0.46544  0.35773  1.0000
  N   N7        1.0  0.42429  0.96543  0.85772  1.0000
  N   N8        1.0  0.92428  0.53456  0.64228  1.0000
  N   N9        1.0  0.09143  0.83064  0.94093  1.0000
  N   N10       1.0  0.59143  0.66936  0.55908  1.0000
  N   N11       1.0  0.90856  0.16936  0.05907  1.0000
  N   N12       1.0  0.40857  0.33064  0.44093  1.0000
  O   O1        1.0  0.41029  0.84515  0.32891  1.0000
  O   O2        1.0  0.91029  0.65485  0.17108  1.0000
  O   O3        1.0  0.58971  0.15484  0.67107  1.0000
  O   O4        1.0  0.08973  0.34516  0.82892  1.0000
  O   O5        1.0  0.13348  0.87914  0.26959  1.0000
  O   O6        1.0  0.63348  0.62088  0.23041  1.0000
  O   O7        1.0  0.86653  0.12087  0.73042  1.0000
  O   O8        1.0  0.36653  0.37911  0.76958  1.0000
  O   O9        1.0  0.22229  0.11674  0.30699  1.0000
  O   O10       1.0  0.72233  0.38327  0.19301  1.0000
  O   O11       1.0  0.77770  0.88326  0.69301  1.0000
  O   O12       1.0  0.27768  0.61673  0.80699  1.0000
  O   O13       1.0  0.39828  0.21525  0.23835  1.0000
  O   O14       1.0  0.89828  0.28476  0.26165  1.0000
  O   O15       1.0  0.60173  0.78475  0.76166  1.0000
  O   O16       1.0  0.10172  0.71525  0.73835  1.0000
  O   O17       1.0  0.31873  0.41660  0.00550  1.0000
  O   O18       1.0  0.81872  0.08339  0.49449  1.0000
  O   O19       1.0  0.68129  0.58340  0.99450  1.0000
  O   O20       1.0  0.18126  0.91660  0.50550  1.0000
  O   O21       1.0  0.46142  0.28008  0.04118  1.0000
  O   O22       1.0  0.96142  0.21991  0.45883  1.0000
  O   O23       1.0  0.53858  0.71991  0.95883  1.0000
  O   O24       1.0  0.03857  0.78008  0.54118  1.0000
  O   O25       1.0  0.25931  0.62269  0.09126  1.0000
  O   O26       1.0  0.75930  0.87731  0.40874  1.0000
  O   O27       1.0  0.74070  0.37732  0.90875  1.0000
  O   O28       1.0  0.24069  0.12268  0.59125  1.0000
