data_image0
_chemical_formula_structural       Tb4H28C44N12O28
_chemical_formula_sum              "Tb4 H28 C44 N12 O28"
_cell_length_a       8.25867
_cell_length_b       11.4884
_cell_length_c       14.7322
_cell_angle_alpha    90
_cell_angle_beta     90
_cell_angle_gamma    90.8463

_space_group_name_H-M_alt    "P 1"
_space_group_IT_number       1

loop_
  _space_group_symop_operation_xyz
  'x, y, z'

loop_
  _atom_site_type_symbol
  _atom_site_label
  _atom_site_symmetry_multiplicity
  _atom_site_fract_x
  _atom_site_fract_y
  _atom_site_fract_z
  _atom_site_occupancy
  Tb  Tb1       1.0  0.72191  0.07047  0.87009  1.0000
  Tb  Tb2       1.0  0.27809  0.42953  0.37009  1.0000
  Tb  Tb3       1.0  0.27809  0.92954  0.12991  1.0000
  Tb  Tb4       1.0  0.72191  0.57047  0.62991  1.0000
  H   H1        1.0  0.41582  0.89898  0.55773  1.0000
  H   H2        1.0  0.58418  0.60101  0.05773  1.0000
  H   H3        1.0  0.58419  0.10101  0.44227  1.0000
  H   H4        1.0  0.41581  0.39899  0.94227  1.0000
  H   H5        1.0  0.25150  0.71804  0.57735  1.0000
  H   H6        1.0  0.74850  0.78195  0.07735  1.0000
  H   H7        1.0  0.74851  0.28195  0.42266  1.0000
  H   H8        1.0  0.25149  0.21805  0.92266  1.0000
  H   H9        1.0  0.09283  0.82154  0.83176  1.0000
  H   H10       1.0  0.90717  0.67847  0.33176  1.0000
  H   H11       1.0  0.90717  0.17847  0.16825  1.0000
  H   H12       1.0  0.09283  0.32153  0.66825  1.0000
  H   H13       1.0  0.25258  0.00784  0.82287  1.0000
  H   H14       1.0  0.74742  0.49216  0.32287  1.0000
  H   H15       1.0  0.74742  0.99217  0.17713  1.0000
  H   H16       1.0  0.25258  0.50783  0.67713  1.0000
  H   H17       1.0  0.33785  0.14483  0.55488  1.0000
  H   H18       1.0  0.66215  0.35517  0.05488  1.0000
  H   H19       1.0  0.66215  0.85516  0.44512  1.0000
  H   H20       1.0  0.33785  0.64484  0.94512  1.0000
  H   H21       1.0  0.03516  0.15406  0.77801  1.0000
  H   H22       1.0  0.96484  0.34594  0.27801  1.0000
  H   H23       1.0  0.96484  0.84594  0.22200  1.0000
  H   H24       1.0  0.03516  0.65406  0.72200  1.0000
  H   H25       1.0  0.97111  0.03153  0.73055  1.0000
  H   H26       1.0  0.02889  0.46847  0.23055  1.0000
  H   H27       1.0  0.02889  0.96847  0.26945  1.0000
  H   H28       1.0  0.97111  0.53153  0.76945  1.0000
  C   C1        1.0  0.68833  0.31546  0.76206  1.0000
  C   C2        1.0  0.31167  0.18454  0.26206  1.0000
  C   C3        1.0  0.31166  0.68454  0.23794  1.0000
  C   C4        1.0  0.68834  0.81546  0.73794  1.0000
  C   C5        1.0  0.57441  0.24043  0.70808  1.0000
  C   C6        1.0  0.42559  0.25957  0.20808  1.0000
  C   C7        1.0  0.42558  0.75957  0.29192  1.0000
  C   C8        1.0  0.57443  0.74043  0.79192  1.0000
  C   C9        1.0  0.49801  0.25651  0.62508  1.0000
  C   C10       1.0  0.50199  0.24349  0.12508  1.0000
  C   C11       1.0  0.50198  0.74349  0.37492  1.0000
  C   C12       1.0  0.49802  0.75651  0.87492  1.0000
  C   C13       1.0  0.46796  0.35620  0.56395  1.0000
  C   C14       1.0  0.53204  0.14380  0.06395  1.0000
  C   C15       1.0  0.53204  0.64379  0.43604  1.0000
  C   C16       1.0  0.46796  0.85621  0.93604  1.0000
  C   C17       1.0  0.43440  0.08110  0.68076  1.0000
  C   C18       1.0  0.56560  0.41890  0.18076  1.0000
  C   C19       1.0  0.56560  0.91890  0.31924  1.0000
  C   C20       1.0  0.43440  0.58110  0.81924  1.0000
  C   C21       1.0  0.34649  0.96960  0.68907  1.0000
  C   C22       1.0  0.65352  0.53040  0.18907  1.0000
  C   C23       1.0  0.65351  0.03040  0.31093  1.0000
  C   C24       1.0  0.34649  0.46960  0.81093  1.0000
  C   C25       1.0  0.34471  0.88655  0.61933  1.0000
  C   C26       1.0  0.65529  0.61345  0.11933  1.0000
  C   C27       1.0  0.65529  0.11345  0.38067  1.0000
  C   C28       1.0  0.34471  0.38655  0.88067  1.0000
  C   C29       1.0  0.25471  0.78388  0.63072  1.0000
  C   C30       1.0  0.74529  0.71612  0.13072  1.0000
  C   C31       1.0  0.74529  0.21612  0.36929  1.0000
  C   C32       1.0  0.25471  0.28388  0.86929  1.0000
  C   C33       1.0  0.16770  0.84153  0.77247  1.0000
  C   C34       1.0  0.83230  0.65847  0.27247  1.0000
  C   C35       1.0  0.83230  0.15847  0.22753  1.0000
  C   C36       1.0  0.16770  0.34153  0.72753  1.0000
  C   C37       1.0  0.25502  0.94580  0.76726  1.0000
  C   C38       1.0  0.74498  0.55420  0.26726  1.0000
  C   C39       1.0  0.74498  0.05420  0.23274  1.0000
  C   C40       1.0  0.25502  0.44580  0.73274  1.0000
  C   C41       1.0  0.02942  0.06453  0.00256  1.0000
  C   C42       1.0  0.97058  0.43547  0.50256  1.0000
  C   C43       1.0  0.97057  0.93547  0.99743  1.0000
  C   C44       1.0  0.02943  0.56453  0.49744  1.0000
  N   N1        1.0  0.53315  0.13160  0.74156  1.0000
  N   N2        1.0  0.46685  0.36840  0.24156  1.0000
  N   N3        1.0  0.46685  0.86840  0.25844  1.0000
  N   N4        1.0  0.53315  0.63160  0.75844  1.0000
  N   N5        1.0  0.41454  0.15395  0.60879  1.0000
  N   N6        1.0  0.58546  0.34605  0.10879  1.0000
  N   N7        1.0  0.58546  0.84605  0.39121  1.0000
  N   N8        1.0  0.41454  0.65395  0.89121  1.0000
  N   N9        1.0  0.16786  0.76136  0.70599  1.0000
  N   N10       1.0  0.83214  0.73864  0.20599  1.0000
  N   N11       1.0  0.83214  0.23864  0.29401  1.0000
  N   N12       1.0  0.16786  0.26136  0.79401  1.0000
  O   O1        1.0  0.73785  0.27093  0.83567  1.0000
  O   O2        1.0  0.26215  0.22908  0.33567  1.0000
  O   O3        1.0  0.26214  0.72907  0.16432  1.0000
  O   O4        1.0  0.73786  0.77093  0.66432  1.0000
  O   O5        1.0  0.72936  0.41581  0.73416  1.0000
  O   O6        1.0  0.27064  0.08419  0.23416  1.0000
  O   O7        1.0  0.27064  0.58419  0.26583  1.0000
  O   O8        1.0  0.72936  0.91581  0.76584  1.0000
  O   O9        1.0  0.49993  0.45816  0.59115  1.0000
  O   O10       1.0  0.50007  0.04184  0.09115  1.0000
  O   O11       1.0  0.50007  0.54184  0.40884  1.0000
  O   O12       1.0  0.49993  0.95815  0.90884  1.0000
  O   O13       1.0  0.39766  0.32852  0.49018  1.0000
  O   O14       1.0  0.60234  0.17148  0.99018  1.0000
  O   O15       1.0  0.60235  0.67148  0.50982  1.0000
  O   O16       1.0  0.39765  0.82852  0.00982  1.0000
  O   O17       1.0  0.94458  0.13899  0.96232  1.0000
  O   O18       1.0  0.05542  0.36101  0.46232  1.0000
  O   O19       1.0  0.05541  0.86102  0.03768  1.0000
  O   O20       1.0  0.94459  0.63898  0.53768  1.0000
  O   O21       1.0  0.15876  0.08417  0.04701  1.0000
  O   O22       1.0  0.84125  0.41584  0.54701  1.0000
  O   O23       1.0  0.84124  0.91584  0.95299  1.0000
  O   O24       1.0  0.15876  0.58417  0.45298  1.0000
  O   O25       1.0  0.93963  0.09798  0.76690  1.0000
  O   O26       1.0  0.06037  0.40202  0.26690  1.0000
  O   O27       1.0  0.06037  0.90203  0.23310  1.0000
  O   O28       1.0  0.93963  0.59797  0.73310  1.0000
