data_image0
_chemical_formula_structural       Zn4H16C24N6O20
_chemical_formula_sum              "Zn4 H16 C24 N6 O20"
_cell_length_a       7.03778
_cell_length_b       7.03597
_cell_length_c       16.2894
_cell_angle_alpha    97.2518
_cell_angle_beta     97.408
_cell_angle_gamma    105.564

_space_group_name_H-M_alt    "P 1"
_space_group_IT_number       1

loop_
  _space_group_symop_operation_xyz
  'x, y, z'

loop_
  _atom_site_type_symbol
  _atom_site_label
  _atom_site_symmetry_multiplicity
  _atom_site_fract_x
  _atom_site_fract_y
  _atom_site_fract_z
  _atom_site_occupancy
  Zn  Zn1       1.0  0.09347  0.85206  0.94238  1.0000
  Zn  Zn2       1.0  0.14767  0.90617  0.55821  1.0000
  Zn  Zn3       1.0  0.90653  0.14795  0.05760  1.0000
  Zn  Zn4       1.0  0.85229  0.09381  0.44182  1.0000
  H   H1        1.0  0.15282  0.50972  0.83369  1.0000
  H   H2        1.0  0.48873  0.84625  0.66715  1.0000
  H   H3        1.0  0.84718  0.49030  0.16632  1.0000
  H   H4        1.0  0.51128  0.15378  0.33284  1.0000
  H   H5        1.0  0.39304  0.30509  0.83558  1.0000
  H   H6        1.0  0.69253  0.60555  0.66514  1.0000
  H   H7        1.0  0.60695  0.69491  0.16440  1.0000
  H   H8        1.0  0.30742  0.39443  0.33486  1.0000
  H   H9        1.0  0.83832  0.46676  0.91423  1.0000
  H   H10       1.0  0.53277  0.16236  0.58569  1.0000
  H   H11       1.0  0.16169  0.53327  0.08578  1.0000
  H   H12       1.0  0.46719  0.83762  0.41430  1.0000
  H   H13       1.0  0.75555  0.62165  0.97370  1.0000
  H   H14       1.0  0.37487  0.24526  0.52737  1.0000
  H   H15       1.0  0.24444  0.37836  0.02631  1.0000
  H   H16       1.0  0.62505  0.75476  0.47265  1.0000
  C   C1        1.0  0.90400  0.11384  0.85910  1.0000
  C   C2        1.0  0.88717  0.09772  0.64118  1.0000
  C   C3        1.0  0.09603  0.88620  0.14091  1.0000
  C   C4        1.0  0.11278  0.90224  0.35882  1.0000
  C   C5        1.0  0.98077  0.00480  0.79272  1.0000
  C   C6        1.0  0.99599  0.02029  0.70770  1.0000
  C   C7        1.0  0.01926  0.99521  0.20730  1.0000
  C   C8        1.0  0.00401  0.97971  0.29230  1.0000
  C   C9        1.0  0.17217  0.82712  0.75024  1.0000
  C   C10       1.0  0.82785  0.17287  0.24976  1.0000
  C   C11       1.0  0.30147  0.69697  0.75036  1.0000
  C   C12       1.0  0.69854  0.30306  0.24965  1.0000
  C   C13       1.0  0.27569  0.54237  0.79852  1.0000
  C   C14       1.0  0.45630  0.72357  0.70248  1.0000
  C   C15       1.0  0.72433  0.45764  0.20149  1.0000
  C   C16       1.0  0.54370  0.27645  0.29752  1.0000
  C   C17       1.0  0.40553  0.42357  0.79738  1.0000
  C   C18       1.0  0.57427  0.59289  0.70341  1.0000
  C   C19       1.0  0.59446  0.57642  0.20262  1.0000
  C   C20       1.0  0.42572  0.40713  0.29660  1.0000
  C   C21       1.0  0.49715  0.88801  0.00217  1.0000
  C   C22       1.0  0.11195  0.50295  0.49838  1.0000
  C   C23       1.0  0.50284  0.11198  0.99783  1.0000
  C   C24       1.0  0.88809  0.49706  0.50164  1.0000
  N   N1        1.0  0.08659  0.87901  0.81650  1.0000
  N   N2        1.0  0.12109  0.91377  0.68401  1.0000
  N   N3        1.0  0.91343  0.12101  0.18351  1.0000
  N   N4        1.0  0.87892  0.08628  0.31599  1.0000
  N   N5        1.0  0.54780  0.44745  0.74964  1.0000
  N   N6        1.0  0.45220  0.55250  0.25034  1.0000
  O   O1        1.0  0.90723  0.03991  0.92842  1.0000
  O   O2        1.0  0.95978  0.09186  0.57164  1.0000
  O   O3        1.0  0.09276  0.96011  0.07157  1.0000
  O   O4        1.0  0.04020  0.90814  0.42838  1.0000
  O   O5        1.0  0.85231  0.26590  0.84814  1.0000
  O   O6        1.0  0.73693  0.15276  0.65207  1.0000
  O   O7        1.0  0.14775  0.73415  0.15186  1.0000
  O   O8        1.0  0.26303  0.84720  0.34794  1.0000
  O   O9        1.0  0.33195  0.75388  0.97403  1.0000
  O   O10       1.0  0.24579  0.66820  0.52675  1.0000
  O   O11       1.0  0.66804  0.24613  0.02597  1.0000
  O   O12       1.0  0.75425  0.33182  0.47326  1.0000
  O   O13       1.0  0.65551  0.85389  0.03295  1.0000
  O   O14       1.0  0.14683  0.34469  0.46814  1.0000
  O   O15       1.0  0.34449  0.14612  0.96706  1.0000
  O   O16       1.0  0.85320  0.65530  0.53189  1.0000
  O   O17       1.0  0.85713  0.60855  0.93956  1.0000
  O   O18       1.0  0.39136  0.13964  0.55878  1.0000
  O   O19       1.0  0.14285  0.39148  0.06044  1.0000
  O   O20       1.0  0.60867  0.86014  0.44107  1.0000
