data_image0
_chemical_formula_structural       H28Pb4C20N4O18
_chemical_formula_sum              "H28 Pb4 C20 N4 O18"
_cell_length_a       8.45403
_cell_length_b       8.46055
_cell_length_c       11.0044
_cell_angle_alpha    71.2903
_cell_angle_beta     89.0228
_cell_angle_gamma    76.6431

_space_group_name_H-M_alt    "P 1"
_space_group_IT_number       1

loop_
  _space_group_symop_operation_xyz
  'x, y, z'

loop_
  _atom_site_type_symbol
  _atom_site_label
  _atom_site_symmetry_multiplicity
  _atom_site_fract_x
  _atom_site_fract_y
  _atom_site_fract_z
  _atom_site_occupancy
  H   H1        1.0  0.65849  0.02569  0.84935  1.0000
  H   H2        1.0  0.34151  0.97431  0.15065  1.0000
  H   H3        1.0  0.76071  0.02201  0.98964  1.0000
  H   H4        1.0  0.23930  0.97799  0.01036  1.0000
  H   H5        1.0  0.90057  0.44727  0.98757  1.0000
  H   H6        1.0  0.09943  0.55273  0.01243  1.0000
  H   H7        1.0  0.95762  0.29556  0.90651  1.0000
  H   H8        1.0  0.04238  0.70444  0.09349  1.0000
  H   H9        1.0  0.07632  0.44134  0.74372  1.0000
  H   H10       1.0  0.92368  0.55866  0.25628  1.0000
  H   H11       1.0  0.05892  0.62349  0.79671  1.0000
  H   H12       1.0  0.94108  0.37651  0.20329  1.0000
  H   H13       1.0  0.72094  0.25749  0.04859  1.0000
  H   H14       1.0  0.27907  0.74251  0.95141  1.0000
  H   H15       1.0  0.60755  0.46031  0.95030  1.0000
  H   H16       1.0  0.39245  0.53969  0.04971  1.0000
  H   H17       1.0  0.77377  0.81428  0.72350  1.0000
  H   H18       1.0  0.22622  0.18572  0.27650  1.0000
  H   H19       1.0  0.75766  0.71788  0.88975  1.0000
  H   H20       1.0  0.24234  0.28211  0.11025  1.0000
  H   H21       1.0  0.40783  0.41587  0.86229  1.0000
  H   H22       1.0  0.59216  0.58412  0.13771  1.0000
  H   H23       1.0  0.44320  0.19897  0.96607  1.0000
  H   H24       1.0  0.55680  0.80103  0.03393  1.0000
  H   H25       1.0  0.40372  0.88476  0.41363  1.0000
  H   H26       1.0  0.59628  0.11524  0.58638  1.0000
  H   H27       1.0  0.23029  0.87272  0.46348  1.0000
  H   H28       1.0  0.76970  0.12728  0.53652  1.0000
  Pb  Pb1       1.0  0.69088  0.45677  0.62454  1.0000
  Pb  Pb2       1.0  0.30913  0.54324  0.37545  1.0000
  Pb  Pb3       1.0  0.18855  0.03246  0.65946  1.0000
  Pb  Pb4       1.0  0.81145  0.96754  0.34054  1.0000
  C   C1        1.0  0.98259  0.68460  0.59929  1.0000
  C   C2        1.0  0.01741  0.31540  0.40071  1.0000
  C   C3        1.0  0.73500  0.09188  0.88590  1.0000
  C   C4        1.0  0.26500  0.90812  0.11410  1.0000
  C   C5        1.0  0.86032  0.40359  0.91149  1.0000
  C   C6        1.0  0.13968  0.59641  0.08851  1.0000
  C   C7        1.0  0.89260  0.06987  0.81771  1.0000
  C   C8        1.0  0.10740  0.93013  0.18229  1.0000
  C   C9        1.0  0.99842  0.56744  0.73854  1.0000
  C   C10       1.0  0.00158  0.43256  0.26146  1.0000
  C   C11       1.0  0.70345  0.34816  0.94981  1.0000
  C   C12       1.0  0.29655  0.65183  0.05019  1.0000
  C   C13       1.0  0.73764  0.70566  0.79482  1.0000
  C   C14       1.0  0.26236  0.29434  0.20518  1.0000
  C   C15       1.0  0.39103  0.24034  0.76535  1.0000
  C   C16       1.0  0.60897  0.75966  0.23465  1.0000
  C   C17       1.0  0.55501  0.74131  0.76344  1.0000
  C   C18       1.0  0.44499  0.25869  0.23656  1.0000
  C   C19       1.0  0.46906  0.28223  0.87183  1.0000
  C   C20       1.0  0.53094  0.71777  0.12817  1.0000
  N   N1        1.0  0.64445  0.27182  0.86112  1.0000
  N   N2        1.0  0.35555  0.72818  0.13888  1.0000
  N   N3        1.0  0.83927  0.54288  0.78665  1.0000
  N   N4        1.0  0.16073  0.45712  0.21335  1.0000
  O   O1        1.0  0.07871  0.78251  0.56416  1.0000
  O   O2        1.0  0.92129  0.21749  0.43584  1.0000
  O   O3        1.0  0.91484  0.19656  0.72170  1.0000
  O   O4        1.0  0.08515  0.80344  0.27829  1.0000
  O   O5        1.0  0.87169  0.67633  0.52495  1.0000
  O   O6        1.0  0.12831  0.32368  0.47506  1.0000
  O   O7        1.0  0.45573  0.26038  0.65812  1.0000
  O   O8        1.0  0.54428  0.73961  0.34188  1.0000
  O   O9        1.0  0.50008  0.65728  0.70286  1.0000
  O   O10       1.0  0.49991  0.34272  0.29715  1.0000
  O   O11       1.0  0.25879  0.19261  0.79254  1.0000
  O   O12       1.0  0.74122  0.80739  0.20746  1.0000
  O   O13       1.0  0.99349  0.92608  0.85410  1.0000
  O   O14       1.0  0.00651  0.07393  0.14590  1.0000
  O   O15       1.0  0.46810  0.86209  0.79669  1.0000
  O   O16       1.0  0.53190  0.13791  0.20331  1.0000
  O   O17       1.0  0.30328  0.95145  0.43687  1.0000
  O   O18       1.0  0.69672  0.04855  0.56313  1.0000
