data_image0
_chemical_formula_structural       Zn4H52C32S8N8Cl4O16
_chemical_formula_sum              "Zn4 H52 C32 S8 N8 Cl4 O16"
_cell_length_a       5.81949
_cell_length_b       9.63157
_cell_length_c       22.194
_cell_angle_alpha    90
_cell_angle_beta     90
_cell_angle_gamma    90

_space_group_name_H-M_alt    "P 1"
_space_group_IT_number       1

loop_
  _space_group_symop_operation_xyz
  'x, y, z'

loop_
  _atom_site_type_symbol
  _atom_site_label
  _atom_site_symmetry_multiplicity
  _atom_site_fract_x
  _atom_site_fract_y
  _atom_site_fract_z
  _atom_site_occupancy
  Zn  Zn1       1.0  0.15436  0.11576  0.91400  1.0000
  Zn  Zn2       1.0  0.65437  0.38423  0.08600  1.0000
  Zn  Zn3       1.0  0.84564  0.61577  0.58600  1.0000
  Zn  Zn4       1.0  0.34563  0.88424  0.41400  1.0000
  H   H1        1.0  0.39360  0.40209  0.71208  1.0000
  H   H2        1.0  0.89360  0.09790  0.28792  1.0000
  H   H3        1.0  0.60640  0.90210  0.78792  1.0000
  H   H4        1.0  0.10640  0.59790  0.21208  1.0000
  H   H5        1.0  0.69798  0.42605  0.70289  1.0000
  H   H6        1.0  0.19798  0.07394  0.29711  1.0000
  H   H7        1.0  0.30202  0.92605  0.79711  1.0000
  H   H8        1.0  0.80202  0.57395  0.20289  1.0000
  H   H9        1.0  0.86387  0.04501  0.73615  1.0000
  H   H10       1.0  0.36386  0.45499  0.26385  1.0000
  H   H11       1.0  0.13612  0.54502  0.76385  1.0000
  H   H12       1.0  0.63613  0.95499  0.23615  1.0000
  H   H13       1.0  0.98511  0.20884  0.71164  1.0000
  H   H14       1.0  0.48512  0.29116  0.28836  1.0000
  H   H15       1.0  0.01489  0.70885  0.78836  1.0000
  H   H16       1.0  0.51489  0.79116  0.21164  1.0000
  H   H17       1.0  0.65567  0.42135  0.81191  1.0000
  H   H18       1.0  0.15569  0.07865  0.18809  1.0000
  H   H19       1.0  0.34433  0.92136  0.68809  1.0000
  H   H20       1.0  0.84433  0.57865  0.31191  1.0000
  H   H21       1.0  0.94510  0.26848  0.80669  1.0000
  H   H22       1.0  0.44510  0.23151  0.19331  1.0000
  H   H23       1.0  0.05491  0.76849  0.69331  1.0000
  H   H24       1.0  0.55490  0.73151  0.30669  1.0000
  H   H25       1.0  0.74554  0.14631  0.82312  1.0000
  H   H26       1.0  0.24554  0.35369  0.17688  1.0000
  H   H27       1.0  0.25446  0.64632  0.67687  1.0000
  H   H28       1.0  0.75446  0.85369  0.32313  1.0000
  H   H29       1.0  0.16094  0.88183  0.97542  1.0000
  H   H30       1.0  0.66095  0.61817  0.02458  1.0000
  H   H31       1.0  0.83905  0.38183  0.52458  1.0000
  H   H32       1.0  0.33905  0.11818  0.47542  1.0000
  H   H33       1.0  0.30800  0.84858  0.09618  1.0000
  H   H34       1.0  0.80800  0.65142  0.90382  1.0000
  H   H35       1.0  0.69200  0.34858  0.40382  1.0000
  H   H36       1.0  0.19200  0.15143  0.59618  1.0000
  H   H37       1.0  0.48330  0.99544  0.11579  1.0000
  H   H38       1.0  0.98330  0.50456  0.88420  1.0000
  H   H39       1.0  0.51670  0.49544  0.38421  1.0000
  H   H40       1.0  0.01670  0.00457  0.61580  1.0000
  H   H41       1.0  0.59679  0.01491  0.94312  1.0000
  H   H42       1.0  0.09680  0.48508  0.05688  1.0000
  H   H43       1.0  0.40320  0.51492  0.55688  1.0000
  H   H44       1.0  0.90320  0.98508  0.44312  1.0000
  H   H45       1.0  0.49490  0.84318  0.92809  1.0000
  H   H46       1.0  0.99492  0.65682  0.07191  1.0000
  H   H47       1.0  0.50509  0.34318  0.57191  1.0000
  H   H48       1.0  0.00508  0.15682  0.42809  1.0000
  H   H49       1.0  0.08516  0.03650  0.05318  1.0000
  H   H50       1.0  0.58517  0.46350  0.94682  1.0000
  H   H51       1.0  0.91483  0.53650  0.44682  1.0000
  H   H52       1.0  0.41483  0.96350  0.55318  1.0000
  C   C1        1.0  0.83495  0.15659  0.73115  1.0000
  C   C2        1.0  0.33495  0.34341  0.26885  1.0000
  C   C3        1.0  0.16505  0.65660  0.76885  1.0000
  C   C4        1.0  0.66505  0.84341  0.23115  1.0000
  C   C5        1.0  0.60044  0.32736  0.78771  1.0000
  C   C6        1.0  0.10044  0.17263  0.21230  1.0000
  C   C7        1.0  0.39956  0.82737  0.71229  1.0000
  C   C8        1.0  0.89956  0.67263  0.28771  1.0000
  C   C9        1.0  0.56339  0.35819  0.72111  1.0000
  C   C10       1.0  0.06339  0.14181  0.27889  1.0000
  C   C11       1.0  0.43661  0.85819  0.77889  1.0000
  C   C12       1.0  0.93661  0.64181  0.22111  1.0000
  C   C13       1.0  0.38074  0.27414  0.81882  1.0000
  C   C14       1.0  0.88073  0.22584  0.18118  1.0000
  C   C15       1.0  0.61927  0.77415  0.68118  1.0000
  C   C16       1.0  0.11926  0.72586  0.31883  1.0000
  C   C17       1.0  0.49971  0.92719  0.96135  1.0000
  C   C18       1.0  0.99972  0.57281  0.03864  1.0000
  C   C19       1.0  0.50028  0.42719  0.53864  1.0000
  C   C20       1.0  0.00028  0.07281  0.46136  1.0000
  C   C21       1.0  0.26451  0.02988  0.03752  1.0000
  C   C22       1.0  0.76451  0.47012  0.96248  1.0000
  C   C23       1.0  0.73549  0.52988  0.46248  1.0000
  C   C24       1.0  0.23548  0.97012  0.53752  1.0000
  C   C25       1.0  0.40870  0.93592  0.07855  1.0000
  C   C26       1.0  0.90870  0.56408  0.92145  1.0000
  C   C27       1.0  0.59130  0.43592  0.42145  1.0000
  C   C28       1.0  0.09129  0.06409  0.57855  1.0000
  C   C29       1.0  0.35624  0.17969  0.03346  1.0000
  C   C30       1.0  0.85624  0.32031  0.96654  1.0000
  C   C31       1.0  0.64376  0.67969  0.46654  1.0000
  C   C32       1.0  0.14376  0.82031  0.53346  1.0000
  S   S1        1.0  0.58426  0.18909  0.68563  1.0000
  S   S2        1.0  0.08426  0.31090  0.31437  1.0000
  S   S3        1.0  0.41574  0.68910  0.81436  1.0000
  S   S4        1.0  0.91575  0.81090  0.18564  1.0000
  S   S5        1.0  0.63993  0.86867  0.03138  1.0000
  S   S6        1.0  0.13994  0.63133  0.96862  1.0000
  S   S7        1.0  0.36007  0.36867  0.46862  1.0000
  S   S8        1.0  0.86006  0.13133  0.53138  1.0000
  N   N1        1.0  0.78965  0.22186  0.79160  1.0000
  N   N2        1.0  0.28965  0.27813  0.20840  1.0000
  N   N3        1.0  0.21035  0.72187  0.70840  1.0000
  N   N4        1.0  0.71035  0.77813  0.29160  1.0000
  N   N5        1.0  0.26409  0.96914  0.97662  1.0000
  N   N6        1.0  0.76410  0.53086  0.02338  1.0000
  N   N7        1.0  0.73590  0.46914  0.52338  1.0000
  N   N8        1.0  0.23590  0.03087  0.47662  1.0000
  Cl  Cl1       1.0  0.93966  0.94861  0.85917  1.0000
  Cl  Cl2       1.0  0.43966  0.55138  0.14083  1.0000
  Cl  Cl3       1.0  0.06034  0.44862  0.64083  1.0000
  Cl  Cl4       1.0  0.56034  0.05138  0.35917  1.0000
  O   O1        1.0  0.40205  0.16803  0.85284  1.0000
  O   O2        1.0  0.90205  0.33197  0.14715  1.0000
  O   O3        1.0  0.59795  0.66803  0.64716  1.0000
  O   O4        1.0  0.09795  0.83197  0.35284  1.0000
  O   O5        1.0  0.20065  0.34230  0.80853  1.0000
  O   O6        1.0  0.70066  0.15769  0.19147  1.0000
  O   O7        1.0  0.79934  0.84232  0.69146  1.0000
  O   O8        1.0  0.29935  0.65769  0.30853  1.0000
  O   O9        1.0  0.35804  0.23915  0.98312  1.0000
  O   O10       1.0  0.85805  0.26085  0.01688  1.0000
  O   O11       1.0  0.64196  0.73915  0.51688  1.0000
  O   O12       1.0  0.14195  0.76086  0.48313  1.0000
  O   O13       1.0  0.92289  0.26774  0.91654  1.0000
  O   O14       1.0  0.42289  0.23226  0.08346  1.0000
  O   O15       1.0  0.07711  0.76774  0.58346  1.0000
  O   O16       1.0  0.57711  0.73225  0.41654  1.0000
