data_image0
_chemical_formula_structural       Co2H16C16N8O8
_chemical_formula_sum              "Co2 H16 C16 N8 O8"
_cell_length_a       8.08809
_cell_length_b       8.08812
_cell_length_c       9.12485
_cell_angle_alpha    84.5169
_cell_angle_beta     84.5179
_cell_angle_gamma    78.0908

_space_group_name_H-M_alt    "P 1"
_space_group_IT_number       1

loop_
  _space_group_symop_operation_xyz
  'x, y, z'

loop_
  _atom_site_type_symbol
  _atom_site_label
  _atom_site_symmetry_multiplicity
  _atom_site_fract_x
  _atom_site_fract_y
  _atom_site_fract_z
  _atom_site_occupancy
  Co  Co1       1.0  0.66814  0.37141  0.90111  1.0000
  Co  Co2       1.0  0.37139  0.66812  0.40111  1.0000
  H   H1        1.0  0.87150  0.18852  0.17825  1.0000
  H   H2        1.0  0.18849  0.87153  0.67825  1.0000
  H   H3        1.0  0.21143  0.21314  0.17641  1.0000
  H   H4        1.0  0.21314  0.21145  0.67639  1.0000
  H   H5        1.0  0.00777  0.46939  0.78766  1.0000
  H   H6        1.0  0.46938  0.00775  0.28765  1.0000
  H   H7        1.0  0.86139  0.16502  0.62889  1.0000
  H   H8        1.0  0.16501  0.86137  0.12889  1.0000
  H   H9        1.0  0.83821  0.82465  0.63114  1.0000
  H   H10       1.0  0.82464  0.83820  0.13115  1.0000
  H   H11       1.0  0.56662  0.03279  0.01239  1.0000
  H   H12       1.0  0.03279  0.56659  0.51238  1.0000
  H   H13       1.0  0.66108  0.76689  0.87602  1.0000
  H   H14       1.0  0.76689  0.66106  0.37603  1.0000
  H   H15       1.0  0.27196  0.38080  0.92706  1.0000
  H   H16       1.0  0.38080  0.27195  0.42705  1.0000
  C   C1        1.0  0.95021  0.25037  0.09733  1.0000
  C   C2        1.0  0.25035  0.95022  0.59732  1.0000
  C   C3        1.0  0.11791  0.26143  0.09753  1.0000
  C   C4        1.0  0.26142  0.11792  0.59752  1.0000
  C   C5        1.0  0.01487  0.39649  0.89342  1.0000
  C   C6        1.0  0.39647  0.01487  0.39341  1.0000
  C   C7        1.0  0.79684  0.08714  0.70839  1.0000
  C   C8        1.0  0.08714  0.79681  0.20839  1.0000
  C   C9        1.0  0.78640  0.91926  0.70833  1.0000
  C   C10       1.0  0.91925  0.78638  0.20834  1.0000
  C   C11       1.0  0.64351  0.02454  0.90861  1.0000
  C   C12       1.0  0.02454  0.64349  0.40861  1.0000
  C   C13       1.0  0.49833  0.43725  0.19002  1.0000
  C   C14       1.0  0.43726  0.49832  0.69001  1.0000
  C   C15       1.0  0.53923  0.60329  0.11134  1.0000
  C   C16       1.0  0.60326  0.53920  0.61135  1.0000
  N   N1        1.0  0.70715  0.15095  0.83440  1.0000
  N   N2        1.0  0.15094  0.70713  0.33440  1.0000
  N   N3        1.0  0.68943  0.88303  0.83483  1.0000
  N   N4        1.0  0.88302  0.68942  0.33483  1.0000
  N   N5        1.0  0.88784  0.33512  0.96892  1.0000
  N   N6        1.0  0.33509  0.88784  0.46892  1.0000
  N   N7        1.0  0.15544  0.35385  0.96870  1.0000
  N   N8        1.0  0.35384  0.15544  0.46868  1.0000
  O   O1        1.0  0.61378  0.59209  0.98075  1.0000
  O   O2        1.0  0.59209  0.61377  0.48077  1.0000
  O   O3        1.0  0.42338  0.44821  0.32047  1.0000
  O   O4        1.0  0.44820  0.42338  0.82047  1.0000
  O   O5        1.0  0.53880  0.30320  0.12466  1.0000
  O   O6        1.0  0.30319  0.53878  0.62468  1.0000
  O   O7        1.0  0.49890  0.73733  0.17670  1.0000
  O   O8        1.0  0.73731  0.49888  0.67668  1.0000
