data_image0
_chemical_formula_structural       Co2H16C16N8O8
_chemical_formula_sum              "Co2 H16 C16 N8 O8"
_cell_length_a       8.21841
_cell_length_b       8.21327
_cell_length_c       9.14262
_cell_angle_alpha    84.0712
_cell_angle_beta     84.4466
_cell_angle_gamma    76.1297

_space_group_name_H-M_alt    "P 1"
_space_group_IT_number       1

loop_
  _space_group_symop_operation_xyz
  'x, y, z'

loop_
  _atom_site_type_symbol
  _atom_site_label
  _atom_site_symmetry_multiplicity
  _atom_site_fract_x
  _atom_site_fract_y
  _atom_site_fract_z
  _atom_site_occupancy
  Co  Co1       1.0  0.64908  0.34332  0.75491  1.0000
  Co  Co2       1.0  0.35038  0.64929  0.25040  1.0000
  H   H1        1.0  0.20457  0.21488  0.02936  1.0000
  H   H2        1.0  0.79264  0.79604  0.46940  1.0000
  H   H3        1.0  0.80993  0.79746  0.97423  1.0000
  H   H4        1.0  0.20137  0.18883  0.52528  1.0000
  H   H5        1.0  0.87363  0.18150  0.03330  1.0000
  H   H6        1.0  0.81872  0.12956  0.46673  1.0000
  H   H7        1.0  0.14061  0.82991  0.97465  1.0000
  H   H8        1.0  0.17045  0.85754  0.52592  1.0000
  H   H9        1.0  0.25447  0.37813  0.77517  1.0000
  H   H10       1.0  0.63084  0.74070  0.72368  1.0000
  H   H11       1.0  0.75568  0.63342  0.22466  1.0000
  H   H12       1.0  0.36476  0.24451  0.27550  1.0000
  H   H13       1.0  0.99433  0.44988  0.63520  1.0000
  H   H14       1.0  0.54747  0.00079  0.85977  1.0000
  H   H15       1.0  0.01729  0.55332  0.36763  1.0000
  H   H16       1.0  0.44505  0.98328  0.13353  1.0000
  C   C1        1.0  0.11106  0.25756  0.94971  1.0000
  C   C2        1.0  0.74677  0.88902  0.54843  1.0000
  C   C3        1.0  0.90237  0.75329  0.05480  1.0000
  C   C4        1.0  0.24611  0.09655  0.44535  1.0000
  C   C5        1.0  0.94774  0.24228  0.95023  1.0000
  C   C6        1.0  0.75817  0.05356  0.54831  1.0000
  C   C7        1.0  0.06575  0.76804  0.05599  1.0000
  C   C8        1.0  0.23196  0.93284  0.44459  1.0000
  C   C9        1.0  0.00415  0.38051  0.74265  1.0000
  C   C10       1.0  0.61773  0.99322  0.75306  1.0000
  C   C11       1.0  0.00749  0.62460  0.26120  1.0000
  C   C12       1.0  0.37447  0.99242  0.23980  1.0000
  C   C13       1.0  0.41046  0.49072  0.53723  1.0000
  C   C14       1.0  0.51453  0.58993  0.96583  1.0000
  C   C15       1.0  0.57936  0.51650  0.46053  1.0000
  C   C16       1.0  0.48144  0.42238  0.04011  1.0000
  N   N1        1.0  0.88269  0.31928  0.81987  1.0000
  N   N2        1.0  0.67705  0.11725  0.67713  1.0000
  N   N3        1.0  0.12982  0.68711  0.18567  1.0000
  N   N4        1.0  0.31268  0.86939  0.31542  1.0000
  N   N5        1.0  0.14335  0.34557  0.81816  1.0000
  N   N6        1.0  0.65766  0.85406  0.67845  1.0000
  N   N7        1.0  0.86859  0.66279  0.18468  1.0000
  N   N8        1.0  0.33604  0.13114  0.31575  1.0000
  O   O1        1.0  0.41480  0.43109  0.67141  1.0000
  O   O2        1.0  0.58789  0.58252  0.83684  1.0000
  O   O3        1.0  0.57294  0.59071  0.32958  1.0000
  O   O4        1.0  0.40754  0.42719  0.17037  1.0000
  O   O5        1.0  0.28206  0.52937  0.46466  1.0000
  O   O6        1.0  0.46842  0.71966  0.03590  1.0000
  O   O7        1.0  0.71037  0.46498  0.52863  1.0000
  O   O8        1.0  0.52729  0.29212  0.97034  1.0000
