data_image0
_chemical_formula_structural       Cu2Ag4Mo2H12C20N8O12F8
_chemical_formula_sum              "Cu2 Ag4 Mo2 H12 C20 N8 O12 F8"
_cell_length_a       7.25627
_cell_length_b       8.1416
_cell_length_c       13.8689
_cell_angle_alpha    89.9991
_cell_angle_beta     93.619
_cell_angle_gamma    90.0001

_space_group_name_H-M_alt    "P 1"
_space_group_IT_number       1

loop_
  _space_group_symop_operation_xyz
  'x, y, z'

loop_
  _atom_site_type_symbol
  _atom_site_label
  _atom_site_symmetry_multiplicity
  _atom_site_fract_x
  _atom_site_fract_y
  _atom_site_fract_z
  _atom_site_occupancy
  Cu  Cu1       1.0  0.50003  0.49994  0.50001  1.0000
  Cu  Cu2       1.0  0.99999  0.99998  0.99999  1.0000
  Ag  Ag1       1.0  0.04703  0.80939  0.49037  1.0000
  Ag  Ag2       1.0  0.45295  0.30937  0.00964  1.0000
  Ag  Ag3       1.0  0.95292  0.19068  0.50963  1.0000
  Ag  Ag4       1.0  0.54705  0.69067  0.99036  1.0000
  Mo  Mo1       1.0  0.49997  0.99995  0.50000  1.0000
  Mo  Mo2       1.0  1.00000  0.49998  0.00000  1.0000
  H   H1        1.0  0.80571  0.70632  0.80414  1.0000
  H   H2        1.0  0.69428  0.20632  0.69586  1.0000
  H   H3        1.0  0.19431  0.29368  0.19586  1.0000
  H   H4        1.0  0.30569  0.79368  0.30414  1.0000
  H   H5        1.0  0.25244  0.59350  0.83439  1.0000
  H   H6        1.0  0.24755  0.09352  0.66561  1.0000
  H   H7        1.0  0.74757  0.40656  0.16560  1.0000
  H   H8        1.0  0.75245  0.90660  0.33440  1.0000
  H   H9        1.0  0.22080  0.49737  0.65984  1.0000
  H   H10       1.0  0.27921  0.99740  0.84015  1.0000
  H   H11       1.0  0.77924  0.50258  0.34016  1.0000
  H   H12       1.0  0.72077  0.00261  0.15984  1.0000
  C   C1        1.0  0.65789  0.60775  0.67661  1.0000
  C   C2        1.0  0.84212  0.10777  0.82339  1.0000
  C   C3        1.0  0.34216  0.39221  0.32340  1.0000
  C   C4        1.0  0.15786  0.89222  0.17660  1.0000
  C   C5        1.0  0.67479  0.66057  0.77221  1.0000
  C   C6        1.0  0.82521  0.16058  0.72779  1.0000
  C   C7        1.0  0.32524  0.33942  0.22779  1.0000
  C   C8        1.0  0.17477  0.83944  0.27221  1.0000
  C   C9        1.0  0.36837  0.59837  0.78827  1.0000
  C   C10       1.0  0.13162  0.09839  0.71172  1.0000
  C   C11       1.0  0.63165  0.40165  0.21172  1.0000
  C   C12       1.0  0.86837  0.90168  0.28828  1.0000
  C   C13       1.0  0.35087  0.54280  0.69307  1.0000
  C   C14       1.0  0.14913  0.04282  0.80693  1.0000
  C   C15       1.0  0.64916  0.45717  0.30694  1.0000
  C   C16       1.0  0.85085  0.95720  0.19306  1.0000
  C   C17       1.0  0.80656  0.62152  0.60651  1.0000
  C   C18       1.0  0.69344  0.12152  0.89349  1.0000
  C   C19       1.0  0.19346  0.37845  0.39349  1.0000
  C   C20       1.0  0.30654  0.87847  0.10651  1.0000
  N   N1        1.0  0.49573  0.54970  0.63828  1.0000
  N   N2        1.0  0.00428  0.04972  0.86172  1.0000
  N   N3        1.0  0.50432  0.45024  0.36173  1.0000
  N   N4        1.0  0.99570  0.95026  0.13827  1.0000
  N   N5        1.0  0.52940  0.65733  0.82751  1.0000
  N   N6        1.0  0.97060  0.15735  0.67248  1.0000
  N   N7        1.0  0.47062  0.34270  0.17248  1.0000
  N   N8        1.0  0.02939  0.84273  0.32752  1.0000
  O   O1        1.0  0.76430  0.56414  0.52136  1.0000
  O   O2        1.0  0.73571  0.06415  0.97864  1.0000
  O   O3        1.0  0.23574  0.43581  0.47865  1.0000
  O   O4        1.0  0.26428  0.93584  0.02136  1.0000
  O   O5        1.0  0.95643  0.69139  0.63170  1.0000
  O   O6        1.0  0.54357  0.19138  0.86829  1.0000
  O   O7        1.0  0.04359  0.30865  0.36829  1.0000
  O   O8        1.0  0.45642  0.80862  0.13171  1.0000
  O   O9        1.0  0.25420  0.03158  0.50699  1.0000
  O   O10       1.0  0.24580  0.53153  0.99300  1.0000
  O   O11       1.0  0.74581  0.96856  0.49300  1.0000
  O   O12       1.0  0.75418  0.46853  0.00699  1.0000
  F   F1        1.0  0.44992  0.77863  0.45167  1.0000
  F   F2        1.0  0.05005  0.27866  0.04835  1.0000
  F   F3        1.0  0.55005  0.22129  0.54836  1.0000
  F   F4        1.0  0.94994  0.72132  0.95165  1.0000
  F   F5        1.0  0.51402  0.92359  0.63196  1.0000
  F   F6        1.0  0.98595  0.42364  0.86804  1.0000
  F   F7        1.0  0.48593  0.07623  0.36801  1.0000
  F   F8        1.0  0.01405  0.57630  0.13198  1.0000
