data_image0
_chemical_formula_structural       Cu2Ag4H12W2C20N8O12F8
_chemical_formula_sum              "Cu2 Ag4 H12 W2 C20 N8 O12 F8"
_cell_length_a       7.30206
_cell_length_b       8.20935
_cell_length_c       13.8454
_cell_angle_alpha    89.9978
_cell_angle_beta     93.5537
_cell_angle_gamma    89.9997

_space_group_name_H-M_alt    "P 1"
_space_group_IT_number       1

loop_
  _space_group_symop_operation_xyz
  'x, y, z'

loop_
  _atom_site_type_symbol
  _atom_site_label
  _atom_site_symmetry_multiplicity
  _atom_site_fract_x
  _atom_site_fract_y
  _atom_site_fract_z
  _atom_site_occupancy
  Cu  Cu1       1.0  1.00000  0.00001  1.00000  1.0000
  Cu  Cu2       1.0  0.50000  0.49999  0.50000  1.0000
  Ag  Ag1       1.0  0.54487  0.31118  0.99133  1.0000
  Ag  Ag2       1.0  0.95515  0.81119  0.50868  1.0000
  Ag  Ag3       1.0  0.45515  0.68880  0.00867  1.0000
  Ag  Ag4       1.0  0.04486  0.18881  0.49132  1.0000
  H   H1        1.0  0.30433  0.20743  0.30320  1.0000
  H   H2        1.0  0.19564  0.70745  0.19679  1.0000
  H   H3        1.0  0.69566  0.79256  0.69680  1.0000
  H   H4        1.0  0.80437  0.29253  0.80321  1.0000
  H   H5        1.0  0.75474  0.09663  0.33488  1.0000
  H   H6        1.0  0.74526  0.59663  0.16512  1.0000
  H   H7        1.0  0.24526  0.90337  0.66512  1.0000
  H   H8        1.0  0.25475  0.40334  0.83489  1.0000
  H   H9        1.0  0.72275  0.99904  0.16033  1.0000
  H   H10       1.0  0.77723  0.49902  0.33967  1.0000
  H   H11       1.0  0.27724  0.00098  0.83966  1.0000
  H   H12       1.0  0.22278  0.50096  0.66034  1.0000
  W   W1        1.0  0.00001  0.50001  0.00000  1.0000
  W   W2        1.0  0.50000  0.00000  0.50000  1.0000
  C   C1        1.0  0.30533  0.11947  0.10606  1.0000
  C   C2        1.0  0.19463  0.61948  0.39394  1.0000
  C   C3        1.0  0.69465  0.88053  0.89393  1.0000
  C   C4        1.0  0.80536  0.38053  0.60606  1.0000
  C   C5        1.0  0.85208  0.04414  0.19335  1.0000
  C   C6        1.0  0.64791  0.54414  0.30665  1.0000
  C   C7        1.0  0.14790  0.95588  0.80664  1.0000
  C   C8        1.0  0.35210  0.45584  0.69336  1.0000
  C   C9        1.0  0.17411  0.16146  0.27183  1.0000
  C   C10       1.0  0.32587  0.66149  0.22817  1.0000
  C   C11       1.0  0.82588  0.83855  0.72816  1.0000
  C   C12       1.0  0.67414  0.33850  0.77183  1.0000
  C   C13       1.0  0.86964  0.10053  0.28841  1.0000
  C   C14       1.0  0.63035  0.60051  0.21158  1.0000
  C   C15       1.0  0.13036  0.89948  0.71159  1.0000
  C   C16       1.0  0.36966  0.39947  0.78843  1.0000
  C   C17       1.0  0.15750  0.10717  0.17646  1.0000
  C   C18       1.0  0.34248  0.60717  0.32354  1.0000
  C   C19       1.0  0.84248  0.89285  0.82354  1.0000
  C   C20       1.0  0.65753  0.39283  0.67646  1.0000
  N   N1        1.0  0.99619  0.04937  0.13842  1.0000
  N   N2        1.0  0.50380  0.54937  0.36157  1.0000
  N   N3        1.0  0.00380  0.95065  0.86157  1.0000
  N   N4        1.0  0.49621  0.45062  0.63843  1.0000
  N   N5        1.0  0.02969  0.15927  0.32738  1.0000
  N   N6        1.0  0.47030  0.65927  0.17263  1.0000
  N   N7        1.0  0.97030  0.84074  0.67262  1.0000
  N   N8        1.0  0.52971  0.34071  0.82738  1.0000
  O   O1        1.0  0.26269  0.06274  0.02080  1.0000
  O   O2        1.0  0.23730  0.56273  0.47921  1.0000
  O   O3        1.0  0.73730  0.93728  0.97920  1.0000
  O   O4        1.0  0.76269  0.43726  0.52080  1.0000
  O   O5        1.0  0.45463  0.18791  0.13123  1.0000
  O   O6        1.0  0.04535  0.68793  0.36877  1.0000
  O   O7        1.0  0.54537  0.81209  0.86877  1.0000
  O   O8        1.0  0.95466  0.31208  0.63123  1.0000
  O   O9        1.0  0.24752  0.46980  0.99310  1.0000
  O   O10       1.0  0.25248  0.96979  0.50691  1.0000
  O   O11       1.0  0.75249  0.53019  0.00690  1.0000
  O   O12       1.0  0.74751  0.03020  0.49309  1.0000
  F   F1        1.0  0.04708  0.71952  0.04895  1.0000
  F   F2        1.0  0.45290  0.21950  0.45104  1.0000
  F   F3        1.0  0.95295  0.28050  0.95103  1.0000
  F   F4        1.0  0.54708  0.78050  0.54896  1.0000
  F   F5        1.0  0.01410  0.42302  0.13215  1.0000
  F   F6        1.0  0.48589  0.92302  0.36785  1.0000
  F   F7        1.0  0.98590  0.57700  0.86785  1.0000
  F   F8        1.0  0.51410  0.07698  0.63215  1.0000
