data_image0
_chemical_formula_structural       U4H24C20O24
_chemical_formula_sum              "U4 H24 C20 O24"
_cell_length_a       5.95773
_cell_length_b       9.46037
_cell_length_c       13.9432
_cell_angle_alpha    90.001
_cell_angle_beta     88.7488
_cell_angle_gamma    90.001

_space_group_name_H-M_alt    "P 1"
_space_group_IT_number       1

loop_
  _space_group_symop_operation_xyz
  'x, y, z'

loop_
  _atom_site_type_symbol
  _atom_site_label
  _atom_site_symmetry_multiplicity
  _atom_site_fract_x
  _atom_site_fract_y
  _atom_site_fract_z
  _atom_site_occupancy
  U   U1        1.0  0.93217  0.21652  0.49140  1.0000
  U   U2        1.0  0.06778  0.71651  0.00860  1.0000
  U   U3        1.0  0.06779  0.78349  0.50859  1.0000
  U   U4        1.0  0.93220  0.28351  0.99141  1.0000
  H   H1        1.0  0.59175  0.83328  0.31325  1.0000
  H   H2        1.0  0.40824  0.33328  0.18675  1.0000
  H   H3        1.0  0.40824  0.16671  0.68674  1.0000
  H   H4        1.0  0.59177  0.66672  0.81324  1.0000
  H   H5        1.0  0.84282  0.85876  0.24898  1.0000
  H   H6        1.0  0.15719  0.35878  0.25101  1.0000
  H   H7        1.0  0.15718  0.14124  0.75101  1.0000
  H   H8        1.0  0.84281  0.64124  0.74899  1.0000
  H   H9        1.0  0.57435  0.90142  0.13290  1.0000
  H   H10       1.0  0.42563  0.40142  0.36710  1.0000
  H   H11       1.0  0.42562  0.09856  0.86709  1.0000
  H   H12       1.0  0.57437  0.59857  0.63290  1.0000
  H   H13       1.0  0.64468  0.07558  0.16724  1.0000
  H   H14       1.0  0.35536  0.57559  0.33274  1.0000
  H   H15       1.0  0.35535  0.92443  0.83274  1.0000
  H   H16       1.0  0.64466  0.42443  0.66726  1.0000
  H   H17       1.0  0.24427  0.90996  0.25077  1.0000
  H   H18       1.0  0.75576  0.40992  0.24925  1.0000
  H   H19       1.0  0.75573  0.09007  0.74924  1.0000
  H   H20       1.0  0.24428  0.59006  0.75076  1.0000
  H   H21       1.0  0.29188  0.09463  0.26563  1.0000
  H   H22       1.0  0.70820  0.59458  0.23438  1.0000
  H   H23       1.0  0.70815  0.90541  0.73437  1.0000
  H   H24       1.0  0.29186  0.40540  0.76563  1.0000
  C   C1        1.0  0.76648  0.01675  0.34986  1.0000
  C   C2        1.0  0.23350  0.51675  0.15013  1.0000
  C   C3        1.0  0.23349  0.98325  0.65013  1.0000
  C   C4        1.0  0.76653  0.48326  0.84986  1.0000
  C   C5        1.0  0.69162  0.91466  0.27539  1.0000
  C   C6        1.0  0.30838  0.41465  0.22460  1.0000
  C   C7        1.0  0.30838  0.08534  0.72461  1.0000
  C   C8        1.0  0.69163  0.58535  0.77539  1.0000
  C   C9        1.0  0.56414  0.97741  0.19208  1.0000
  C   C10       1.0  0.43587  0.47739  0.30791  1.0000
  C   C11       1.0  0.43588  0.02260  0.80790  1.0000
  C   C12       1.0  0.56413  0.52261  0.69209  1.0000
  C   C13       1.0  0.31508  0.00534  0.21638  1.0000
  C   C14       1.0  0.68495  0.50529  0.28362  1.0000
  C   C15       1.0  0.68494  0.99469  0.78361  1.0000
  C   C16       1.0  0.31509  0.49469  0.71639  1.0000
  C   C17       1.0  0.18782  0.03001  0.12587  1.0000
  C   C18       1.0  0.81217  0.52998  0.37416  1.0000
  C   C19       1.0  0.81219  0.97001  0.87415  1.0000
  C   C20       1.0  0.18783  0.47001  0.62585  1.0000
  O   O1        1.0  0.18187  0.22948  0.41660  1.0000
  O   O2        1.0  0.81809  0.72947  0.08341  1.0000
  O   O3        1.0  0.81811  0.77051  0.58341  1.0000
  O   O4        1.0  0.18187  0.27050  0.91658  1.0000
  O   O5        1.0  0.68209  0.19728  0.56596  1.0000
  O   O6        1.0  0.31789  0.69730  0.93406  1.0000
  O   O7        1.0  0.31791  0.80273  0.43405  1.0000
  O   O8        1.0  0.68209  0.30273  0.06595  1.0000
  O   O9        1.0  0.88180  0.97039  0.42191  1.0000
  O   O10       1.0  0.11818  0.47040  0.07808  1.0000
  O   O11       1.0  0.11817  0.02958  0.57809  1.0000
  O   O12       1.0  0.88183  0.52959  0.92191  1.0000
  O   O13       1.0  0.72754  0.14807  0.34659  1.0000
  O   O14       1.0  0.27247  0.64807  0.15341  1.0000
  O   O15       1.0  0.27245  0.85193  0.65340  1.0000
  O   O16       1.0  0.72754  0.35194  0.84660  1.0000
  O   O17       1.0  0.18203  0.92990  0.06427  1.0000
  O   O18       1.0  0.81789  0.42989  0.43575  1.0000
  O   O19       1.0  0.81787  0.07009  0.93573  1.0000
  O   O20       1.0  0.18210  0.57008  0.56427  1.0000
  O   O21       1.0  0.09231  0.14830  0.11182  1.0000
  O   O22       1.0  0.90771  0.64826  0.38819  1.0000
  O   O23       1.0  0.90766  0.85172  0.88819  1.0000
  O   O24       1.0  0.09233  0.35171  0.61182  1.0000
