data_image0
_chemical_formula_structural       Zn4H16C32N16O8
_chemical_formula_sum              "Zn4 H16 C32 N16 O8"
_cell_length_a       4.89753
_cell_length_b       10.5103
_cell_length_c       17.0336
_cell_angle_alpha    90
_cell_angle_beta     90
_cell_angle_gamma    97.9681

_space_group_name_H-M_alt    "P 1"
_space_group_IT_number       1

loop_
  _space_group_symop_operation_xyz
  'x, y, z'

loop_
  _atom_site_type_symbol
  _atom_site_label
  _atom_site_symmetry_multiplicity
  _atom_site_fract_x
  _atom_site_fract_y
  _atom_site_fract_z
  _atom_site_occupancy
  Zn  Zn1       1.0  0.20358  0.64796  0.65940  1.0000
  Zn  Zn2       1.0  0.79642  0.85204  0.15940  1.0000
  Zn  Zn3       1.0  0.79642  0.35204  0.34060  1.0000
  Zn  Zn4       1.0  0.20358  0.14796  0.84060  1.0000
  H   H1        1.0  0.36662  0.82955  0.53086  1.0000
  H   H2        1.0  0.63338  0.67045  0.03086  1.0000
  H   H3        1.0  0.63338  0.17045  0.46914  1.0000
  H   H4        1.0  0.36662  0.32955  0.96914  1.0000
  H   H5        1.0  0.21370  0.88792  0.39776  1.0000
  H   H6        1.0  0.78630  0.61208  0.89776  1.0000
  H   H7        1.0  0.78630  0.11208  0.60224  1.0000
  H   H8        1.0  0.21370  0.38792  0.10224  1.0000
  H   H9        1.0  0.38306  0.78942  0.27982  1.0000
  H   H10       1.0  0.61694  0.71058  0.77982  1.0000
  H   H11       1.0  0.61694  0.21058  0.72018  1.0000
  H   H12       1.0  0.38306  0.28942  0.22018  1.0000
  H   H13       1.0  0.88560  0.57803  0.42653  1.0000
  H   H14       1.0  0.11440  0.92197  0.92652  1.0000
  H   H15       1.0  0.11440  0.42197  0.57347  1.0000
  H   H16       1.0  0.88560  0.07803  0.07348  1.0000
  C   C1        1.0  0.73436  0.66006  0.56429  1.0000
  C   C2        1.0  0.26564  0.83994  0.06429  1.0000
  C   C3        1.0  0.26564  0.33994  0.43571  1.0000
  C   C4        1.0  0.73436  0.16006  0.93571  1.0000
  C   C5        1.0  0.76712  0.62188  0.27550  1.0000
  C   C6        1.0  0.23287  0.87812  0.77550  1.0000
  C   C7        1.0  0.23288  0.37812  0.72450  1.0000
  C   C8        1.0  0.76712  0.12188  0.22450  1.0000
  C   C9        1.0  0.62625  0.69462  0.48643  1.0000
  C   C10       1.0  0.37375  0.80538  0.98643  1.0000
  C   C11       1.0  0.37375  0.30538  0.51357  1.0000
  C   C12       1.0  0.62625  0.19462  0.01357  1.0000
  C   C13       1.0  0.44140  0.78443  0.47900  1.0000
  C   C14       1.0  0.55860  0.71557  0.97900  1.0000
  C   C15       1.0  0.55860  0.21557  0.52100  1.0000
  C   C16       1.0  0.44140  0.28443  0.02100  1.0000
  C   C17       1.0  0.35769  0.81851  0.40450  1.0000
  C   C18       1.0  0.64231  0.68149  0.90450  1.0000
  C   C19       1.0  0.64231  0.18149  0.59550  1.0000
  C   C20       1.0  0.35769  0.31851  0.09550  1.0000
  C   C21       1.0  0.45576  0.76356  0.33745  1.0000
  C   C22       1.0  0.54424  0.73644  0.83745  1.0000
  C   C23       1.0  0.54424  0.23644  0.66255  1.0000
  C   C24       1.0  0.45576  0.26356  0.16255  1.0000
  C   C25       1.0  0.64557  0.67533  0.34437  1.0000
  C   C26       1.0  0.35443  0.82467  0.84437  1.0000
  C   C27       1.0  0.35443  0.32467  0.65563  1.0000
  C   C28       1.0  0.64557  0.17533  0.15563  1.0000
  C   C29       1.0  0.73082  0.64216  0.41918  1.0000
  C   C30       1.0  0.26918  0.85785  0.91918  1.0000
  C   C31       1.0  0.26918  0.35785  0.58082  1.0000
  C   C32       1.0  0.73083  0.14216  0.08082  1.0000
  N   N1        1.0  0.84999  0.50495  0.27142  1.0000
  N   N2        1.0  0.15001  0.99505  0.77142  1.0000
  N   N3        1.0  0.15001  0.49505  0.72858  1.0000
  N   N4        1.0  0.84999  0.00495  0.22858  1.0000
  N   N5        1.0  0.96301  0.49418  0.19942  1.0000
  N   N6        1.0  0.03699  0.00582  0.69942  1.0000
  N   N7        1.0  0.03699  0.50582  0.80058  1.0000
  N   N8        1.0  0.96301  0.99418  0.30058  1.0000
  N   N9        1.0  0.95024  0.59920  0.16046  1.0000
  N   N10       1.0  0.04976  0.90080  0.66046  1.0000
  N   N11       1.0  0.04977  0.40080  0.83954  1.0000
  N   N12       1.0  0.95024  0.09920  0.33954  1.0000
  N   N13       1.0  0.82924  0.68134  0.20650  1.0000
  N   N14       1.0  0.17076  0.81866  0.70650  1.0000
  N   N15       1.0  0.17076  0.31866  0.79350  1.0000
  N   N16       1.0  0.82924  0.18134  0.29350  1.0000
  O   O1        1.0  0.59657  0.66261  0.62750  1.0000
  O   O2        1.0  0.40343  0.83739  0.12750  1.0000
  O   O3        1.0  0.40343  0.33739  0.37250  1.0000
  O   O4        1.0  0.59657  0.16261  0.87250  1.0000
  O   O5        1.0  0.97895  0.63016  0.56374  1.0000
  O   O6        1.0  0.02105  0.86984  0.06374  1.0000
  O   O7        1.0  0.02105  0.36984  0.43626  1.0000
  O   O8        1.0  0.97895  0.13016  0.93626  1.0000
