data_image0
_chemical_formula_structural       Zn4H32C36O24
_chemical_formula_sum              "Zn4 H32 C36 O24"
_cell_length_a       6.78662
_cell_length_b       8.02045
_cell_length_c       17.5247
_cell_angle_alpha    94.0587
_cell_angle_beta     90.0001
_cell_angle_gamma    89.9999

_space_group_name_H-M_alt    "P 1"
_space_group_IT_number       1

loop_
  _space_group_symop_operation_xyz
  'x, y, z'

loop_
  _atom_site_type_symbol
  _atom_site_label
  _atom_site_symmetry_multiplicity
  _atom_site_fract_x
  _atom_site_fract_y
  _atom_site_fract_z
  _atom_site_occupancy
  Zn  Zn1       1.0  0.56476  0.55735  0.77070  1.0000
  Zn  Zn2       1.0  0.06476  0.94265  0.72930  1.0000
  Zn  Zn3       1.0  0.43524  0.44265  0.22930  1.0000
  Zn  Zn4       1.0  0.93524  0.05735  0.27070  1.0000
  H   H1        1.0  0.36313  0.26126  0.74229  1.0000
  H   H2        1.0  0.86313  0.23874  0.75771  1.0000
  H   H3        1.0  0.63687  0.73874  0.25771  1.0000
  H   H4        1.0  0.13687  0.76126  0.24229  1.0000
  H   H5        1.0  0.24435  0.39164  0.80049  1.0000
  H   H6        1.0  0.74435  0.10836  0.69951  1.0000
  H   H7        1.0  0.75565  0.60836  0.19951  1.0000
  H   H8        1.0  0.25565  0.89164  0.30049  1.0000
  H   H9        1.0  0.69758  0.66456  0.04986  1.0000
  H   H10       1.0  0.19758  0.83544  0.45014  1.0000
  H   H11       1.0  0.30242  0.33544  0.95014  1.0000
  H   H12       1.0  0.80242  0.16456  0.54986  1.0000
  H   H13       1.0  0.48481  0.81181  0.14475  1.0000
  H   H14       1.0  0.98481  0.68819  0.35525  1.0000
  H   H15       1.0  0.51519  0.18819  0.85525  1.0000
  H   H16       1.0  0.01519  0.31181  0.64475  1.0000
  H   H17       1.0  0.17523  0.95035  0.10511  1.0000
  H   H18       1.0  0.67523  0.54965  0.39489  1.0000
  H   H19       1.0  0.82477  0.04965  0.89489  1.0000
  H   H20       1.0  0.32477  0.45035  0.60511  1.0000
  H   H21       1.0  0.09568  0.94389  0.96504  1.0000
  H   H22       1.0  0.59568  0.55611  0.53496  1.0000
  H   H23       1.0  0.90432  0.05611  0.03496  1.0000
  H   H24       1.0  0.40432  0.44389  0.46504  1.0000
  H   H25       1.0  0.79532  0.48597  0.96864  1.0000
  H   H26       1.0  0.29532  0.01403  0.53136  1.0000
  H   H27       1.0  0.20468  0.51403  0.03136  1.0000
  H   H28       1.0  0.70468  0.98597  0.46864  1.0000
  H   H29       1.0  0.91381  0.67481  0.94438  1.0000
  H   H30       1.0  0.41381  0.82519  0.55562  1.0000
  H   H31       1.0  0.08619  0.32519  0.05562  1.0000
  H   H32       1.0  0.58619  0.17481  0.44438  1.0000
  C   C1        1.0  0.51393  0.71640  0.95281  1.0000
  C   C2        1.0  0.01393  0.78361  0.54719  1.0000
  C   C3        1.0  0.48607  0.28360  0.04719  1.0000
  C   C4        1.0  0.98607  0.21639  0.45281  1.0000
  C   C5        1.0  0.56345  0.72246  0.03050  1.0000
  C   C6        1.0  0.06345  0.77754  0.46950  1.0000
  C   C7        1.0  0.43655  0.27754  0.96950  1.0000
  C   C8        1.0  0.93655  0.22246  0.53050  1.0000
  C   C9        1.0  0.44235  0.80659  0.08475  1.0000
  C   C10       1.0  0.94235  0.69340  0.41525  1.0000
  C   C11       1.0  0.55765  0.19341  0.91525  1.0000
  C   C12       1.0  0.05765  0.30659  0.58475  1.0000
  C   C13       1.0  0.26987  0.88454  0.06271  1.0000
  C   C14       1.0  0.76987  0.61546  0.43729  1.0000
  C   C15       1.0  0.73013  0.11546  0.93729  1.0000
  C   C16       1.0  0.23013  0.38454  0.56271  1.0000
  C   C17       1.0  0.22389  0.87931  0.98537  1.0000
  C   C18       1.0  0.72389  0.62069  0.51463  1.0000
  C   C19       1.0  0.77611  0.12069  0.01463  1.0000
  C   C20       1.0  0.27611  0.37931  0.48537  1.0000
  C   C21       1.0  0.34223  0.79719  0.92869  1.0000
  C   C22       1.0  0.84223  0.70282  0.57131  1.0000
  C   C23       1.0  0.65777  0.20281  0.07131  1.0000
  C   C24       1.0  0.15777  0.29719  0.42869  1.0000
  C   C25       1.0  0.28254  0.81260  0.84763  1.0000
  C   C26       1.0  0.78254  0.68740  0.65237  1.0000
  C   C27       1.0  0.71746  0.18740  0.15237  1.0000
  C   C28       1.0  0.21746  0.31260  0.34763  1.0000
  C   C29       1.0  0.81754  0.57165  0.92296  1.0000
  C   C30       1.0  0.31754  0.92835  0.57704  1.0000
  C   C31       1.0  0.18246  0.42835  0.07704  1.0000
  C   C32       1.0  0.68246  0.07165  0.42296  1.0000
  C   C33       1.0  0.91652  0.47254  0.85694  1.0000
  C   C34       1.0  0.41651  0.02745  0.64306  1.0000
  C   C35       1.0  0.08348  0.52746  0.14306  1.0000
  C   C36       1.0  0.58349  0.97255  0.35694  1.0000
  O   O1        1.0  0.35501  0.38048  0.76194  1.0000
  O   O2        1.0  0.85500  0.11952  0.73806  1.0000
  O   O3        1.0  0.64499  0.61952  0.23806  1.0000
  O   O4        1.0  0.14500  0.88048  0.26194  1.0000
  O   O5        1.0  0.81831  0.43687  0.79517  1.0000
  O   O6        1.0  0.31831  0.06313  0.70483  1.0000
  O   O7        1.0  0.18170  0.56313  0.20483  1.0000
  O   O8        1.0  0.68169  0.93687  0.29517  1.0000
  O   O9        1.0  0.08953  0.42618  0.86844  1.0000
  O   O10       1.0  0.58953  0.07382  0.63156  1.0000
  O   O11       1.0  0.91048  0.57382  0.13156  1.0000
  O   O12       1.0  0.41047  0.92618  0.36844  1.0000
  O   O13       1.0  0.37487  0.74297  0.79061  1.0000
  O   O14       1.0  0.87487  0.75703  0.70939  1.0000
  O   O15       1.0  0.62513  0.25703  0.20939  1.0000
  O   O16       1.0  0.12513  0.24297  0.29061  1.0000
  O   O17       1.0  0.13180  0.90488  0.83747  1.0000
  O   O18       1.0  0.63180  0.59512  0.66253  1.0000
  O   O19       1.0  0.86820  0.09513  0.16253  1.0000
  O   O20       1.0  0.36820  0.40488  0.33747  1.0000
  O   O21       1.0  0.63279  0.63553  0.89819  1.0000
  O   O22       1.0  0.13279  0.86448  0.60181  1.0000
  O   O23       1.0  0.36721  0.36448  0.10181  1.0000
  O   O24       1.0  0.86721  0.13553  0.39819  1.0000
