data_image0
_chemical_formula_structural       Cu2H56C40N16Cl4
_chemical_formula_sum              "Cu2 H56 C40 N16 Cl4"
_cell_length_a       7.56556
_cell_length_b       8.82877
_cell_length_c       17.6047
_cell_angle_alpha    90
_cell_angle_beta     90
_cell_angle_gamma    115.073

_space_group_name_H-M_alt    "P 1"
_space_group_IT_number       1

loop_
  _space_group_symop_operation_xyz
  'x, y, z'

loop_
  _atom_site_type_symbol
  _atom_site_label
  _atom_site_symmetry_multiplicity
  _atom_site_fract_x
  _atom_site_fract_y
  _atom_site_fract_z
  _atom_site_occupancy
  Cu  Cu1       1.0  1.00000  0.50000  0.50000  1.0000
  Cu  Cu2       1.0  0.00000  0.00000  1.00000  1.0000
  H   H1        1.0  0.67904  0.62698  0.43914  1.0000
  H   H2        1.0  0.32096  0.87302  0.93914  1.0000
  H   H3        1.0  0.32096  0.37302  0.56086  1.0000
  H   H4        1.0  0.67904  0.12698  0.06086  1.0000
  H   H5        1.0  0.29194  0.86821  0.45617  1.0000
  H   H6        1.0  0.70806  0.63179  0.95617  1.0000
  H   H7        1.0  0.70807  0.13179  0.54383  1.0000
  H   H8        1.0  0.29193  0.36821  0.04383  1.0000
  H   H9        1.0  0.15689  0.09819  0.40272  1.0000
  H   H10       1.0  0.84311  0.40181  0.90272  1.0000
  H   H11       1.0  0.84311  0.90181  0.59728  1.0000
  H   H12       1.0  0.15689  0.59819  0.09728  1.0000
  H   H13       1.0  0.83479  0.07604  0.36116  1.0000
  H   H14       1.0  0.16520  0.42396  0.86116  1.0000
  H   H15       1.0  0.16520  0.92396  0.63884  1.0000
  H   H16       1.0  0.83480  0.57604  0.13884  1.0000
  H   H17       1.0  0.66548  0.96925  0.43386  1.0000
  H   H18       1.0  0.33452  0.53075  0.93386  1.0000
  H   H19       1.0  0.33452  0.03075  0.56614  1.0000
  H   H20       1.0  0.66548  0.46925  0.06614  1.0000
  H   H21       1.0  0.49880  0.72461  0.35449  1.0000
  H   H22       1.0  0.50120  0.77539  0.85449  1.0000
  H   H23       1.0  0.50120  0.27539  0.64551  1.0000
  H   H24       1.0  0.49880  0.22461  0.14551  1.0000
  H   H25       1.0  0.68348  0.79922  0.28442  1.0000
  H   H26       1.0  0.31652  0.70078  0.78442  1.0000
  H   H27       1.0  0.31653  0.20078  0.71558  1.0000
  H   H28       1.0  0.68347  0.29922  0.21558  1.0000
  H   H29       1.0  0.40588  0.95919  0.32525  1.0000
  H   H30       1.0  0.59412  0.54081  0.82525  1.0000
  H   H31       1.0  0.59412  0.04081  0.67475  1.0000
  H   H32       1.0  0.40588  0.45919  0.17475  1.0000
  H   H33       1.0  0.59138  0.03576  0.25551  1.0000
  H   H34       1.0  0.40862  0.46424  0.75551  1.0000
  H   H35       1.0  0.40863  0.96424  0.74449  1.0000
  H   H36       1.0  0.59138  0.53576  0.24449  1.0000
  H   H37       1.0  0.43739  0.77637  0.18020  1.0000
  H   H38       1.0  0.56261  0.72363  0.68020  1.0000
  H   H39       1.0  0.56261  0.22363  0.81980  1.0000
  H   H40       1.0  0.43739  0.27637  0.31980  1.0000
  H   H41       1.0  0.26495  0.67885  0.25389  1.0000
  H   H42       1.0  0.73505  0.82115  0.75389  1.0000
  H   H43       1.0  0.73505  0.32115  0.74611  1.0000
  H   H44       1.0  0.26495  0.17885  0.24611  1.0000
  H   H45       1.0  0.01544  0.82131  0.28188  1.0000
  H   H46       1.0  0.98456  0.67869  0.78188  1.0000
  H   H47       1.0  0.98456  0.17869  0.71812  1.0000
  H   H48       1.0  0.01544  0.32131  0.21812  1.0000
  H   H49       1.0  0.82962  0.92613  0.16820  1.0000
  H   H50       1.0  0.17037  0.57387  0.66820  1.0000
  H   H51       1.0  0.17038  0.07387  0.83179  1.0000
  H   H52       1.0  0.82963  0.42613  0.33180  1.0000
  H   H53       1.0  0.34180  0.91444  0.07818  1.0000
  H   H54       1.0  0.65820  0.58556  0.57818  1.0000
  H   H55       1.0  0.65821  0.08556  0.92182  1.0000
  H   H56       1.0  0.34180  0.41444  0.42182  1.0000
  C   C1        1.0  0.82737  0.72270  0.43486  1.0000
  C   C2        1.0  0.17263  0.77730  0.93486  1.0000
  C   C3        1.0  0.17263  0.27730  0.56514  1.0000
  C   C4        1.0  0.82737  0.22270  0.06514  1.0000
  C   C5        1.0  0.14562  0.85374  0.44276  1.0000
  C   C6        1.0  0.85438  0.64626  0.94276  1.0000
  C   C7        1.0  0.85438  0.14626  0.55724  1.0000
  C   C8        1.0  0.14562  0.35374  0.05724  1.0000
  C   C9        1.0  0.07953  0.96671  0.41607  1.0000
  C   C10       1.0  0.92047  0.53329  0.91608  1.0000
  C   C11       1.0  0.92047  0.03329  0.58393  1.0000
  C   C12       1.0  0.07953  0.46671  0.08393  1.0000
  C   C13       1.0  0.74504  0.95207  0.38490  1.0000
  C   C14       1.0  0.25496  0.54793  0.88490  1.0000
  C   C15       1.0  0.25496  0.04793  0.61510  1.0000
  C   C16       1.0  0.74504  0.45207  0.11510  1.0000
  C   C17       1.0  0.60273  0.83869  0.32601  1.0000
  C   C18       1.0  0.39726  0.66131  0.82601  1.0000
  C   C19       1.0  0.39727  0.16131  0.67399  1.0000
  C   C20       1.0  0.60273  0.33869  0.17399  1.0000
  C   C21       1.0  0.48979  0.92149  0.28447  1.0000
  C   C22       1.0  0.51020  0.57851  0.78447  1.0000
  C   C23       1.0  0.51021  0.07851  0.71553  1.0000
  C   C24       1.0  0.48980  0.42149  0.21553  1.0000
  C   C25       1.0  0.35360  0.79927  0.22642  1.0000
  C   C26       1.0  0.64641  0.70073  0.72642  1.0000
  C   C27       1.0  0.64641  0.20073  0.77358  1.0000
  C   C28       1.0  0.35360  0.29927  0.27358  1.0000
  C   C29       1.0  0.05282  0.85756  0.22320  1.0000
  C   C30       1.0  0.94718  0.64244  0.72320  1.0000
  C   C31       1.0  0.94718  0.14244  0.77680  1.0000
  C   C32       1.0  0.05282  0.35756  0.27680  1.0000
  C   C33       1.0  0.96507  0.91193  0.16768  1.0000
  C   C34       1.0  0.03493  0.58807  0.66768  1.0000
  C   C35       1.0  0.03493  0.08808  0.83232  1.0000
  C   C36       1.0  0.96507  0.41193  0.33232  1.0000
  C   C37       1.0  0.22757  0.90882  0.11731  1.0000
  C   C38       1.0  0.77243  0.59118  0.61731  1.0000
  C   C39       1.0  0.77243  0.09118  0.88269  1.0000
  C   C40       1.0  0.22757  0.40882  0.38269  1.0000
  N   N1        1.0  0.98679  0.70276  0.45419  1.0000
  N   N2        1.0  0.01321  0.79724  0.95419  1.0000
  N   N3        1.0  0.01321  0.29725  0.54581  1.0000
  N   N4        1.0  0.98679  0.20276  0.04581  1.0000
  N   N5        1.0  0.87876  0.88228  0.41112  1.0000
  N   N6        1.0  0.12124  0.61772  0.91112  1.0000
  N   N7        1.0  0.12125  0.11772  0.58888  1.0000
  N   N8        1.0  0.87876  0.38228  0.08888  1.0000
  N   N9        1.0  0.21833  0.85634  0.19043  1.0000
  N   N10       1.0  0.78167  0.64366  0.69043  1.0000
  N   N11       1.0  0.78168  0.14366  0.80957  1.0000
  N   N12       1.0  0.21833  0.35634  0.30957  1.0000
  N   N13       1.0  0.07518  0.94235  0.10227  1.0000
  N   N14       1.0  0.92482  0.55765  0.60227  1.0000
  N   N15       1.0  0.92482  0.05765  0.89773  1.0000
  N   N16       1.0  0.07518  0.44235  0.39773  1.0000
  Cl  Cl1       1.0  0.41892  0.69708  0.54044  1.0000
  Cl  Cl2       1.0  0.58108  0.80292  0.04044  1.0000
  Cl  Cl3       1.0  0.58108  0.30292  0.45956  1.0000
  Cl  Cl4       1.0  0.41892  0.19708  0.95956  1.0000
