data_image0
_chemical_formula_structural       In4H68C60S8
_chemical_formula_sum              "In4 H68 C60 S8"
_cell_length_a       7.32549
_cell_length_b       13.9261
_cell_length_c       14.625
_cell_angle_alpha    90
_cell_angle_beta     90
_cell_angle_gamma    99.6394

_space_group_name_H-M_alt    "P 1"
_space_group_IT_number       1

loop_
  _space_group_symop_operation_xyz
  'x, y, z'

loop_
  _atom_site_type_symbol
  _atom_site_label
  _atom_site_symmetry_multiplicity
  _atom_site_fract_x
  _atom_site_fract_y
  _atom_site_fract_z
  _atom_site_occupancy
  In  In1       1.0  0.39930  0.73799  0.19489  1.0000
  In  In2       1.0  0.60070  0.26201  0.69489  1.0000
  In  In3       1.0  0.93842  0.75949  0.30499  1.0000
  In  In4       1.0  0.06158  0.24051  0.80499  1.0000
  H   H1        1.0  0.28311  0.70131  0.01904  1.0000
  H   H2        1.0  0.71687  0.29869  0.51903  1.0000
  H   H3        1.0  0.53189  0.73413  0.02221  1.0000
  H   H4        1.0  0.46808  0.26587  0.52222  1.0000
  H   H5        1.0  0.38752  0.82627  0.03040  1.0000
  H   H6        1.0  0.61246  0.17373  0.53040  1.0000
  H   H7        1.0  0.77017  0.77664  0.46682  1.0000
  H   H8        1.0  0.22983  0.22336  0.96682  1.0000
  H   H9        1.0  0.01211  0.82659  0.48029  1.0000
  H   H10       1.0  0.98789  0.17341  0.98028  1.0000
  H   H11       1.0  0.93738  0.69737  0.48163  1.0000
  H   H12       1.0  0.06263  0.30263  0.98162  1.0000
  H   H13       1.0  0.57987  0.30270  0.36610  1.0000
  H   H14       1.0  0.42013  0.69730  0.86609  1.0000
  H   H15       1.0  0.41911  0.24112  0.22351  1.0000
  H   H16       1.0  0.58088  0.75889  0.72350  1.0000
  H   H17       1.0  0.34621  0.35947  0.10516  1.0000
  H   H18       1.0  0.65379  0.64054  0.60515  1.0000
  H   H19       1.0  0.42268  0.53624  0.13442  1.0000
  H   H20       1.0  0.57733  0.46377  0.63441  1.0000
  H   H21       1.0  0.72115  0.43042  0.46148  1.0000
  H   H22       1.0  0.27886  0.56959  0.96146  1.0000
  H   H23       1.0  0.59443  0.52924  0.46346  1.0000
  H   H24       1.0  0.40557  0.47077  0.96346  1.0000
  H   H25       1.0  0.81072  0.54158  0.40677  1.0000
  H   H26       1.0  0.18928  0.45842  0.90675  1.0000
  H   H27       1.0  0.40095  0.04987  0.56686  1.0000
  H   H28       1.0  0.59905  0.95013  0.06685  1.0000
  H   H29       1.0  0.45970  0.90655  0.65428  1.0000
  H   H30       1.0  0.54031  0.09345  0.15428  1.0000
  H   H31       1.0  0.44740  0.74623  0.57399  1.0000
  H   H32       1.0  0.55260  0.25377  0.07399  1.0000
  H   H33       1.0  0.38010  0.73373  0.40877  1.0000
  H   H34       1.0  0.61990  0.26627  0.90877  1.0000
  H   H35       1.0  0.16976  0.04883  0.36068  1.0000
  H   H36       1.0  0.83024  0.95117  0.86068  1.0000
  H   H37       1.0  0.40350  0.08087  0.32865  1.0000
  H   H38       1.0  0.59650  0.91914  0.82865  1.0000
  H   H39       1.0  0.32494  0.12632  0.43304  1.0000
  H   H40       1.0  0.67506  0.87368  0.93303  1.0000
  H   H41       1.0  0.80463  0.39312  0.99229  1.0000
  H   H42       1.0  0.19537  0.60688  0.49229  1.0000
  H   H43       1.0  0.76681  0.52266  0.88100  1.0000
  H   H44       1.0  0.23320  0.47734  0.38100  1.0000
  H   H45       1.0  0.84613  0.69759  0.92753  1.0000
  H   H46       1.0  0.15387  0.30241  0.42753  1.0000
  H   H47       1.0  0.97442  0.73976  0.08180  1.0000
  H   H48       1.0  0.02557  0.26023  0.58180  1.0000
  H   H49       1.0  0.84722  0.41395  0.22549  1.0000
  H   H50       1.0  0.15278  0.58605  0.72549  1.0000
  H   H51       1.0  0.07720  0.41546  0.18950  1.0000
  H   H52       1.0  0.92279  0.58454  0.68950  1.0000
  H   H53       1.0  0.89215  0.33903  0.13259  1.0000
  H   H54       1.0  0.10784  0.66097  0.63258  1.0000
  H   H55       1.0  0.12693  0.18238  0.14655  1.0000
  H   H56       1.0  0.87306  0.81762  0.64656  1.0000
  H   H57       1.0  0.98910  0.24898  0.28245  1.0000
  H   H58       1.0  0.01091  0.75102  0.78245  1.0000
  H   H59       1.0  0.76807  0.13822  0.38168  1.0000
  H   H60       1.0  0.23194  0.86177  0.88168  1.0000
  H   H61       1.0  0.68430  0.96308  0.34068  1.0000
  H   H62       1.0  0.31571  0.03692  0.84069  1.0000
  H   H63       1.0  0.96985  0.96681  0.03250  1.0000
  H   H64       1.0  0.03015  0.03318  0.53251  1.0000
  H   H65       1.0  0.15001  0.93879  0.10235  1.0000
  H   H66       1.0  0.84998  0.06120  0.60236  1.0000
  H   H67       1.0  0.17238  0.05532  0.05031  1.0000
  H   H68       1.0  0.82762  0.94468  0.55032  1.0000
  C   C1        1.0  0.40035  0.75114  0.04765  1.0000
  C   C2        1.0  0.59963  0.24885  0.54765  1.0000
  C   C3        1.0  0.91247  0.76647  0.45241  1.0000
  C   C4        1.0  0.08753  0.23353  0.95241  1.0000
  C   C5        1.0  0.53671  0.51978  0.26891  1.0000
  C   C6        1.0  0.46331  0.48023  0.76890  1.0000
  C   C7        1.0  0.58653  0.45385  0.33451  1.0000
  C   C8        1.0  0.41348  0.54615  0.83451  1.0000
  C   C9        1.0  0.54280  0.35404  0.31586  1.0000
  C   C10       1.0  0.45721  0.64596  0.81584  1.0000
  C   C11       1.0  0.45409  0.31934  0.23506  1.0000
  C   C12       1.0  0.54592  0.68066  0.73505  1.0000
  C   C13       1.0  0.41248  0.38523  0.16947  1.0000
  C   C14       1.0  0.58753  0.61477  0.66946  1.0000
  C   C15       1.0  0.45449  0.48508  0.18614  1.0000
  C   C16       1.0  0.54553  0.51493  0.68614  1.0000
  C   C17       1.0  0.68291  0.49028  0.42129  1.0000
  C   C18       1.0  0.31710  0.50972  0.92128  1.0000
  C   C19       1.0  0.35025  0.88461  0.39379  1.0000
  C   C20       1.0  0.64976  0.11540  0.89380  1.0000
  C   C21       1.0  0.35631  0.97546  0.43806  1.0000
  C   C22       1.0  0.64369  0.02454  0.93806  1.0000
  C   C23       1.0  0.39884  0.98069  0.53157  1.0000
  C   C24       1.0  0.60116  0.01931  0.03157  1.0000
  C   C25       1.0  0.43198  0.89979  0.58108  1.0000
  C   C26       1.0  0.56802  0.10021  0.08108  1.0000
  C   C27       1.0  0.42541  0.81083  0.53644  1.0000
  C   C28       1.0  0.57459  0.18917  0.03644  1.0000
  C   C29       1.0  0.38556  0.80357  0.44323  1.0000
  C   C30       1.0  0.61444  0.19643  0.94323  1.0000
  C   C31       1.0  0.31168  0.06266  0.38791  1.0000
  C   C32       1.0  0.68832  0.93734  0.88791  1.0000
  C   C33       1.0  0.96605  0.59027  0.12379  1.0000
  C   C34       1.0  0.03394  0.40973  0.62378  1.0000
  C   C35       1.0  0.91514  0.49105  0.09957  1.0000
  C   C36       1.0  0.08485  0.50894  0.59957  1.0000
  C   C37       1.0  0.84331  0.46956  0.01165  1.0000
  C   C38       1.0  0.15669  0.53044  0.51165  1.0000
  C   C39       1.0  0.82010  0.54219  0.94923  1.0000
  C   C40       1.0  0.17991  0.45780  0.44923  1.0000
  C   C41       1.0  0.86588  0.63979  0.97504  1.0000
  C   C42       1.0  0.13411  0.36020  0.47504  1.0000
  C   C43       1.0  0.93875  0.66353  0.06184  1.0000
  C   C44       1.0  0.06124  0.33647  0.56184  1.0000
  C   C45       1.0  0.93432  0.41039  0.16484  1.0000
  C   C46       1.0  0.06567  0.58960  0.66484  1.0000
  C   C47       1.0  0.85810  0.97444  0.22090  1.0000
  C   C48       1.0  0.14190  0.02556  0.72091  1.0000
  C   C49       1.0  0.98682  0.03555  0.16546  1.0000
  C   C50       1.0  0.01319  0.96445  0.66547  1.0000
  C   C51       1.0  0.03051  0.13414  0.18970  1.0000
  C   C52       1.0  0.96949  0.86586  0.68971  1.0000
  C   C53       1.0  0.95266  0.17178  0.26606  1.0000
  C   C54       1.0  0.04734  0.82822  0.76607  1.0000
  C   C55       1.0  0.82877  0.11012  0.32123  1.0000
  C   C56       1.0  0.17124  0.88987  0.82124  1.0000
  C   C57       1.0  0.78195  0.01174  0.29856  1.0000
  C   C58       1.0  0.21806  0.98825  0.79857  1.0000
  C   C59       1.0  0.07429  0.99759  0.08313  1.0000
  C   C60       1.0  0.92571  0.00240  0.58314  1.0000
  S   S1        1.0  0.57597  0.64420  0.29880  1.0000
  S   S2        1.0  0.42403  0.35581  0.79880  1.0000
  S   S3        1.0  0.27876  0.87611  0.27751  1.0000
  S   S4        1.0  0.72125  0.12389  0.77751  1.0000
  S   S5        1.0  0.07303  0.61844  0.23229  1.0000
  S   S6        1.0  0.92697  0.38156  0.73228  1.0000
  S   S7        1.0  0.78625  0.85096  0.18841  1.0000
  S   S8        1.0  0.21375  0.14903  0.68841  1.0000
