data_image0
_chemical_formula_structural       Cd2H58C48S8N10
_chemical_formula_sum              "Cd2 H58 C48 S8 N10"
_cell_length_a       9.5675
_cell_length_b       11.0557
_cell_length_c       12.989
_cell_angle_alpha    90
_cell_angle_beta     100.032
_cell_angle_gamma    90

_space_group_name_H-M_alt    "P 1"
_space_group_IT_number       1

loop_
  _space_group_symop_operation_xyz
  'x, y, z'

loop_
  _atom_site_type_symbol
  _atom_site_label
  _atom_site_symmetry_multiplicity
  _atom_site_fract_x
  _atom_site_fract_y
  _atom_site_fract_z
  _atom_site_occupancy
  Cd  Cd1       1.0  0.07726  0.11793  0.28430  1.0000
  Cd  Cd2       1.0  0.92274  0.61793  0.71570  1.0000
  H   H1        1.0  0.95097  0.55337  0.33819  1.0000
  H   H2        1.0  0.04903  0.05337  0.66181  1.0000
  H   H3        1.0  0.02168  0.67713  0.27645  1.0000
  H   H4        1.0  0.97832  0.17713  0.72355  1.0000
  H   H5        1.0  0.06660  0.69639  0.47598  1.0000
  H   H6        1.0  0.93340  0.19639  0.52402  1.0000
  H   H7        1.0  0.22746  0.69076  0.42561  1.0000
  H   H8        1.0  0.77254  0.19076  0.57438  1.0000
  H   H9        1.0  0.16446  0.55957  0.48308  1.0000
  H   H10       1.0  0.83554  0.05957  0.51691  1.0000
  H   H11       1.0  0.33568  0.51366  0.23332  1.0000
  H   H12       1.0  0.66432  0.01366  0.76668  1.0000
  H   H13       1.0  0.26745  0.65884  0.25772  1.0000
  H   H14       1.0  0.73255  0.15884  0.74228  1.0000
  H   H15       1.0  0.26416  0.41729  0.05747  1.0000
  H   H16       1.0  0.73584  0.91728  0.94253  1.0000
  H   H17       1.0  0.14073  0.44080  0.87267  1.0000
  H   H18       1.0  0.85927  0.94080  0.12734  1.0000
  H   H19       1.0  0.96287  0.76702  0.93706  1.0000
  H   H20       1.0  0.03713  0.26702  0.06294  1.0000
  H   H21       1.0  0.07998  0.75807  0.12550  1.0000
  H   H22       1.0  0.92002  0.25807  0.87450  1.0000
  H   H23       1.0  0.46623  0.00134  0.57899  1.0000
  H   H24       1.0  0.53377  0.50134  0.42100  1.0000
  H   H25       1.0  0.59983  0.89155  0.56969  1.0000
  H   H26       1.0  0.40017  0.39155  0.43030  1.0000
  H   H27       1.0  0.46024  0.82976  0.70526  1.0000
  H   H28       1.0  0.53976  0.32976  0.29474  1.0000
  H   H29       1.0  0.43168  0.72574  0.59982  1.0000
  H   H30       1.0  0.56832  0.22574  0.40018  1.0000
  H   H31       1.0  0.29925  0.83677  0.61193  1.0000
  H   H32       1.0  0.70075  0.33677  0.38806  1.0000
  H   H33       1.0  0.45125  0.78222  0.31695  1.0000
  H   H34       1.0  0.54875  0.28222  0.68304  1.0000
  H   H35       1.0  0.55235  0.73634  0.43858  1.0000
  H   H36       1.0  0.44765  0.23634  0.56142  1.0000
  H   H37       1.0  0.79783  0.74966  0.42998  1.0000
  H   H38       1.0  0.20217  0.24966  0.57002  1.0000
  H   H39       1.0  0.00251  0.87096  0.38575  1.0000
  H   H40       1.0  0.99749  0.37096  0.61425  1.0000
  H   H41       1.0  0.73487  0.14246  0.25064  1.0000
  H   H42       1.0  0.26513  0.64247  0.74936  1.0000
  H   H43       1.0  0.51961  0.03476  0.29074  1.0000
  H   H44       1.0  0.48040  0.53476  0.70926  1.0000
  H   H45       1.0  0.31268  0.02497  0.76782  1.0000
  H   H46       1.0  0.68731  0.52497  0.23218  1.0000
  H   H47       1.0  0.33647  0.11187  0.09382  1.0000
  H   H48       1.0  0.66353  0.61186  0.90618  1.0000
  H   H49       1.0  0.49888  0.28360  0.06772  1.0000
  H   H50       1.0  0.50113  0.78359  0.93228  1.0000
  H   H51       1.0  0.55996  0.31558  0.88898  1.0000
  H   H52       1.0  0.44004  0.81558  0.11102  1.0000
  H   H53       1.0  0.26398  0.88023  0.99355  1.0000
  H   H54       1.0  0.73602  0.38023  0.00645  1.0000
  H   H55       1.0  0.17053  0.91105  0.86557  1.0000
  H   H56       1.0  0.82948  0.41105  0.13444  1.0000
  H   H57       1.0  0.12088  0.98267  0.97659  1.0000
  H   H58       1.0  0.87912  0.48266  0.02342  1.0000
  C   C1        1.0  0.11664  0.39334  0.28186  1.0000
  C   C2        1.0  0.88336  0.89334  0.71814  1.0000
  C   C3        1.0  0.04950  0.59935  0.32873  1.0000
  C   C4        1.0  0.95050  0.09935  0.67127  1.0000
  C   C5        1.0  0.13219  0.63908  0.43431  1.0000
  C   C6        1.0  0.86781  0.13908  0.56569  1.0000
  C   C7        1.0  0.23998  0.56986  0.22244  1.0000
  C   C8        1.0  0.76002  0.06986  0.77756  1.0000
  C   C9        1.0  0.17893  0.58455  0.10780  1.0000
  C   C10       1.0  0.82107  0.08455  0.89220  1.0000
  C   C11       1.0  0.19826  0.49623  0.03417  1.0000
  C   C12       1.0  0.80174  0.99623  0.96583  1.0000
  C   C13       1.0  0.12934  0.50906  0.93131  1.0000
  C   C14       1.0  0.87065  0.00906  0.06869  1.0000
  C   C15       1.0  0.03045  0.69097  0.96760  1.0000
  C   C16       1.0  0.96955  0.19097  0.03240  1.0000
  C   C17       1.0  0.09449  0.68463  0.07225  1.0000
  C   C18       1.0  0.90551  0.18463  0.92775  1.0000
  C   C19       1.0  0.31247  0.95018  0.39674  1.0000
  C   C20       1.0  0.68753  0.45018  0.60326  1.0000
  C   C21       1.0  0.48473  0.90744  0.55730  1.0000
  C   C22       1.0  0.51526  0.40744  0.44270  1.0000
  C   C23       1.0  0.41384  0.81949  0.62227  1.0000
  C   C24       1.0  0.58616  0.31949  0.37773  1.0000
  C   C25       1.0  0.51633  0.81515  0.38946  1.0000
  C   C26       1.0  0.48366  0.31515  0.61054  1.0000
  C   C27       1.0  0.64242  0.88252  0.36305  1.0000
  C   C28       1.0  0.35758  0.38252  0.63695  1.0000
  C   C29       1.0  0.77964  0.83589  0.38919  1.0000
  C   C30       1.0  0.22036  0.33589  0.61081  1.0000
  C   C31       1.0  0.89302  0.90194  0.36434  1.0000
  C   C32       1.0  0.10698  0.40194  0.63566  1.0000
  C   C33       1.0  0.74350  0.05463  0.28979  1.0000
  C   C34       1.0  0.25650  0.55463  0.71021  1.0000
  C   C35       1.0  0.62487  0.99495  0.31247  1.0000
  C   C36       1.0  0.37513  0.49495  0.68753  1.0000
  C   C37       1.0  0.35326  0.08021  0.83658  1.0000
  C   C38       1.0  0.64674  0.58021  0.16342  1.0000
  C   C39       1.0  0.31118  0.05413  0.93236  1.0000
  C   C40       1.0  0.68882  0.55413  0.06764  1.0000
  C   C41       1.0  0.36575  0.12849  0.01741  1.0000
  C   C42       1.0  0.63425  0.62849  0.98259  1.0000
  C   C43       1.0  0.45597  0.22370  0.00313  1.0000
  C   C44       1.0  0.54402  0.72369  0.99687  1.0000
  C   C45       1.0  0.49030  0.24158  0.90398  1.0000
  C   C46       1.0  0.50970  0.74158  0.09602  1.0000
  C   C47       1.0  0.21151  0.95172  0.94202  1.0000
  C   C48       1.0  0.78849  0.45171  0.05798  1.0000
  S   S1        1.0  0.23420  0.29888  0.23483  1.0000
  S   S2        1.0  0.76580  0.79888  0.76517  1.0000
  S   S3        1.0  0.97900  0.33389  0.33487  1.0000
  S   S4        1.0  0.02100  0.83388  0.66513  1.0000
  S   S5        1.0  0.22533  0.04632  0.46764  1.0000
  S   S6        1.0  0.77467  0.54632  0.53236  1.0000
  S   S7        1.0  0.24961  0.92710  0.26498  1.0000
  S   S8        1.0  0.75039  0.42710  0.73502  1.0000
  N   N1        1.0  0.13349  0.51467  0.27722  1.0000
  N   N2        1.0  0.86650  0.01467  0.72277  1.0000
  N   N3        1.0  0.04603  0.60422  0.89801  1.0000
  N   N4        1.0  0.95397  0.10422  0.10199  1.0000
  N   N5        1.0  0.43064  0.89285  0.44491  1.0000
  N   N6        1.0  0.56936  0.39285  0.55508  1.0000
  N   N7        1.0  0.87529  0.00900  0.31507  1.0000
  N   N8        1.0  0.12471  0.50900  0.68493  1.0000
  N   N9        1.0  0.44086  0.17089  0.82173  1.0000
  N   N10       1.0  0.55913  0.67089  0.17827  1.0000
