data_image0
_chemical_formula_structural       Mn4H24C40N40
_chemical_formula_sum              "Mn4 H24 C40 N40"
_cell_length_a       7.44985
_cell_length_b       11.8035
_cell_length_c       14.631
_cell_angle_alpha    90
_cell_angle_beta     90
_cell_angle_gamma    90

_space_group_name_H-M_alt    "P 1"
_space_group_IT_number       1

loop_
  _space_group_symop_operation_xyz
  'x, y, z'

loop_
  _atom_site_type_symbol
  _atom_site_label
  _atom_site_symmetry_multiplicity
  _atom_site_fract_x
  _atom_site_fract_y
  _atom_site_fract_z
  _atom_site_occupancy
  Mn  Mn1       1.0  0.66258  0.97273  0.52002  1.0000
  Mn  Mn2       1.0  0.34199  0.03909  0.02314  1.0000
  Mn  Mn3       1.0  0.84883  0.46306  0.02229  1.0000
  Mn  Mn4       1.0  0.15699  0.53952  0.52299  1.0000
  H   H1        1.0  0.42726  0.96077  0.72601  1.0000
  H   H2        1.0  0.56854  0.02169  0.24679  1.0000
  H   H3        1.0  0.07584  0.48770  0.24697  1.0000
  H   H4        1.0  0.93408  0.52200  0.74731  1.0000
  H   H5        1.0  0.32108  0.16917  0.79557  1.0000
  H   H6        1.0  0.67911  0.80772  0.30206  1.0000
  H   H7        1.0  0.17233  0.70609  0.30020  1.0000
  H   H8        1.0  0.81807  0.30847  0.80085  1.0000
  H   H9        1.0  0.42278  0.31539  0.67283  1.0000
  H   H10       1.0  0.58287  0.67474  0.16928  1.0000
  H   H11       1.0  0.07408  0.83310  0.16477  1.0000
  H   H12       1.0  0.91162  0.17601  0.66803  1.0000
  H   H13       1.0  0.57524  0.38807  0.50655  1.0000
  H   H14       1.0  0.44063  0.60974  0.01530  1.0000
  H   H15       1.0  0.93389  0.89266  0.01087  1.0000
  H   H16       1.0  0.05285  0.11020  0.51279  1.0000
  H   H17       1.0  0.73072  0.36646  0.34610  1.0000
  H   H18       1.0  0.28369  0.61889  0.85545  1.0000
  H   H19       1.0  0.77899  0.87978  0.85092  1.0000
  H   H20       1.0  0.21041  0.11921  0.35462  1.0000
  H   H21       1.0  0.79445  0.13607  0.32982  1.0000
  H   H22       1.0  0.20842  0.84742  0.83087  1.0000
  H   H23       1.0  0.71209  0.65067  0.82705  1.0000
  H   H24       1.0  0.29237  0.34691  0.33126  1.0000
  C   C1        1.0  0.44193  0.04466  0.69701  1.0000
  C   C2        1.0  0.55654  0.94110  0.21190  1.0000
  C   C3        1.0  0.05940  0.56743  0.21122  1.0000
  C   C4        1.0  0.94648  0.44139  0.71247  1.0000
  C   C5        1.0  0.38785  0.14774  0.73217  1.0000
  C   C6        1.0  0.61258  0.83541  0.24024  1.0000
  C   C7        1.0  0.10900  0.67493  0.23853  1.0000
  C   C8        1.0  0.88712  0.33604  0.73982  1.0000
  C   C9        1.0  0.51997  0.17510  0.59894  1.0000
  C   C10       1.0  0.48213  0.82199  0.10493  1.0000
  C   C11       1.0  0.98063  0.68272  0.10246  1.0000
  C   C12       1.0  0.02123  0.32231  0.60567  1.0000
  C   C13       1.0  0.60019  0.21204  0.51616  1.0000
  C   C14       1.0  0.40563  0.78632  0.01939  1.0000
  C   C15       1.0  0.90337  0.71588  0.01653  1.0000
  C   C16       1.0  0.09691  0.28625  0.52033  1.0000
  C   C17       1.0  0.70090  0.29734  0.39237  1.0000
  C   C18       1.0  0.30980  0.69136  0.89887  1.0000
  C   C19       1.0  0.80607  0.80814  0.89500  1.0000
  C   C20       1.0  0.18788  0.19150  0.39867  1.0000
  C   C21       1.0  0.73039  0.18212  0.38492  1.0000
  C   C22       1.0  0.27502  0.80536  0.88740  1.0000
  C   C23       1.0  0.77513  0.69365  0.88422  1.0000
  C   C24       1.0  0.22635  0.30506  0.38806  1.0000
  C   C25       1.0  0.62450  0.74216  0.61827  1.0000
  C   C26       1.0  0.36789  0.26712  0.14326  1.0000
  C   C27       1.0  0.86880  0.23712  0.14345  1.0000
  C   C28       1.0  0.11283  0.76666  0.64133  1.0000
  C   C29       1.0  0.54030  0.55540  0.63195  1.0000
  C   C30       1.0  0.47703  0.44851  0.14157  1.0000
  C   C31       1.0  0.97429  0.05529  0.13817  1.0000
  C   C32       1.0  0.98205  0.94330  0.64045  1.0000
  C   C33       1.0  0.00061  0.90870  0.41418  1.0000
  C   C34       1.0  0.00747  0.10304  0.89659  1.0000
  C   C35       1.0  0.51036  0.39094  0.89850  1.0000
  C   C36       1.0  0.49141  0.60117  0.39684  1.0000
  C   C37       1.0  0.31052  0.91687  0.42280  1.0000
  C   C38       1.0  0.70468  0.10007  0.91070  1.0000
  C   C39       1.0  0.20865  0.39315  0.91075  1.0000
  C   C40       1.0  0.79345  0.59654  0.41081  1.0000
  N   N1        1.0  0.52429  0.06217  0.61386  1.0000
  N   N2        1.0  0.47606  0.93203  0.12771  1.0000
  N   N3        1.0  0.97996  0.57306  0.12650  1.0000
  N   N4        1.0  0.02968  0.43215  0.62897  1.0000
  N   N5        1.0  0.66912  0.12942  0.46286  1.0000
  N   N6        1.0  0.33405  0.86384  0.96297  1.0000
  N   N7        1.0  0.83497  0.63682  0.96053  1.0000
  N   N8        1.0  0.17025  0.36338  0.46430  1.0000
  N   N9        1.0  0.43864  0.22900  0.66958  1.0000
  N   N10       1.0  0.56434  0.76119  0.17175  1.0000
  N   N11       1.0  0.05811  0.74651  0.16885  1.0000
  N   N12       1.0  0.93583  0.26180  0.67151  1.0000
  N   N13       1.0  0.61935  0.31453  0.47582  1.0000
  N   N14       1.0  0.39148  0.68113  0.98293  1.0000
  N   N15       1.0  0.88622  0.82045  0.97929  1.0000
  N   N16       1.0  0.10721  0.18121  0.48311  1.0000
  N   N17       1.0  0.64484  0.83309  0.58647  1.0000
  N   N18       1.0  0.33025  0.17618  0.11600  1.0000
  N   N19       1.0  0.83498  0.32940  0.11794  1.0000
  N   N20       1.0  0.17082  0.68013  0.61401  1.0000
  N   N21       1.0  0.61359  0.64690  0.66195  1.0000
  N   N22       1.0  0.40092  0.36386  0.18089  1.0000
  N   N23       1.0  0.89796  0.13862  0.17887  1.0000
  N   N24       1.0  0.05242  0.85757  0.68012  1.0000
  N   N25       1.0  0.47539  0.46746  0.61030  1.0000
  N   N26       1.0  0.54782  0.52985  0.11051  1.0000
  N   N27       1.0  0.04543  0.97502  0.10541  1.0000
  N   N28       1.0  0.91384  0.02646  0.61002  1.0000
  N   N29       1.0  0.84910  0.91811  0.43831  1.0000
  N   N30       1.0  0.15711  0.10024  0.92293  1.0000
  N   N31       1.0  0.65831  0.40080  0.92605  1.0000
  N   N32       1.0  0.34244  0.59947  0.42409  1.0000
  N   N33       1.0  0.15962  0.89896  0.37992  1.0000
  N   N34       1.0  0.84851  0.10545  0.86113  1.0000
  N   N35       1.0  0.35277  0.37965  0.86243  1.0000
  N   N36       1.0  0.65012  0.60255  0.36098  1.0000
  N   N37       1.0  0.45537  0.93646  0.45151  1.0000
  N   N38       1.0  0.56772  0.09403  0.95037  1.0000
  N   N39       1.0  0.07229  0.40591  0.94994  1.0000
  N   N40       1.0  0.92968  0.58992  0.45106  1.0000
