data_image0
_chemical_formula_structural       Y4H24C24O36
_chemical_formula_sum              "Y4 H24 C24 O36"
_cell_length_a       6.53808
_cell_length_b       10.2379
_cell_length_c       13.3802
_cell_angle_alpha    89.9999
_cell_angle_beta     89.9995
_cell_angle_gamma    90

_space_group_name_H-M_alt    "P 1"
_space_group_IT_number       1

loop_
  _space_group_symop_operation_xyz
  'x, y, z'

loop_
  _atom_site_type_symbol
  _atom_site_label
  _atom_site_symmetry_multiplicity
  _atom_site_fract_x
  _atom_site_fract_y
  _atom_site_fract_z
  _atom_site_occupancy
  Y   Y1        1.0  0.13327  0.50000  0.30032  1.0000
  Y   Y2        1.0  0.86673  0.50000  0.69968  1.0000
  Y   Y3        1.0  0.63327  0.00000  0.19968  1.0000
  Y   Y4        1.0  0.36673  0.00000  0.80032  1.0000
  H   H1        1.0  0.21569  0.27445  0.15403  1.0000
  H   H2        1.0  0.78431  0.27445  0.84597  1.0000
  H   H3        1.0  0.71569  0.22555  0.34597  1.0000
  H   H4        1.0  0.28431  0.22555  0.65403  1.0000
  H   H5        1.0  0.78431  0.72555  0.84597  1.0000
  H   H6        1.0  0.21569  0.72555  0.15403  1.0000
  H   H7        1.0  0.28431  0.77445  0.65403  1.0000
  H   H8        1.0  0.71569  0.77445  0.34597  1.0000
  H   H9        1.0  0.97940  0.31161  0.15052  1.0000
  H   H10       1.0  0.02060  0.31161  0.84949  1.0000
  H   H11       1.0  0.47940  0.18839  0.34948  1.0000
  H   H12       1.0  0.52060  0.18839  0.65052  1.0000
  H   H13       1.0  0.02060  0.68839  0.84948  1.0000
  H   H14       1.0  0.97940  0.68839  0.15052  1.0000
  H   H15       1.0  0.52060  0.81161  0.65051  1.0000
  H   H16       1.0  0.47940  0.81161  0.34949  1.0000
  H   H17       1.0  0.22560  0.42428  0.51517  1.0000
  H   H18       1.0  0.77439  0.42428  0.48483  1.0000
  H   H19       1.0  0.72560  0.07572  0.98483  1.0000
  H   H20       1.0  0.27439  0.07572  0.01517  1.0000
  H   H21       1.0  0.77440  0.57573  0.48483  1.0000
  H   H22       1.0  0.22561  0.57572  0.51517  1.0000
  H   H23       1.0  0.27439  0.92427  0.01517  1.0000
  H   H24       1.0  0.72560  0.92428  0.98483  1.0000
  C   C1        1.0  0.07625  0.75474  0.39870  1.0000
  C   C2        1.0  0.92375  0.75474  0.60130  1.0000
  C   C3        1.0  0.57625  0.74526  0.10130  1.0000
  C   C4        1.0  0.42375  0.74526  0.89870  1.0000
  C   C5        1.0  0.92375  0.24526  0.60130  1.0000
  C   C6        1.0  0.07625  0.24526  0.39870  1.0000
  C   C7        1.0  0.42375  0.25474  0.89870  1.0000
  C   C8        1.0  0.57625  0.25474  0.10130  1.0000
  C   C9        1.0  0.03856  0.88183  0.45107  1.0000
  C   C10       1.0  0.96144  0.88183  0.54893  1.0000
  C   C11       1.0  0.53856  0.61817  0.04893  1.0000
  C   C12       1.0  0.46144  0.61817  0.95107  1.0000
  C   C13       1.0  0.96144  0.11818  0.54893  1.0000
  C   C14       1.0  0.03856  0.11817  0.45107  1.0000
  C   C15       1.0  0.46144  0.38183  0.95107  1.0000
  C   C16       1.0  0.53856  0.38183  0.04893  1.0000
  C   C17       1.0  0.07522  0.00000  0.40154  1.0000
  C   C18       1.0  0.92478  1.00000  0.59847  1.0000
  C   C19       1.0  0.57522  0.50000  0.09846  1.0000
  C   C20       1.0  0.42478  0.50000  0.90154  1.0000
  C   C21       1.0  0.12547  0.00000  0.29120  1.0000
  C   C22       1.0  0.87454  0.00000  0.70880  1.0000
  C   C23       1.0  0.62546  0.50000  0.20880  1.0000
  C   C24       1.0  0.37455  0.50000  0.79120  1.0000
  O   O1        1.0  0.25193  0.72740  0.36517  1.0000
  O   O2        1.0  0.74808  0.72740  0.63483  1.0000
  O   O3        1.0  0.75193  0.77260  0.13483  1.0000
  O   O4        1.0  0.24807  0.77260  0.86517  1.0000
  O   O5        1.0  0.74807  0.27260  0.63483  1.0000
  O   O6        1.0  0.25192  0.27260  0.36517  1.0000
  O   O7        1.0  0.24807  0.22740  0.86517  1.0000
  O   O8        1.0  0.75193  0.22740  0.13483  1.0000
  O   O9        1.0  0.92674  0.67394  0.38870  1.0000
  O   O10       1.0  0.07326  0.67394  0.61130  1.0000
  O   O11       1.0  0.42674  0.82606  0.11130  1.0000
  O   O12       1.0  0.57325  0.82606  0.88870  1.0000
  O   O13       1.0  0.07326  0.32606  0.61130  1.0000
  O   O14       1.0  0.92674  0.32606  0.38870  1.0000
  O   O15       1.0  0.57326  0.17394  0.88870  1.0000
  O   O16       1.0  0.42674  0.17394  0.11130  1.0000
  O   O17       1.0  0.97277  1.00000  0.23248  1.0000
  O   O18       1.0  0.02723  1.00000  0.76752  1.0000
  O   O19       1.0  0.47277  0.50000  0.26752  1.0000
  O   O20       1.0  0.52723  0.50000  0.73248  1.0000
  O   O21       1.0  0.30867  0.00000  0.26409  1.0000
  O   O22       1.0  0.69132  0.00000  0.73591  1.0000
  O   O23       1.0  0.80868  0.50000  0.23591  1.0000
  O   O24       1.0  0.19132  0.50000  0.76409  1.0000
  O   O25       1.0  0.11684  0.34444  0.16978  1.0000
  O   O26       1.0  0.88316  0.34444  0.83022  1.0000
  O   O27       1.0  0.61685  0.15556  0.33022  1.0000
  O   O28       1.0  0.38315  0.15556  0.66978  1.0000
  O   O29       1.0  0.88315  0.65556  0.83022  1.0000
  O   O30       1.0  0.11685  0.65556  0.16978  1.0000
  O   O31       1.0  0.38316  0.84444  0.66978  1.0000
  O   O32       1.0  0.61684  0.84444  0.33022  1.0000
  O   O33       1.0  0.24995  0.50000  0.47173  1.0000
  O   O34       1.0  0.75005  0.50000  0.52827  1.0000
  O   O35       1.0  0.74995  0.00000  0.02827  1.0000
  O   O36       1.0  0.25005  0.00000  0.97173  1.0000
