data_image0
_chemical_formula_structural       CoH20C22N4O6
_chemical_formula_sum              "Co1 H20 C22 N4 O6"
_cell_length_a       7.15004
_cell_length_b       8.24832
_cell_length_c       9.01395
_cell_angle_alpha    84.7978
_cell_angle_beta     83.18
_cell_angle_gamma    77.8616

_space_group_name_H-M_alt    "P 1"
_space_group_IT_number       1

loop_
  _space_group_symop_operation_xyz
  'x, y, z'

loop_
  _atom_site_type_symbol
  _atom_site_label
  _atom_site_symmetry_multiplicity
  _atom_site_fract_x
  _atom_site_fract_y
  _atom_site_fract_z
  _atom_site_occupancy
  Co  Co1       1.0  0.00000  0.49999  0.50000  1.0000
  H   H1        1.0  0.81971  0.81423  0.66245  1.0000
  H   H2        1.0  0.18029  0.18577  0.33754  1.0000
  H   H3        1.0  0.96401  0.19394  0.76949  1.0000
  H   H4        1.0  0.03599  0.80607  0.23053  1.0000
  H   H5        1.0  0.87487  0.07608  0.02559  1.0000
  H   H6        1.0  0.12513  0.92392  0.97443  1.0000
  H   H7        1.0  0.71785  0.25640  0.22661  1.0000
  H   H8        1.0  0.28212  0.74362  0.77341  1.0000
  H   H9        1.0  0.63254  0.56220  0.17812  1.0000
  H   H10       1.0  0.36743  0.43782  0.82186  1.0000
  H   H11       1.0  0.68817  0.79026  0.16954  1.0000
  H   H12       1.0  0.31185  0.20975  0.83046  1.0000
  H   H13       1.0  0.51800  0.96266  0.72785  1.0000
  H   H14       1.0  0.48201  0.03736  0.27214  1.0000
  H   H15       1.0  0.61620  0.43284  0.56884  1.0000
  H   H16       1.0  0.38381  0.56715  0.43116  1.0000
  H   H17       1.0  0.38885  0.25398  0.55387  1.0000
  H   H18       1.0  0.61115  0.74599  0.44613  1.0000
  H   H19       1.0  0.19130  0.19345  0.58258  1.0000
  H   H20       1.0  0.80872  0.80652  0.41741  1.0000
  C   C1        1.0  0.81136  0.70405  0.73569  1.0000
  C   C2        1.0  0.18865  0.29595  0.26430  1.0000
  C   C3        1.0  0.75645  0.54976  0.94538  1.0000
  C   C4        1.0  0.24353  0.45024  0.05461  1.0000
  C   C5        1.0  0.85194  0.44748  0.82964  1.0000
  C   C6        1.0  0.14804  0.55252  0.17036  1.0000
  C   C7        1.0  0.89540  0.27468  0.85748  1.0000
  C   C8        1.0  0.10460  0.72532  0.14254  1.0000
  C   C9        1.0  0.84560  0.21000  0.00108  1.0000
  C   C10       1.0  0.15441  0.79001  0.99894  1.0000
  C   C11       1.0  0.75351  0.31256  0.11549  1.0000
  C   C12       1.0  0.24648  0.68745  0.88453  1.0000
  C   C13       1.0  0.70551  0.48421  0.08933  1.0000
  C   C14       1.0  0.29447  0.51580  0.91067  1.0000
  C   C15       1.0  0.61705  0.85830  0.94133  1.0000
  C   C16       1.0  0.38296  0.14170  0.05867  1.0000
  C   C17       1.0  0.60365  0.87941  0.09458  1.0000
  C   C18       1.0  0.39637  0.12059  0.90541  1.0000
  C   C19       1.0  0.51352  0.97957  0.84681  1.0000
  C   C20       1.0  0.48649  0.02044  0.15319  1.0000
  C   C21       1.0  0.70255  0.31509  0.52558  1.0000
  C   C22       1.0  0.29746  0.68489  0.47442  1.0000
  N   N1        1.0  0.88398  0.54907  0.69986  1.0000
  N   N2        1.0  0.11602  0.45093  0.30014  1.0000
  N   N3        1.0  0.73025  0.71244  0.88066  1.0000
  N   N4        1.0  0.26975  0.28756  0.11933  1.0000
  O   O1        1.0  0.24856  0.28828  0.59358  1.0000
  O   O2        1.0  0.75145  0.71170  0.40641  1.0000
  O   O3        1.0  0.88419  0.30799  0.49891  1.0000
  O   O4        1.0  0.11582  0.69199  0.50109  1.0000
  O   O5        1.0  0.61953  0.19997  0.50554  1.0000
  O   O6        1.0  0.38048  0.80002  0.49445  1.0000
