data_image0
_chemical_formula_structural       Ni2H24C32N4O10
_chemical_formula_sum              "Ni2 H24 C32 N4 O10"
_cell_length_a       7.86381
_cell_length_b       9.68338
_cell_length_c       11.2481
_cell_angle_alpha    69.3165
_cell_angle_beta     70.2015
_cell_angle_gamma    91.115

_space_group_name_H-M_alt    "P 1"
_space_group_IT_number       1

loop_
  _space_group_symop_operation_xyz
  'x, y, z'

loop_
  _atom_site_type_symbol
  _atom_site_label
  _atom_site_symmetry_multiplicity
  _atom_site_fract_x
  _atom_site_fract_y
  _atom_site_fract_z
  _atom_site_occupancy
  Ni  Ni1       1.0  0.83763  0.24994  0.20719  1.0000
  Ni  Ni2       1.0  0.16237  0.75006  0.79281  1.0000
  H   H1        1.0  0.97854  0.42945  0.26491  1.0000
  H   H2        1.0  0.02145  0.57054  0.73510  1.0000
  H   H3        1.0  0.11379  0.44619  0.11211  1.0000
  H   H4        1.0  0.88620  0.55381  0.88789  1.0000
  H   H5        1.0  0.65593  0.04886  0.51859  1.0000
  H   H6        1.0  0.34407  0.95114  0.48141  1.0000
  H   H7        1.0  0.70610  0.80266  0.66641  1.0000
  H   H8        1.0  0.29391  0.19734  0.33359  1.0000
  H   H9        1.0  0.94414  0.66867  0.55806  1.0000
  H   H10       1.0  0.05587  0.33133  0.44194  1.0000
  H   H11       1.0  0.18551  0.66615  0.34201  1.0000
  H   H12       1.0  0.81449  0.33385  0.65799  1.0000
  H   H13       1.0  0.35711  0.79252  0.09148  1.0000
  H   H14       1.0  0.64290  0.20748  0.90852  1.0000
  H   H15       1.0  0.40567  0.00881  0.86805  1.0000
  H   H16       1.0  0.59433  0.99119  0.13194  1.0000
  H   H17       1.0  0.31701  0.25466  0.74964  1.0000
  H   H18       1.0  0.68299  0.74535  0.25036  1.0000
  H   H19       1.0  0.07147  0.35538  0.88638  1.0000
  H   H20       1.0  0.92853  0.64462  0.11362  1.0000
  H   H21       1.0  0.38283  0.35107  0.03420  1.0000
  H   H22       1.0  0.61715  0.64892  0.96581  1.0000
  H   H23       1.0  0.37572  0.37427  0.50074  1.0000
  H   H24       1.0  0.62428  0.62574  0.49925  1.0000
  C   C1        1.0  0.75710  0.98705  0.47546  1.0000
  C   C2        1.0  0.24291  0.01295  0.52454  1.0000
  C   C3        1.0  0.78712  0.84921  0.55730  1.0000
  C   C4        1.0  0.21288  0.15079  0.44270  1.0000
  C   C5        1.0  0.91733  0.77539  0.49734  1.0000
  C   C6        1.0  0.08267  0.22461  0.50266  1.0000
  C   C7        1.0  0.15724  0.77359  0.28343  1.0000
  C   C8        1.0  0.84277  0.22641  0.71657  1.0000
  C   C9        1.0  0.25108  0.84292  0.14550  1.0000
  C   C10       1.0  0.74893  0.15708  0.85450  1.0000
  C   C11       1.0  0.30208  0.05890  0.92471  1.0000
  C   C12       1.0  0.69793  0.94110  0.07529  1.0000
  C   C13       1.0  0.25215  0.19285  0.85959  1.0000
  C   C14       1.0  0.74786  0.80715  0.14041  1.0000
  C   C15       1.0  0.11274  0.25061  0.93597  1.0000
  C   C16       1.0  0.88726  0.74938  0.06403  1.0000
  C   C17       1.0  0.01840  0.84004  0.35516  1.0000
  C   C18       1.0  0.98161  0.15996  0.64484  1.0000
  C   C19       1.0  0.97868  0.97896  0.28088  1.0000
  C   C20       1.0  0.02132  0.02104  0.71912  1.0000
  C   C21       1.0  0.21265  0.98316  0.06764  1.0000
  C   C22       1.0  0.78735  0.01684  0.93237  1.0000
  C   C23       1.0  0.07483  0.05024  0.13619  1.0000
  C   C24       1.0  0.92517  0.94976  0.86382  1.0000
  C   C25       1.0  0.63051  0.35360  0.08256  1.0000
  C   C26       1.0  0.36948  0.64639  0.91745  1.0000
  C   C27       1.0  0.49550  0.42539  0.02642  1.0000
  C   C28       1.0  0.50449  0.57461  0.97359  1.0000
  C   C29       1.0  0.67494  0.40963  0.39317  1.0000
  C   C30       1.0  0.32507  0.59037  0.60682  1.0000
  C   C31       1.0  0.50235  0.44396  0.47781  1.0000
  C   C32       1.0  0.49765  0.55605  0.52218  1.0000
  N   N1        1.0  0.85018  0.05036  0.34089  1.0000
  N   N2        1.0  0.14982  0.94964  0.65911  1.0000
  N   N3        1.0  0.02563  0.18108  0.07069  1.0000
  N   N4        1.0  0.97437  0.81892  0.92931  1.0000
  O   O1        1.0  0.05356  0.37364  0.20838  1.0000
  O   O2        1.0  0.94644  0.62635  0.79162  1.0000
  O   O3        1.0  0.78313  0.43152  0.05595  1.0000
  O   O4        1.0  0.21686  0.56848  0.94406  1.0000
  O   O5        1.0  0.59338  0.21560  0.15999  1.0000
  O   O6        1.0  0.40662  0.78439  0.84001  1.0000
  O   O7        1.0  0.65139  0.30212  0.35585  1.0000
  O   O8        1.0  0.34861  0.69787  0.64415  1.0000
  O   O9        1.0  0.82773  0.48603  0.36302  1.0000
  O   O10       1.0  0.17227  0.51397  0.63698  1.0000
