data_image0
_chemical_formula_structural       Cu2H24C12Br4N16
_chemical_formula_sum              "Cu2 H24 C12 Br4 N16"
_cell_length_a       6.9114
_cell_length_b       7.6008
_cell_length_c       12.31
_cell_angle_alpha    102.134
_cell_angle_beta     89.9993
_cell_angle_gamma    89.9999

_space_group_name_H-M_alt    "P 1"
_space_group_IT_number       1

loop_
  _space_group_symop_operation_xyz
  'x, y, z'

loop_
  _atom_site_type_symbol
  _atom_site_label
  _atom_site_symmetry_multiplicity
  _atom_site_fract_x
  _atom_site_fract_y
  _atom_site_fract_z
  _atom_site_occupancy
  Cu  Cu1       1.0  0.00001  0.00000  1.00000  1.0000
  Cu  Cu2       1.0  0.49999  0.50001  1.00000  1.0000
  H   H1        1.0  0.54105  0.98632  0.62288  1.0000
  H   H2        1.0  0.04098  0.51370  0.37715  1.0000
  H   H3        1.0  0.45897  0.01369  0.37713  1.0000
  H   H4        1.0  0.95898  0.48630  0.62287  1.0000
  H   H5        1.0  0.66248  0.92396  0.73643  1.0000
  H   H6        1.0  0.16245  0.57601  0.26359  1.0000
  H   H7        1.0  0.33753  0.07602  0.26358  1.0000
  H   H8        1.0  0.83753  0.42397  0.73642  1.0000
  H   H9        1.0  0.72934  0.70085  0.56010  1.0000
  H   H10       1.0  0.22931  0.79914  0.43990  1.0000
  H   H11       1.0  0.27067  0.29914  0.43990  1.0000
  H   H12       1.0  0.77068  0.20085  0.56010  1.0000
  H   H13       1.0  0.47886  0.65711  0.53901  1.0000
  H   H14       1.0  0.97884  0.84292  0.46100  1.0000
  H   H15       1.0  0.52115  0.34290  0.46099  1.0000
  H   H16       1.0  0.02116  0.15709  0.53900  1.0000
  H   H17       1.0  0.59791  0.59761  0.65496  1.0000
  H   H18       1.0  0.09790  0.90239  0.34504  1.0000
  H   H19       1.0  0.40209  0.40238  0.34503  1.0000
  H   H20       1.0  0.90210  0.09760  0.65496  1.0000
  H   H21       1.0  0.43938  0.01943  0.90176  1.0000
  H   H22       1.0  0.93937  0.48059  0.09824  1.0000
  H   H23       1.0  0.56064  0.98058  0.09823  1.0000
  H   H24       1.0  0.06062  0.51944  0.90176  1.0000
  C   C1        1.0  0.55026  0.88301  0.67306  1.0000
  C   C2        1.0  0.05022  0.61700  0.32695  1.0000
  C   C3        1.0  0.44975  0.11699  0.32694  1.0000
  C   C4        1.0  0.94977  0.38299  0.67306  1.0000
  C   C5        1.0  0.59030  0.69758  0.60259  1.0000
  C   C6        1.0  0.09028  0.80244  0.39742  1.0000
  C   C7        1.0  0.40970  0.30242  0.39741  1.0000
  C   C8        1.0  0.90971  0.19757  0.60258  1.0000
  C   C9        1.0  0.33233  0.95599  0.84165  1.0000
  C   C10       1.0  0.83231  0.54403  0.15835  1.0000
  C   C11       1.0  0.66768  0.04402  0.15835  1.0000
  C   C12       1.0  0.16768  0.45599  0.84165  1.0000
  Br  Br1       1.0  0.21216  0.80095  0.08318  1.0000
  Br  Br2       1.0  0.71217  0.69905  0.91681  1.0000
  Br  Br3       1.0  0.78785  0.19906  0.91681  1.0000
  Br  Br4       1.0  0.28786  0.30095  0.08319  1.0000
  N   N1        1.0  0.14454  0.93387  0.85834  1.0000
  N   N2        1.0  0.64454  0.56612  0.14163  1.0000
  N   N3        1.0  0.85547  0.06612  0.14164  1.0000
  N   N4        1.0  0.35545  0.43389  0.85835  1.0000
  N   N5        1.0  0.06603  0.85072  0.75952  1.0000
  N   N6        1.0  0.56602  0.64929  0.24049  1.0000
  N   N7        1.0  0.93397  0.14927  0.24049  1.0000
  N   N8        1.0  0.43397  0.35072  0.75952  1.0000
  N   N9        1.0  0.20007  0.82224  0.68388  1.0000
  N   N10       1.0  0.70004  0.67777  0.31612  1.0000
  N   N11       1.0  0.79994  0.17775  0.31612  1.0000
  N   N12       1.0  0.29994  0.32223  0.68388  1.0000
  N   N13       1.0  0.36751  0.88808  0.73404  1.0000
  N   N14       1.0  0.86747  0.61195  0.26597  1.0000
  N   N15       1.0  0.63251  0.11192  0.26596  1.0000
  N   N16       1.0  0.13251  0.38806  0.73404  1.0000
