data_image0
_chemical_formula_structural       Ag4H12C20S4Br4N4O12
_chemical_formula_sum              "Ag4 H12 C20 S4 Br4 N4 O12"
_cell_length_a       5.18015
_cell_length_b       9.97158
_cell_length_c       15.9573
_cell_angle_alpha    71.4954
_cell_angle_beta     80.6926
_cell_angle_gamma    75.0098

_space_group_name_H-M_alt    "P 1"
_space_group_IT_number       1

loop_
  _space_group_symop_operation_xyz
  'x, y, z'

loop_
  _atom_site_type_symbol
  _atom_site_label
  _atom_site_symmetry_multiplicity
  _atom_site_fract_x
  _atom_site_fract_y
  _atom_site_fract_z
  _atom_site_occupancy
  Ag  Ag1       1.0  0.53113  0.35684  0.98861  1.0000
  Ag  Ag2       1.0  0.87691  0.14348  0.51167  1.0000
  Ag  Ag3       1.0  0.46887  0.64316  0.01139  1.0000
  Ag  Ag4       1.0  0.12307  0.85652  0.48833  1.0000
  H   H1        1.0  0.40427  0.21772  0.19316  1.0000
  H   H2        1.0  0.81429  0.28234  0.30691  1.0000
  H   H3        1.0  0.59574  0.78229  0.80684  1.0000
  H   H4        1.0  0.18570  0.71767  0.69310  1.0000
  H   H5        1.0  0.06711  0.85867  0.28615  1.0000
  H   H6        1.0  0.21144  0.64184  0.21366  1.0000
  H   H7        1.0  0.93289  0.14133  0.71385  1.0000
  H   H8        1.0  0.78856  0.35816  0.78634  1.0000
  H   H9        1.0  0.05469  0.13219  0.01426  1.0000
  H   H10       1.0  0.20167  0.36836  0.48550  1.0000
  H   H11       1.0  0.94533  0.86780  0.98574  1.0000
  H   H12       1.0  0.79830  0.63164  0.51450  1.0000
  C   C1        1.0  0.60026  0.14892  0.18290  1.0000
  C   C2        1.0  0.93101  0.35144  0.31712  1.0000
  C   C3        1.0  0.39975  0.85108  0.81710  1.0000
  C   C4        1.0  0.06898  0.64856  0.68288  1.0000
  C   C5        1.0  0.72096  0.03354  0.25094  1.0000
  C   C6        1.0  0.00406  0.46695  0.24906  1.0000
  C   C7        1.0  0.27905  0.96646  0.74906  1.0000
  C   C8        1.0  0.99593  0.53305  0.75094  1.0000
  C   C9        1.0  0.97073  0.94812  0.23343  1.0000
  C   C10       1.0  0.15135  0.55252  0.26645  1.0000
  C   C11       1.0  0.02928  0.05188  0.76657  1.0000
  C   C12       1.0  0.84865  0.44748  0.73355  1.0000
  C   C13       1.0  0.09201  0.98338  0.14729  1.0000
  C   C14       1.0  0.22217  0.51742  0.35253  1.0000
  C   C15       1.0  0.90800  0.01662  0.85271  1.0000
  C   C16       1.0  0.77782  0.48258  0.64747  1.0000
  C   C17       1.0  0.96349  0.10007  0.08188  1.0000
  C   C18       1.0  0.14541  0.40048  0.41794  1.0000
  C   C19       1.0  0.03652  0.89993  0.91812  1.0000
  C   C20       1.0  0.85458  0.59952  0.58206  1.0000
  S   S1        1.0  0.57171  0.99647  0.36295  1.0000
  S   S2        1.0  0.93071  0.50346  0.13701  1.0000
  S   S3        1.0  0.42829  0.00352  0.63705  1.0000
  S   S4        1.0  0.06929  0.49654  0.86299  1.0000
  Br  Br1       1.0  0.43432  0.87174  0.11951  1.0000
  Br  Br2       1.0  0.42566  0.62908  0.38030  1.0000
  Br  Br3       1.0  0.56571  0.12826  0.88049  1.0000
  Br  Br4       1.0  0.57432  0.37093  0.61970  1.0000
  N   N1        1.0  0.72067  0.17998  0.10001  1.0000
  N   N2        1.0  0.00039  0.32038  0.39995  1.0000
  N   N3        1.0  0.27934  0.82002  0.89998  1.0000
  N   N4        1.0  0.99960  0.67963  0.60005  1.0000
  O   O1        1.0  0.71775  0.85009  0.40802  1.0000
  O   O2        1.0  0.97557  0.64987  0.09180  1.0000
  O   O3        1.0  0.28224  0.14990  0.59197  1.0000
  O   O4        1.0  0.02443  0.35013  0.90820  1.0000
  O   O5        1.0  0.60737  0.11172  0.39530  1.0000
  O   O6        1.0  0.11466  0.38806  0.10510  1.0000
  O   O7        1.0  0.39264  0.88826  0.60470  1.0000
  O   O8        1.0  0.88534  0.61194  0.89490  1.0000
  O   O9        1.0  0.28490  0.00210  0.35801  1.0000
  O   O10       1.0  0.64494  0.49737  0.14158  1.0000
  O   O11       1.0  0.71509  0.99790  0.64199  1.0000
  O   O12       1.0  0.35506  0.50263  0.85842  1.0000
