data_image0
_chemical_formula_structural       Zn2H40C40S4N4O12
_chemical_formula_sum              "Zn2 H40 C40 S4 N4 O12"
_cell_length_a       7.85999
_cell_length_b       11.9286
_cell_length_c       12.0769
_cell_angle_alpha    64.05
_cell_angle_beta     89.3427
_cell_angle_gamma    89.3458

_space_group_name_H-M_alt    "P 1"
_space_group_IT_number       1

loop_
  _space_group_symop_operation_xyz
  'x, y, z'

loop_
  _atom_site_type_symbol
  _atom_site_label
  _atom_site_symmetry_multiplicity
  _atom_site_fract_x
  _atom_site_fract_y
  _atom_site_fract_z
  _atom_site_occupancy
  Zn  Zn1       1.0  0.24884  0.22495  0.77469  1.0000
  Zn  Zn2       1.0  0.75117  0.77504  0.22532  1.0000
  H   H1        1.0  0.12352  0.98123  0.87287  1.0000
  H   H2        1.0  0.37619  0.12762  0.01618  1.0000
  H   H3        1.0  0.87648  0.01876  0.12713  1.0000
  H   H4        1.0  0.62381  0.87238  0.98382  1.0000
  H   H5        1.0  0.31652  0.00681  0.83507  1.0000
  H   H6        1.0  0.18283  0.16466  0.99051  1.0000
  H   H7        1.0  0.68348  0.99318  0.16492  1.0000
  H   H8        1.0  0.81718  0.83534  0.00949  1.0000
  H   H9        1.0  0.40482  0.41102  0.86581  1.0000
  H   H10       1.0  0.09093  0.13152  0.59172  1.0000
  H   H11       1.0  0.59519  0.58898  0.13419  1.0000
  H   H12       1.0  0.90908  0.86848  0.40828  1.0000
  H   H13       1.0  0.51414  0.63168  0.76697  1.0000
  H   H14       1.0  0.98684  0.23012  0.37249  1.0000
  H   H15       1.0  0.48586  0.36832  0.23303  1.0000
  H   H16       1.0  0.01318  0.76987  0.62751  1.0000
  H   H17       1.0  0.48457  0.75481  0.53680  1.0000
  H   H18       1.0  0.02178  0.46238  0.24852  1.0000
  H   H19       1.0  0.51542  0.24519  0.46320  1.0000
  H   H20       1.0  0.97823  0.53762  0.75148  1.0000
  H   H21       1.0  0.34586  0.65856  0.41852  1.0000
  H   H22       1.0  0.15983  0.58290  0.34317  1.0000
  H   H23       1.0  0.65413  0.34144  0.58149  1.0000
  H   H24       1.0  0.84016  0.41710  0.65684  1.0000
  H   H25       1.0  0.85535  0.04605  0.81773  1.0000
  H   H26       1.0  0.64385  0.18114  0.95228  1.0000
  H   H27       1.0  0.14465  0.95395  0.18226  1.0000
  H   H28       1.0  0.35615  0.81886  0.04771  1.0000
  H   H29       1.0  0.80378  0.15811  0.66631  1.0000
  H   H30       1.0  0.69519  0.33506  0.84291  1.0000
  H   H31       1.0  0.19621  0.84189  0.33369  1.0000
  H   H32       1.0  0.30481  0.66494  0.15708  1.0000
  H   H33       1.0  0.43139  0.90080  0.72389  1.0000
  H   H34       1.0  0.06597  0.27304  0.10220  1.0000
  H   H35       1.0  0.56861  0.09921  0.27611  1.0000
  H   H36       1.0  0.93403  0.72696  0.89780  1.0000
  H   H37       1.0  0.79900  0.05421  0.42800  1.0000
  H   H38       1.0  0.70203  0.57410  0.94312  1.0000
  H   H39       1.0  0.20100  0.94579  0.57199  1.0000
  H   H40       1.0  0.29797  0.42591  0.05688  1.0000
  C   C1        1.0  0.39239  0.47028  0.76729  1.0000
  C   C2        1.0  0.10556  0.23091  0.53239  1.0000
  C   C3        1.0  0.60761  0.52972  0.23272  1.0000
  C   C4        1.0  0.89445  0.76908  0.46761  1.0000
  C   C5        1.0  0.45270  0.59222  0.71177  1.0000
  C   C6        1.0  0.04812  0.28632  0.41116  1.0000
  C   C7        1.0  0.54730  0.40777  0.28823  1.0000
  C   C8        1.0  0.95189  0.71368  0.58884  1.0000
  C   C9        1.0  0.43494  0.66052  0.58472  1.0000
  C   C10       1.0  0.06879  0.41452  0.34246  1.0000
  C   C11       1.0  0.56506  0.33948  0.41528  1.0000
  C   C12       1.0  0.93121  0.58548  0.65754  1.0000
  C   C13       1.0  0.35441  0.60641  0.51816  1.0000
  C   C14       1.0  0.14900  0.48227  0.39568  1.0000
  C   C15       1.0  0.64558  0.39360  0.48185  1.0000
  C   C16       1.0  0.85100  0.51773  0.60433  1.0000
  C   C17       1.0  0.29409  0.48451  0.58048  1.0000
  C   C18       1.0  0.20639  0.41991  0.51695  1.0000
  C   C19       1.0  0.70590  0.51549  0.41953  1.0000
  C   C20       1.0  0.79360  0.58009  0.48305  1.0000
  C   C21       1.0  0.58589  0.07949  0.78519  1.0000
  C   C22       1.0  0.91321  0.21468  0.91988  1.0000
  C   C23       1.0  0.41411  0.92051  0.21481  1.0000
  C   C24       1.0  0.08679  0.78532  0.08011  1.0000
  C   C25       1.0  0.76581  0.06900  0.74155  1.0000
  C   C26       1.0  0.73305  0.25832  0.93059  1.0000
  C   C27       1.0  0.23418  0.93100  0.25845  1.0000
  C   C28       1.0  0.26695  0.74169  0.06941  1.0000
  C   C29       1.0  0.63041  0.97611  0.58626  1.0000
  C   C30       1.0  0.86883  0.41320  0.02406  1.0000
  C   C31       1.0  0.36959  0.02389  0.41374  1.0000
  C   C32       1.0  0.13117  0.58681  0.97594  1.0000
  C   C33       1.0  0.46148  0.94513  0.62590  1.0000
  C   C34       1.0  0.03703  0.37235  0.05681  1.0000
  C   C35       1.0  0.53852  0.05487  0.37409  1.0000
  C   C36       1.0  0.96297  0.62765  0.94319  1.0000
  C   C37       1.0  0.66800  0.03031  0.45977  1.0000
  C   C38       1.0  0.83262  0.54145  0.96793  1.0000
  C   C39       1.0  0.33200  0.96969  0.54022  1.0000
  C   C40       1.0  0.16737  0.45855  0.03207  1.0000
  S   S1        1.0  0.79642  0.94369  0.69532  1.0000
  S   S2        1.0  0.70211  0.30335  0.05554  1.0000
  S   S3        1.0  0.20358  0.05631  0.30467  1.0000
  S   S4        1.0  0.29789  0.69665  0.94446  1.0000
  N   N1        1.0  0.31618  0.41790  0.70291  1.0000
  N   N2        1.0  0.18176  0.29639  0.58379  1.0000
  N   N3        1.0  0.68382  0.58210  0.29710  1.0000
  N   N4        1.0  0.81824  0.70361  0.41621  1.0000
  O   O1        1.0  0.19928  0.04079  0.80625  1.0000
  O   O2        1.0  0.29996  0.19372  0.95644  1.0000
  O   O3        1.0  0.80072  0.95920  0.19375  1.0000
  O   O4        1.0  0.70004  0.80627  0.04356  1.0000
  O   O5        1.0  0.51354  0.18532  0.73259  1.0000
  O   O6        1.0  0.98462  0.26714  0.81493  1.0000
  O   O7        1.0  0.48646  0.81468  0.26741  1.0000
  O   O8        1.0  0.01538  0.73285  0.18507  1.0000
  O   O9        1.0  0.51786  0.98314  0.87004  1.0000
  O   O10       1.0  0.98237  0.12987  0.01525  1.0000
  O   O11       1.0  0.48214  0.01686  0.12996  1.0000
  O   O12       1.0  0.01763  0.87013  0.98475  1.0000
