data_image0
_chemical_formula_structural       Cd8H40C64O32
_chemical_formula_sum              "Cd8 H40 C64 O32"
_cell_length_a       6.56097
_cell_length_b       9.06741
_cell_length_c       27.9974
_cell_angle_alpha    95.1493
_cell_angle_beta     90
_cell_angle_gamma    111.21

_space_group_name_H-M_alt    "P 1"
_space_group_IT_number       1

loop_
  _space_group_symop_operation_xyz
  'x, y, z'

loop_
  _atom_site_type_symbol
  _atom_site_label
  _atom_site_symmetry_multiplicity
  _atom_site_fract_x
  _atom_site_fract_y
  _atom_site_fract_z
  _atom_site_occupancy
  Cd  Cd1       1.0  0.68256  0.58943  0.71948  1.0000
  Cd  Cd2       1.0  0.09270  0.41016  0.78061  1.0000
  Cd  Cd3       1.0  0.31744  0.41057  0.28052  1.0000
  Cd  Cd4       1.0  0.90730  0.58984  0.21939  1.0000
  Cd  Cd5       1.0  0.18295  0.81716  0.77948  1.0000
  Cd  Cd6       1.0  0.36499  0.18253  0.72055  1.0000
  Cd  Cd7       1.0  0.81705  0.18284  0.22052  1.0000
  Cd  Cd8       1.0  0.63501  0.81747  0.27945  1.0000
  H   H1        1.0  0.11978  0.57923  0.70621  1.0000
  H   H2        1.0  0.54009  0.42037  0.79384  1.0000
  H   H3        1.0  0.88022  0.42077  0.29379  1.0000
  H   H4        1.0  0.45991  0.57963  0.20616  1.0000
  H   H5        1.0  0.39820  0.21795  0.57630  1.0000
  H   H6        1.0  0.17960  0.78191  0.92379  1.0000
  H   H7        1.0  0.60180  0.78205  0.42370  1.0000
  H   H8        1.0  0.82040  0.21809  0.07622  1.0000
  H   H9        1.0  0.17879  0.12308  0.49908  1.0000
  H   H10       1.0  0.05488  0.87700  0.00094  1.0000
  H   H11       1.0  0.82121  0.87692  0.50092  1.0000
  H   H12       1.0  0.94512  0.12300  0.99906  1.0000
  H   H13       1.0  0.80140  0.41236  0.54086  1.0000
  H   H14       1.0  0.38829  0.58789  0.95907  1.0000
  H   H15       1.0  0.19860  0.58764  0.45914  1.0000
  H   H16       1.0  0.61172  0.41210  0.04093  1.0000
  H   H17       1.0  0.02431  0.50983  0.61667  1.0000
  H   H18       1.0  0.51392  0.49000  0.88335  1.0000
  H   H19       1.0  0.97569  0.49017  0.38333  1.0000
  H   H20       1.0  0.48608  0.51001  0.11665  1.0000
  H   H21       1.0  0.12695  0.24893  0.42321  1.0000
  H   H22       1.0  0.87730  0.75147  0.07668  1.0000
  H   H23       1.0  0.87305  0.75107  0.57679  1.0000
  H   H24       1.0  0.12270  0.24853  0.92332  1.0000
  H   H25       1.0  0.31794  0.03240  0.42778  1.0000
  H   H26       1.0  0.28501  0.96822  0.07220  1.0000
  H   H27       1.0  0.68206  0.96760  0.57222  1.0000
  H   H28       1.0  0.71499  0.03177  0.92780  1.0000
  H   H29       1.0  0.53777  0.15819  0.50160  1.0000
  H   H30       1.0  0.37873  0.84231  0.99837  1.0000
  H   H31       1.0  0.46223  0.84181  0.49840  1.0000
  H   H32       1.0  0.62126  0.15768  0.00163  1.0000
  H   H33       1.0  0.18379  0.01102  0.35129  1.0000
  H   H34       1.0  0.17214  0.98888  0.14878  1.0000
  H   H35       1.0  0.81621  0.98898  0.64871  1.0000
  H   H36       1.0  0.82785  0.01111  0.85122  1.0000
  H   H37       1.0  0.20406  0.83496  0.37193  1.0000
  H   H38       1.0  0.36773  0.16507  0.12806  1.0000
  H   H39       1.0  0.79594  0.16504  0.62807  1.0000
  H   H40       1.0  0.63226  0.83493  0.87194  1.0000
  C   C1        1.0  0.36582  0.43227  0.64578  1.0000
  C   C2        1.0  0.93344  0.56757  0.85431  1.0000
  C   C3        1.0  0.63418  0.56773  0.35422  1.0000
  C   C4        1.0  0.06656  0.43244  0.14569  1.0000
  C   C5        1.0  0.22677  0.37066  0.60097  1.0000
  C   C6        1.0  0.85567  0.62915  0.89908  1.0000
  C   C7        1.0  0.77323  0.62935  0.39903  1.0000
  C   C8        1.0  0.14433  0.37085  0.10092  1.0000
  C   C9        1.0  0.26894  0.26108  0.56774  1.0000
  C   C10       1.0  0.00722  0.73878  0.93233  1.0000
  C   C11       1.0  0.73106  0.73892  0.43226  1.0000
  C   C12       1.0  0.99279  0.26122  0.06767  1.0000
  C   C13       1.0  0.14743  0.20933  0.52477  1.0000
  C   C14       1.0  0.93730  0.79071  0.97525  1.0000
  C   C15       1.0  0.85257  0.79067  0.47523  1.0000
  C   C16       1.0  0.06270  0.20929  0.02475  1.0000
  C   C17       1.0  0.97758  0.26262  0.51438  1.0000
  C   C18       1.0  0.71409  0.73768  0.98557  1.0000
  C   C19       1.0  0.02241  0.73738  0.48562  1.0000
  C   C20       1.0  0.28591  0.26231  0.01443  1.0000
  C   C21       1.0  0.93187  0.36911  0.54849  1.0000
  C   C22       1.0  0.56207  0.63102  0.95146  1.0000
  C   C23       1.0  0.06813  0.63089  0.45151  1.0000
  C   C24       1.0  0.43793  0.36898  0.04854  1.0000
  C   C25       1.0  0.05702  0.42423  0.59099  1.0000
  C   C26       1.0  0.63230  0.57566  0.90901  1.0000
  C   C27       1.0  0.94298  0.57577  0.40901  1.0000
  C   C28       1.0  0.36771  0.42434  0.09099  1.0000
  C   C29       1.0  0.84880  0.20312  0.46889  1.0000
  C   C30       1.0  0.64487  0.79731  0.03105  1.0000
  C   C31       1.0  0.15120  0.79688  0.53111  1.0000
  C   C32       1.0  0.35513  0.20269  0.96895  1.0000
  C   C33       1.0  0.94938  0.19669  0.42512  1.0000
  C   C34       1.0  0.75201  0.80374  0.07479  1.0000
  C   C35       1.0  0.05061  0.80331  0.57488  1.0000
  C   C36       1.0  0.24799  0.19625  0.92521  1.0000
  C   C37       1.0  0.82920  0.13257  0.38198  1.0000
  C   C38       1.0  0.69614  0.86789  0.11795  1.0000
  C   C39       1.0  0.17080  0.86743  0.61802  1.0000
  C   C40       1.0  0.30386  0.13210  0.88205  1.0000
  C   C41       1.0  0.59883  0.06426  0.38354  1.0000
  C   C42       1.0  0.53408  0.93623  0.11642  1.0000
  C   C43       1.0  0.40117  0.93574  0.61646  1.0000
  C   C44       1.0  0.46592  0.06376  0.88358  1.0000
  C   C45       1.0  0.49545  0.07844  0.42657  1.0000
  C   C46       1.0  0.41644  0.92213  0.07340  1.0000
  C   C47       1.0  0.50455  0.92157  0.57343  1.0000
  C   C48       1.0  0.58355  0.07786  0.92660  1.0000
  C   C49       1.0  0.61990  0.14949  0.46830  1.0000
  C   C50       1.0  0.46962  0.85101  0.03167  1.0000
  C   C51       1.0  0.38010  0.85051  0.53170  1.0000
  C   C52       1.0  0.53038  0.14898  0.96833  1.0000
  C   C53       1.0  0.94987  0.15698  0.33625  1.0000
  C   C54       1.0  0.79224  0.84333  0.16368  1.0000
  C   C55       1.0  0.05013  0.84302  0.66375  1.0000
  C   C56       1.0  0.20776  0.15667  0.83632  1.0000
  C   C57       1.0  0.25332  0.91830  0.34402  1.0000
  C   C58       1.0  0.33421  0.08187  0.15600  1.0000
  C   C59       1.0  0.74668  0.08170  0.65598  1.0000
  C   C60       1.0  0.66578  0.91813  0.84400  1.0000
  C   C61       1.0  0.16306  0.82537  0.29636  1.0000
  C   C62       1.0  0.33706  0.17483  0.20364  1.0000
  C   C63       1.0  0.83694  0.17464  0.70364  1.0000
  C   C64       1.0  0.66294  0.82517  0.79636  1.0000
  O   O1        1.0  0.49304  0.35977  0.65774  1.0000
  O   O2        1.0  0.13313  0.64019  0.84241  1.0000
  O   O3        1.0  0.50696  0.64023  0.34226  1.0000
  O   O4        1.0  0.86687  0.35981  0.15759  1.0000
  O   O5        1.0  0.36158  0.55652  0.66980  1.0000
  O   O6        1.0  0.80522  0.44320  0.83029  1.0000
  O   O7        1.0  0.63842  0.44348  0.33020  1.0000
  O   O8        1.0  0.19478  0.55680  0.16971  1.0000
  O   O9        1.0  0.14065  0.26221  0.33957  1.0000
  O   O10       1.0  0.87742  0.73787  0.16033  1.0000
  O   O11       1.0  0.85935  0.73779  0.66043  1.0000
  O   O12       1.0  0.12259  0.26213  0.83967  1.0000
  O   O13       1.0  0.86056  0.07719  0.29643  1.0000
  O   O14       1.0  0.78289  0.92309  0.20352  1.0000
  O   O15       1.0  0.13944  0.92281  0.70357  1.0000
  O   O16       1.0  0.21711  0.07690  0.79648  1.0000
  O   O17       1.0  0.48538  0.98824  0.34225  1.0000
  O   O18       1.0  0.49676  0.01231  0.15770  1.0000
  O   O19       1.0  0.51461  0.01176  0.65775  1.0000
  O   O20       1.0  0.50324  0.98769  0.84230  1.0000
  O   O21       1.0  0.95528  0.76438  0.29192  1.0000
  O   O22       1.0  0.19036  0.23587  0.20807  1.0000
  O   O23       1.0  0.04472  0.23562  0.70808  1.0000
  O   O24       1.0  0.80964  0.76413  0.79193  1.0000
  O   O25       1.0  0.28625  0.80382  0.26396  1.0000
  O   O26       1.0  0.48182  0.19629  0.23603  1.0000
  O   O27       1.0  0.71375  0.19618  0.73604  1.0000
  O   O28       1.0  0.51818  0.80371  0.76397  1.0000
  O   O29       1.0  0.02915  0.58069  0.73415  1.0000
  O   O30       1.0  0.44806  0.41906  0.76591  1.0000
  O   O31       1.0  0.97085  0.41931  0.26585  1.0000
  O   O32       1.0  0.55194  0.58094  0.23409  1.0000
