data_image0
_chemical_formula_structural       Cu4H30C28S2Br4N6
_chemical_formula_sum              "Cu4 H30 C28 S2 Br4 N6"
_cell_length_a       8.62381
_cell_length_b       9.67935
_cell_length_c       10.3377
_cell_angle_alpha    97.1757
_cell_angle_beta     101.047
_cell_angle_gamma    93.414

_space_group_name_H-M_alt    "P 1"
_space_group_IT_number       1

loop_
  _space_group_symop_operation_xyz
  'x, y, z'

loop_
  _atom_site_type_symbol
  _atom_site_label
  _atom_site_symmetry_multiplicity
  _atom_site_fract_x
  _atom_site_fract_y
  _atom_site_fract_z
  _atom_site_occupancy
  Cu  Cu1       1.0  0.49887  0.32640  0.40746  1.0000
  Cu  Cu2       1.0  0.50113  0.67360  0.59254  1.0000
  Cu  Cu3       1.0  0.09261  0.40564  0.50325  1.0000
  Cu  Cu4       1.0  0.90740  0.59436  0.49676  1.0000
  H   H1        1.0  0.84295  0.23899  0.45329  1.0000
  H   H2        1.0  0.15705  0.76101  0.54671  1.0000
  H   H3        1.0  0.82259  0.05270  0.44099  1.0000
  H   H4        1.0  0.17741  0.94731  0.55900  1.0000
  H   H5        1.0  0.51801  0.05835  0.38737  1.0000
  H   H6        1.0  0.48199  0.94165  0.61264  1.0000
  H   H7        1.0  0.66772  0.26914  0.23301  1.0000
  H   H8        1.0  0.33228  0.73086  0.76698  1.0000
  H   H9        1.0  0.47100  0.16669  0.18238  1.0000
  H   H10       1.0  0.52899  0.83331  0.81762  1.0000
  H   H11       1.0  0.89259  0.43307  0.98538  1.0000
  H   H12       1.0  0.10740  0.56693  0.01463  1.0000
  H   H13       1.0  0.95097  0.29983  0.87572  1.0000
  H   H14       1.0  0.04903  0.70017  0.12428  1.0000
  H   H15       1.0  0.84328  0.21105  0.06919  1.0000
  H   H16       1.0  0.15671  0.78895  0.93081  1.0000
  H   H17       1.0  0.54875  0.18764  0.84008  1.0000
  H   H18       1.0  0.45124  0.81237  0.15991  1.0000
  H   H19       1.0  0.57837  0.09042  0.98476  1.0000
  H   H20       1.0  0.42161  0.90957  0.01523  1.0000
  H   H21       1.0  0.81374  0.76958  0.78153  1.0000
  H   H22       1.0  0.18625  0.23042  0.21848  1.0000
  H   H23       1.0  0.87638  0.96975  0.96305  1.0000
  H   H24       1.0  0.12362  0.03025  0.03695  1.0000
  H   H25       1.0  0.83224  0.94149  0.19096  1.0000
  H   H26       1.0  0.16776  0.05851  0.80904  1.0000
  H   H27       1.0  0.72126  0.71320  0.23414  1.0000
  H   H28       1.0  0.27874  0.28680  0.76586  1.0000
  H   H29       1.0  0.64784  0.51516  0.05067  1.0000
  H   H30       1.0  0.35217  0.48484  0.94933  1.0000
  C   C1        1.0  0.68713  0.51491  0.79403  1.0000
  C   C2        1.0  0.31287  0.48510  0.20597  1.0000
  C   C3        1.0  0.69991  0.31268  0.67486  1.0000
  C   C4        1.0  0.30010  0.68733  0.32514  1.0000
  C   C5        1.0  0.76399  0.14867  0.46263  1.0000
  C   C6        1.0  0.23602  0.85133  0.53737  1.0000
  C   C7        1.0  0.60382  0.14093  0.37432  1.0000
  C   C8        1.0  0.39618  0.85907  0.62568  1.0000
  C   C9        1.0  0.57474  0.20325  0.25970  1.0000
  C   C10       1.0  0.42526  0.79675  0.74030  1.0000
  C   C11       1.0  0.84811  0.34034  0.91216  1.0000
  C   C12       1.0  0.15190  0.65966  0.08784  1.0000
  C   C13       1.0  0.76975  0.23317  0.97687  1.0000
  C   C14       1.0  0.23023  0.76682  0.02312  1.0000
  C   C15       1.0  0.62564  0.16768  0.93125  1.0000
  C   C16       1.0  0.37437  0.83233  0.06874  1.0000
  C   C17       1.0  0.72422  0.63036  0.90379  1.0000
  C   C18       1.0  0.27578  0.36964  0.09622  1.0000
  C   C19       1.0  0.79161  0.75846  0.88039  1.0000
  C   C20       1.0  0.20839  0.24154  0.11961  1.0000
  C   C21       1.0  0.82817  0.87002  0.98321  1.0000
  C   C22       1.0  0.17182  0.12998  0.01679  1.0000
  C   C23       1.0  0.80196  0.85441  0.11019  1.0000
  C   C24       1.0  0.19804  0.14559  0.88981  1.0000
  C   C25       1.0  0.73847  0.72629  0.13445  1.0000
  C   C26       1.0  0.26153  0.27371  0.86555  1.0000
  C   C27       1.0  0.69853  0.61466  0.03141  1.0000
  C   C28       1.0  0.30147  0.38534  0.96859  1.0000
  S   S1        1.0  0.75720  0.14655  0.63744  1.0000
  S   S2        1.0  0.24281  0.85345  0.36257  1.0000
  Br  Br1       1.0  0.24439  0.21296  0.49010  1.0000
  Br  Br2       1.0  0.75560  0.78703  0.50989  1.0000
  Br  Br3       1.0  0.06397  0.54149  0.70614  1.0000
  Br  Br4       1.0  0.93603  0.45851  0.29387  1.0000
  N   N1        1.0  0.60794  0.51883  0.67077  1.0000
  N   N2        1.0  0.39206  0.48117  0.32923  1.0000
  N   N3        1.0  0.61463  0.39120  0.59580  1.0000
  N   N4        1.0  0.38538  0.60881  0.40420  1.0000
  N   N5        1.0  0.74388  0.38599  0.80023  1.0000
  N   N6        1.0  0.25613  0.61401  0.19977  1.0000
