data_image0
_chemical_formula_structural       Sn4H52C36N12
_chemical_formula_sum              "Sn4 H52 C36 N12"
_cell_length_a       7.19158
_cell_length_b       10.7473
_cell_length_c       14.8168
_cell_angle_alpha    90
_cell_angle_beta     90
_cell_angle_gamma    90

_space_group_name_H-M_alt    "P 1"
_space_group_IT_number       1

loop_
  _space_group_symop_operation_xyz
  'x, y, z'

loop_
  _atom_site_type_symbol
  _atom_site_label
  _atom_site_symmetry_multiplicity
  _atom_site_fract_x
  _atom_site_fract_y
  _atom_site_fract_z
  _atom_site_occupancy
  Sn  Sn1       1.0  0.62063  0.84407  0.74931  1.0000
  Sn  Sn2       1.0  0.12063  0.15594  0.25069  1.0000
  Sn  Sn3       1.0  0.62063  0.65593  0.24931  1.0000
  Sn  Sn4       1.0  0.12063  0.34407  0.75069  1.0000
  H   H1        1.0  0.22099  0.61650  0.09597  1.0000
  H   H2        1.0  0.72100  0.38350  0.90404  1.0000
  H   H3        1.0  0.22099  0.88350  0.59597  1.0000
  H   H4        1.0  0.72099  0.11650  0.40403  1.0000
  H   H5        1.0  0.20885  0.46522  0.96960  1.0000
  H   H6        1.0  0.70887  0.53478  0.03041  1.0000
  H   H7        1.0  0.20885  0.03478  0.46960  1.0000
  H   H8        1.0  0.70885  0.96522  0.53040  1.0000
  H   H9        1.0  0.56463  0.78098  0.57299  1.0000
  H   H10       1.0  0.06463  0.21902  0.42701  1.0000
  H   H11       1.0  0.56463  0.71902  0.07299  1.0000
  H   H12       1.0  0.06463  0.28098  0.92701  1.0000
  H   H13       1.0  0.40755  0.69536  0.64218  1.0000
  H   H14       1.0  0.90755  0.30464  0.35782  1.0000
  H   H15       1.0  0.40755  0.80464  0.14218  1.0000
  H   H16       1.0  0.90755  0.19536  0.85782  1.0000
  H   H17       1.0  0.64521  0.64801  0.63519  1.0000
  H   H18       1.0  0.14520  0.35199  0.36481  1.0000
  H   H19       1.0  0.64521  0.85199  0.13519  1.0000
  H   H20       1.0  0.14521  0.14801  0.86481  1.0000
  H   H21       1.0  0.40665  0.74779  0.88335  1.0000
  H   H22       1.0  0.90665  0.25222  0.11665  1.0000
  H   H23       1.0  0.40665  0.75222  0.38335  1.0000
  H   H24       1.0  0.90665  0.24779  0.61665  1.0000
  H   H25       1.0  0.30878  0.89343  0.84724  1.0000
  H   H26       1.0  0.80878  0.10657  0.15276  1.0000
  H   H27       1.0  0.30878  0.60657  0.34724  1.0000
  H   H28       1.0  0.80878  0.39343  0.65276  1.0000
  H   H29       1.0  0.50349  0.89102  0.92176  1.0000
  H   H30       1.0  0.00349  0.10898  0.07824  1.0000
  H   H31       1.0  0.50349  0.60898  0.42176  1.0000
  H   H32       1.0  0.00349  0.39102  0.57824  1.0000
  H   H33       1.0  0.94170  0.94320  0.68340  1.0000
  H   H34       1.0  0.44170  0.05680  0.31660  1.0000
  H   H35       1.0  0.94170  0.55681  0.18339  1.0000
  H   H36       1.0  0.44171  0.44319  0.81661  1.0000
  H   H37       1.0  0.95737  0.93868  0.80340  1.0000
  H   H38       1.0  0.45737  0.06132  0.19659  1.0000
  H   H39       1.0  0.95737  0.56132  0.30340  1.0000
  H   H40       1.0  0.45737  0.43868  0.69660  1.0000
  H   H41       1.0  0.82367  0.05747  0.74887  1.0000
  H   H42       1.0  0.32367  0.94253  0.25113  1.0000
  H   H43       1.0  0.82367  0.44253  0.24887  1.0000
  H   H44       1.0  0.32367  0.55747  0.75113  1.0000
  H   H45       1.0  0.82431  0.85925  0.96527  1.0000
  H   H46       1.0  0.32430  0.14075  0.03472  1.0000
  H   H47       1.0  0.82431  0.64075  0.46527  1.0000
  H   H48       1.0  0.32431  0.35925  0.53472  1.0000
  H   H49       1.0  0.03188  0.80919  0.09456  1.0000
  H   H50       1.0  0.53189  0.19081  0.90544  1.0000
  H   H51       1.0  0.03189  0.69081  0.59456  1.0000
  H   H52       1.0  0.53189  0.30919  0.40544  1.0000
  C   C1        1.0  0.13061  0.63478  0.03853  1.0000
  C   C2        1.0  0.63061  0.36522  0.96147  1.0000
  C   C3        1.0  0.13060  0.86522  0.53853  1.0000
  C   C4        1.0  0.63061  0.13478  0.46147  1.0000
  C   C5        1.0  0.12427  0.54935  0.96839  1.0000
  C   C6        1.0  0.62428  0.45065  0.03162  1.0000
  C   C7        1.0  0.12427  0.95066  0.46839  1.0000
  C   C8        1.0  0.62427  0.04934  0.53161  1.0000
  C   C9        1.0  0.00576  0.57738  0.89575  1.0000
  C   C10       1.0  0.50576  0.42262  0.10425  1.0000
  C   C11       1.0  0.00575  0.92263  0.39575  1.0000
  C   C12       1.0  0.50576  0.07738  0.60424  1.0000
  C   C13       1.0  0.55119  0.72816  0.63582  1.0000
  C   C14       1.0  0.05118  0.27184  0.36418  1.0000
  C   C15       1.0  0.55119  0.77184  0.13582  1.0000
  C   C16       1.0  0.05119  0.22816  0.86418  1.0000
  C   C17       1.0  0.89907  0.68817  0.89436  1.0000
  C   C18       1.0  0.39906  0.31183  0.10564  1.0000
  C   C19       1.0  0.89907  0.81184  0.39436  1.0000
  C   C20       1.0  0.39906  0.18817  0.60564  1.0000
  C   C21       1.0  0.43749  0.84422  0.86425  1.0000
  C   C22       1.0  0.93750  0.15578  0.13575  1.0000
  C   C23       1.0  0.43750  0.65578  0.36425  1.0000
  C   C24       1.0  0.93750  0.34422  0.63575  1.0000
  C   C25       1.0  0.86561  0.95961  0.74637  1.0000
  C   C26       1.0  0.36561  0.04039  0.25362  1.0000
  C   C27       1.0  0.86561  0.54040  0.24637  1.0000
  C   C28       1.0  0.36562  0.45960  0.75363  1.0000
  C   C29       1.0  0.90670  0.77419  0.96578  1.0000
  C   C30       1.0  0.40669  0.22581  0.03422  1.0000
  C   C31       1.0  0.90670  0.72581  0.46578  1.0000
  C   C32       1.0  0.40670  0.27419  0.53422  1.0000
  C   C33       1.0  0.02323  0.74538  0.03743  1.0000
  C   C34       1.0  0.52323  0.25461  0.96257  1.0000
  C   C35       1.0  0.02323  0.75462  0.53743  1.0000
  C   C36       1.0  0.52323  0.24538  0.46257  1.0000
  N   N1        1.0  0.96599  0.51577  0.81680  1.0000
  N   N2        1.0  0.46599  0.48422  0.18320  1.0000
  N   N3        1.0  0.96599  0.98423  0.31680  1.0000
  N   N4        1.0  0.46599  0.01577  0.68320  1.0000
  N   N5        1.0  0.80241  0.68694  0.81443  1.0000
  N   N6        1.0  0.30240  0.31306  0.18557  1.0000
  N   N7        1.0  0.80241  0.81306  0.31443  1.0000
  N   N8        1.0  0.30241  0.18694  0.68556  1.0000
  N   N9        1.0  0.84584  0.58373  0.76944  1.0000
  N   N10       1.0  0.34584  0.41627  0.23056  1.0000
  N   N11       1.0  0.84584  0.91627  0.26944  1.0000
  N   N12       1.0  0.34584  0.08373  0.73056  1.0000
