data_image0
_chemical_formula_structural       Cu2Si2H32C44N8O4F12
_chemical_formula_sum              "Cu2 Si2 H32 C44 N8 O4 F12"
_cell_length_a       8.00661
_cell_length_b       11.3065
_cell_length_c       13.8908
_cell_angle_alpha    74.4249
_cell_angle_beta     73.4913
_cell_angle_gamma    69.3087

_space_group_name_H-M_alt    "P 1"
_space_group_IT_number       1

loop_
  _space_group_symop_operation_xyz
  'x, y, z'

loop_
  _atom_site_type_symbol
  _atom_site_label
  _atom_site_symmetry_multiplicity
  _atom_site_fract_x
  _atom_site_fract_y
  _atom_site_fract_z
  _atom_site_occupancy
  Cu  Cu1       1.0  0.73776  0.25080  0.74991  1.0000
  Cu  Cu2       1.0  0.26224  0.74920  0.25009  1.0000
  Si  Si1       1.0  0.23493  0.25042  0.75007  1.0000
  Si  Si2       1.0  0.76505  0.74959  0.24994  1.0000
  H   H1        1.0  0.46937  0.43957  0.62960  1.0000
  H   H2        1.0  0.53890  0.06230  0.86977  1.0000
  H   H3        1.0  0.53064  0.56042  0.37040  1.0000
  H   H4        1.0  0.46110  0.93770  0.13023  1.0000
  H   H5        1.0  0.45709  0.65222  0.51192  1.0000
  H   H6        1.0  0.62210  0.84893  0.98669  1.0000
  H   H7        1.0  0.54294  0.34776  0.48807  1.0000
  H   H8        1.0  0.37790  0.15107  0.01332  1.0000
  H   H9        1.0  0.66733  0.77038  0.50981  1.0000
  H   H10       1.0  0.94801  0.73029  0.98881  1.0000
  H   H11       1.0  0.33268  0.22960  0.49018  1.0000
  H   H12       1.0  0.05199  0.26971  0.01119  1.0000
  H   H13       1.0  0.88000  0.46022  0.74654  1.0000
  H   H14       1.0  0.08585  0.04094  0.75305  1.0000
  H   H15       1.0  0.11999  0.53979  0.25346  1.0000
  H   H16       1.0  0.91416  0.95907  0.24696  1.0000
  H   H17       1.0  0.06631  0.85071  0.66911  1.0000
  H   H18       1.0  0.58538  0.65041  0.83048  1.0000
  H   H19       1.0  0.93369  0.14929  0.33090  1.0000
  H   H20       1.0  0.41462  0.34956  0.16953  1.0000
  H   H21       1.0  0.28156  0.95220  0.53060  1.0000
  H   H22       1.0  0.76407  0.54812  0.96950  1.0000
  H   H23       1.0  0.71845  0.04779  0.46940  1.0000
  H   H24       1.0  0.23592  0.45187  0.03050  1.0000
  H   H25       1.0  0.35302  0.90456  0.35436  1.0000
  H   H26       1.0  0.61267  0.59437  0.14596  1.0000
  H   H27       1.0  0.64697  0.09543  0.64564  1.0000
  H   H28       1.0  0.38734  0.40564  0.85404  1.0000
  H   H29       1.0  0.99964  0.68254  0.44264  1.0000
  H   H30       1.0  0.12543  0.81634  0.05696  1.0000
  H   H31       1.0  0.00035  0.31745  0.55736  1.0000
  H   H32       1.0  0.87458  0.18367  0.94304  1.0000
  C   C1        1.0  0.55995  0.49421  0.62638  1.0000
  C   C2        1.0  0.68080  0.00738  0.87295  1.0000
  C   C3        1.0  0.44007  0.50578  0.37362  1.0000
  C   C4        1.0  0.31920  0.99262  0.12706  1.0000
  C   C5        1.0  0.55234  0.61283  0.56277  1.0000
  C   C6        1.0  0.72848  0.88837  0.93616  1.0000
  C   C7        1.0  0.44768  0.38715  0.43722  1.0000
  C   C8        1.0  0.27153  0.11163  0.06384  1.0000
  C   C9        1.0  0.66904  0.67956  0.56308  1.0000
  C   C10       1.0  0.91203  0.82142  0.93584  1.0000
  C   C11       1.0  0.33096  0.32043  0.43691  1.0000
  C   C12       1.0  0.08799  0.17858  0.06416  1.0000
  C   C13       1.0  0.78395  0.62713  0.63297  1.0000
  C   C14       1.0  0.04390  0.87381  0.86632  1.0000
  C   C15       1.0  0.21605  0.37287  0.36703  1.0000
  C   C16       1.0  0.95612  0.12619  0.13368  1.0000
  C   C17       1.0  0.78646  0.50609  0.69443  1.0000
  C   C18       1.0  0.98656  0.99509  0.80508  1.0000
  C   C19       1.0  0.21354  0.49391  0.30557  1.0000
  C   C20       1.0  0.01345  0.00491  0.19492  1.0000
  C   C21       1.0  0.01315  0.76121  0.56702  1.0000
  C   C22       1.0  0.34124  0.73894  0.93254  1.0000
  C   C23       1.0  0.98684  0.23879  0.43299  1.0000
  C   C24       1.0  0.65877  0.26106  0.06746  1.0000
  C   C25       1.0  0.09479  0.83822  0.59049  1.0000
  C   C26       1.0  0.52316  0.66230  0.90917  1.0000
  C   C27       1.0  0.90520  0.16178  0.40951  1.0000
  C   C28       1.0  0.47685  0.33768  0.09083  1.0000
  C   C29       1.0  0.21447  0.89343  0.51405  1.0000
  C   C30       1.0  0.62186  0.60663  0.98590  1.0000
  C   C31       1.0  0.78553  0.10656  0.48594  1.0000
  C   C32       1.0  0.37814  0.39336  0.01411  1.0000
  C   C33       1.0  0.25317  0.86870  0.41575  1.0000
  C   C34       1.0  0.53800  0.63054  0.08436  1.0000
  C   C35       1.0  0.74683  0.13129  0.58424  1.0000
  C   C36       1.0  0.46200  0.36947  0.91564  1.0000
  C   C37       1.0  0.05706  0.74184  0.46627  1.0000
  C   C38       1.0  0.26554  0.75738  0.03343  1.0000
  C   C39       1.0  0.94293  0.25815  0.53374  1.0000
  C   C40       1.0  0.73447  0.24263  0.96657  1.0000
  C   C41       1.0  0.89708  0.69472  0.65286  1.0000
  C   C42       1.0  0.24398  0.80594  0.84659  1.0000
  C   C43       1.0  0.10290  0.30530  0.34715  1.0000
  C   C44       1.0  0.75603  0.19406  0.15342  1.0000
  N   N1        1.0  0.68130  0.43999  0.68826  1.0000
  N   N2        1.0  0.80939  0.06150  0.81136  1.0000
  N   N3        1.0  0.31871  0.56002  0.31174  1.0000
  N   N4        1.0  0.19062  0.93850  0.18865  1.0000
  N   N5        1.0  0.17626  0.79367  0.39312  1.0000
  N   N6        1.0  0.36362  0.70517  0.10690  1.0000
  N   N7        1.0  0.82373  0.20632  0.60688  1.0000
  N   N8        1.0  0.63639  0.29484  0.89310  1.0000
  O   O1        1.0  0.89662  0.69304  0.74211  1.0000
  O   O2        1.0  0.33037  0.80799  0.75741  1.0000
  O   O3        1.0  0.10336  0.30697  0.25789  1.0000
  O   O4        1.0  0.66964  0.19203  0.24259  1.0000
  F   F1        1.0  0.14127  0.34933  0.83887  1.0000
  F   F2        1.0  0.32574  0.15144  0.66129  1.0000
  F   F3        1.0  0.85869  0.65067  0.16114  1.0000
  F   F4        1.0  0.67424  0.84858  0.33870  1.0000
  F   F5        1.0  0.01870  0.25048  0.75093  1.0000
  F   F6        1.0  0.98129  0.74952  0.24907  1.0000
  F   F7        1.0  0.25440  0.11797  0.84636  1.0000
  F   F8        1.0  0.21557  0.38288  0.65366  1.0000
  F   F9        1.0  0.74560  0.88204  0.15364  1.0000
  F   F10       1.0  0.78438  0.61714  0.34634  1.0000
  F   F11       1.0  0.45143  0.25062  0.74923  1.0000
  F   F12       1.0  0.54854  0.74941  0.25077  1.0000
