data_image0
_chemical_formula_structural       NiH20C22N4O6
_chemical_formula_sum              "Ni1 H20 C22 N4 O6"
_cell_length_a       7.54607
_cell_length_b       8.05682
_cell_length_c       8.90202
_cell_angle_alpha    90.0058
_cell_angle_beta     82.996
_cell_angle_gamma    83.9604

_space_group_name_H-M_alt    "P 1"
_space_group_IT_number       1

loop_
  _space_group_symop_operation_xyz
  'x, y, z'

loop_
  _atom_site_type_symbol
  _atom_site_label
  _atom_site_symmetry_multiplicity
  _atom_site_fract_x
  _atom_site_fract_y
  _atom_site_fract_z
  _atom_site_occupancy
  Ni  Ni1       1.0  1.00000  0.00001  0.00001  1.0000
  H   H1        1.0  0.80305  0.31346  0.15213  1.0000
  H   H2        1.0  0.19695  0.68656  0.84788  1.0000
  H   H3        1.0  0.62494  0.07057  0.67312  1.0000
  H   H4        1.0  0.37506  0.92942  0.32688  1.0000
  H   H5        1.0  0.72875  0.77292  0.71473  1.0000
  H   H6        1.0  0.27125  0.22707  0.28525  1.0000
  H   H7        1.0  0.90507  0.59829  0.51218  1.0000
  H   H8        1.0  0.09493  0.40171  0.48781  1.0000
  H   H9        1.0  0.99611  0.71698  0.25561  1.0000
  H   H10       1.0  0.00388  0.28303  0.74438  1.0000
  H   H11       1.0  0.68026  0.32669  0.66979  1.0000
  H   H12       1.0  0.31974  0.67332  0.33022  1.0000
  H   H13       1.0  0.48310  0.56951  0.77303  1.0000
  H   H14       1.0  0.51689  0.43049  0.22698  1.0000
  H   H15       1.0  0.37891  0.05411  0.92432  1.0000
  H   H16       1.0  0.62109  0.94588  0.07567  1.0000
  H   H17       1.0  0.62684  0.33459  0.94697  1.0000
  H   H18       1.0  0.37320  0.66541  0.05302  1.0000
  H   H19       1.0  0.71525  0.50023  0.94307  1.0000
  H   H20       1.0  0.28477  0.49977  0.05693  1.0000
  C   C1        1.0  0.80497  0.21042  0.23143  1.0000
  C   C2        1.0  0.19503  0.78959  0.76858  1.0000
  C   C3        1.0  0.75454  0.06032  0.44016  1.0000
  C   C4        1.0  0.24544  0.93967  0.55985  1.0000
  C   C5        1.0  0.70474  0.99525  0.58277  1.0000
  C   C6        1.0  0.29525  0.00476  0.41723  1.0000
  C   C7        1.0  0.76285  0.82825  0.60484  1.0000
  C   C8        1.0  0.23713  0.17175  0.39515  1.0000
  C   C9        1.0  0.86537  0.72870  0.48882  1.0000
  C   C10       1.0  0.13461  0.27130  0.51117  1.0000
  C   C11       1.0  0.91475  0.79195  0.34616  1.0000
  C   C12       1.0  0.08524  0.20806  0.65383  1.0000
  C   C13       1.0  0.85753  0.95986  0.32350  1.0000
  C   C14       1.0  0.14246  0.04015  0.67649  1.0000
  C   C15       1.0  0.61115  0.36060  0.44062  1.0000
  C   C16       1.0  0.38884  0.63941  0.55939  1.0000
  C   C17       1.0  0.59865  0.39847  0.59489  1.0000
  C   C18       1.0  0.40134  0.60153  0.40512  1.0000
  C   C19       1.0  0.48726  0.53753  0.65381  1.0000
  C   C20       1.0  0.51275  0.46248  0.34619  1.0000
  C   C21       1.0  0.31100  0.17110  0.97967  1.0000
  C   C22       1.0  0.68902  0.82888  0.02034  1.0000
  N   N1        1.0  0.88484  0.05842  0.19568  1.0000
  N   N2        1.0  0.11515  0.94158  0.80432  1.0000
  N   N3        1.0  0.72242  0.21852  0.37706  1.0000
  N   N4        1.0  0.27757  0.78148  0.62295  1.0000
  O   O1        1.0  0.14029  0.17962  0.01747  1.0000
  O   O2        1.0  0.85972  0.82038  0.98254  1.0000
  O   O3        1.0  0.40143  0.28791  0.00430  1.0000
  O   O4        1.0  0.59862  0.71206  0.99570  1.0000
  O   O5        1.0  0.74455  0.37871  0.92695  1.0000
  O   O6        1.0  0.25548  0.62129  0.07304  1.0000
