data_image0
_chemical_formula_structural       Zn4H44C40O26
_chemical_formula_sum              "Zn4 H44 C40 O26"
_cell_length_a       7.47258
_cell_length_b       11.3691
_cell_length_c       13.5294
_cell_angle_alpha    77.2594
_cell_angle_beta     85.5184
_cell_angle_gamma    73.6897

_space_group_name_H-M_alt    "P 1"
_space_group_IT_number       1

loop_
  _space_group_symop_operation_xyz
  'x, y, z'

loop_
  _atom_site_type_symbol
  _atom_site_label
  _atom_site_symmetry_multiplicity
  _atom_site_fract_x
  _atom_site_fract_y
  _atom_site_fract_z
  _atom_site_occupancy
  Zn  Zn1       1.0  0.64089  0.83981  0.07081  1.0000
  Zn  Zn2       1.0  0.35911  0.16019  0.92919  1.0000
  Zn  Zn3       1.0  0.26038  0.61131  0.92220  1.0000
  Zn  Zn4       1.0  0.73962  0.38869  0.07779  1.0000
  H   H1        1.0  0.98631  0.85712  0.01469  1.0000
  H   H2        1.0  0.01369  0.14288  0.98531  1.0000
  H   H3        1.0  0.90435  0.94823  0.08913  1.0000
  H   H4        1.0  0.09565  0.05177  0.91087  1.0000
  H   H5        1.0  0.30680  0.87594  0.99990  1.0000
  H   H6        1.0  0.69320  0.12406  0.00010  1.0000
  H   H7        1.0  0.34106  0.74899  0.07601  1.0000
  H   H8        1.0  0.65894  0.25101  0.92399  1.0000
  H   H9        1.0  0.87419  0.71741  0.91821  1.0000
  H   H10       1.0  0.12581  0.28259  0.08179  1.0000
  H   H11       1.0  0.90784  0.59726  0.00262  1.0000
  H   H12       1.0  0.09216  0.40274  0.99738  1.0000
  H   H13       1.0  0.18878  0.26471  0.23372  1.0000
  H   H14       1.0  0.81122  0.73530  0.76628  1.0000
  H   H15       1.0  0.08859  0.25153  0.41474  1.0000
  H   H16       1.0  0.91140  0.74848  0.58526  1.0000
  H   H17       1.0  0.38574  0.85888  0.48110  1.0000
  H   H18       1.0  0.61424  0.14113  0.51891  1.0000
  H   H19       1.0  0.49164  0.87412  0.30142  1.0000
  H   H20       1.0  0.50836  0.12588  0.69859  1.0000
  H   H21       1.0  0.36640  0.91068  0.63746  1.0000
  H   H22       1.0  0.63360  0.08933  0.36254  1.0000
  H   H23       1.0  0.16335  0.87043  0.60952  1.0000
  H   H24       1.0  0.83666  0.12958  0.39048  1.0000
  H   H25       1.0  0.16951  0.05417  0.74492  1.0000
  H   H26       1.0  0.83048  0.94583  0.25508  1.0000
  H   H27       1.0  0.96963  0.01408  0.71768  1.0000
  H   H28       1.0  0.03036  0.98592  0.28232  1.0000
  H   H29       1.0  0.53414  0.65599  0.69956  1.0000
  H   H30       1.0  0.46586  0.34400  0.30044  1.0000
  H   H31       1.0  0.60753  0.64376  0.51913  1.0000
  H   H32       1.0  0.39247  0.35623  0.48087  1.0000
  H   H33       1.0  0.94070  0.26182  0.61360  1.0000
  H   H34       1.0  0.05931  0.73818  0.38640  1.0000
  H   H35       1.0  0.87589  0.27828  0.79456  1.0000
  H   H36       1.0  0.12412  0.72172  0.20544  1.0000
  H   H37       1.0  0.80304  0.61715  0.38155  1.0000
  H   H38       1.0  0.19696  0.38285  0.61845  1.0000
  H   H39       1.0  0.59749  0.56513  0.38336  1.0000
  H   H40       1.0  0.40252  0.43486  0.61664  1.0000
  H   H41       1.0  0.96828  0.46615  0.27464  1.0000
  H   H42       1.0  0.03173  0.53385  0.72536  1.0000
  H   H43       1.0  0.77325  0.40600  0.28010  1.0000
  H   H44       1.0  0.22675  0.59400  0.71990  1.0000
  C   C1        1.0  0.40471  0.07371  0.14823  1.0000
  C   C2        1.0  0.59530  0.92628  0.85178  1.0000
  C   C3        1.0  0.34540  0.06955  0.25555  1.0000
  C   C4        1.0  0.65459  0.93045  0.74445  1.0000
  C   C5        1.0  0.23113  0.17592  0.28783  1.0000
  C   C6        1.0  0.76886  0.82409  0.71217  1.0000
  C   C7        1.0  0.17556  0.16949  0.38850  1.0000
  C   C8        1.0  0.82444  0.83052  0.61150  1.0000
  C   C9        1.0  0.22977  0.05502  0.45865  1.0000
  C   C10       1.0  0.77022  0.94498  0.54136  1.0000
  C   C11       1.0  0.34361  0.94791  0.42740  1.0000
  C   C12       1.0  0.65638  0.05210  0.57260  1.0000
  C   C13       1.0  0.40239  0.95637  0.32651  1.0000
  C   C14       1.0  0.59761  0.04363  0.67350  1.0000
  C   C15       1.0  0.21379  0.94336  0.63071  1.0000
  C   C16       1.0  0.78621  0.05665  0.36928  1.0000
  C   C17       1.0  0.12157  0.97813  0.72768  1.0000
  C   C18       1.0  0.87843  0.02187  0.27232  1.0000
  C   C19       1.0  0.15358  0.87174  0.81935  1.0000
  C   C20       1.0  0.84642  0.12826  0.18064  1.0000
  C   C21       1.0  0.65154  0.47936  0.86532  1.0000
  C   C22       1.0  0.34847  0.52064  0.13468  1.0000
  C   C23       1.0  0.69650  0.46806  0.75835  1.0000
  C   C24       1.0  0.30351  0.53193  0.24165  1.0000
  C   C25       1.0  0.62344  0.57022  0.67990  1.0000
  C   C26       1.0  0.37657  0.42977  0.32010  1.0000
  C   C27       1.0  0.66412  0.56302  0.57892  1.0000
  C   C28       1.0  0.33588  0.43697  0.42108  1.0000
  C   C29       1.0  0.77782  0.45080  0.55564  1.0000
  C   C30       1.0  0.22218  0.54920  0.44436  1.0000
  C   C31       1.0  0.85190  0.34760  0.63373  1.0000
  C   C32       1.0  0.14810  0.65239  0.36627  1.0000
  C   C33       1.0  0.81311  0.35676  0.73402  1.0000
  C   C34       1.0  0.18690  0.64324  0.26598  1.0000
  C   C35       1.0  0.75074  0.53704  0.37774  1.0000
  C   C36       1.0  0.24926  0.46295  0.62226  1.0000
  C   C37       1.0  0.81473  0.49111  0.28070  1.0000
  C   C38       1.0  0.18527  0.50889  0.71930  1.0000
  C   C39       1.0  0.74389  0.59072  0.18814  1.0000
  C   C40       1.0  0.25611  0.40928  0.81187  1.0000
  O   O1        1.0  0.55363  0.99564  0.12783  1.0000
  O   O2        1.0  0.44637  0.00436  0.87217  1.0000
  O   O3        1.0  0.30378  0.15745  0.07955  1.0000
  O   O4        1.0  0.69622  0.84255  0.92045  1.0000
  O   O5        1.0  0.16381  0.05748  0.55469  1.0000
  O   O6        1.0  0.83618  0.94254  0.44531  1.0000
  O   O7        1.0  0.11709  0.89981  0.90609  1.0000
  O   O8        1.0  0.88291  0.10018  0.09391  1.0000
  O   O9        1.0  0.21283  0.75979  0.80523  1.0000
  O   O10       1.0  0.78717  0.24021  0.19476  1.0000
  O   O11       1.0  0.54930  0.58045  0.88569  1.0000
  O   O12       1.0  0.45070  0.41955  0.11431  1.0000
  O   O13       1.0  0.72400  0.38058  0.93369  1.0000
  O   O14       1.0  0.27600  0.61942  0.06631  1.0000
  O   O15       1.0  0.82421  0.43350  0.45970  1.0000
  O   O16       1.0  0.17580  0.56649  0.54031  1.0000
  O   O17       1.0  0.73472  0.56032  0.10325  1.0000
  O   O18       1.0  0.26528  0.43967  0.89675  1.0000
  O   O19       1.0  0.69986  0.70419  0.19699  1.0000
  O   O20       1.0  0.30014  0.29581  0.80302  1.0000
  O   O21       1.0  0.91098  0.86296  0.07783  1.0000
  O   O22       1.0  0.08903  0.13704  0.92217  1.0000
  O   O23       1.0  0.36588  0.83267  0.06542  1.0000
  O   O24       1.0  0.63412  0.16733  0.93458  1.0000
  O   O25       1.0  0.96360  0.63308  0.93872  1.0000
  O   O26       1.0  0.03640  0.36692  0.06128  1.0000
