data_image0
_chemical_formula_structural       U2Ag2H26C18O20
_chemical_formula_sum              "U2 Ag2 H26 C18 O20"
_cell_length_a       5.75284
_cell_length_b       8.64625
_cell_length_c       13.8347
_cell_angle_alpha    90.0001
_cell_angle_beta     90.0002
_cell_angle_gamma    95.0621

_space_group_name_H-M_alt    "P 1"
_space_group_IT_number       1

loop_
  _space_group_symop_operation_xyz
  'x, y, z'

loop_
  _atom_site_type_symbol
  _atom_site_label
  _atom_site_symmetry_multiplicity
  _atom_site_fract_x
  _atom_site_fract_y
  _atom_site_fract_z
  _atom_site_occupancy
  U   U1        1.0  0.95558  0.34535  0.49025  1.0000
  U   U2        1.0  0.04442  0.65465  0.99024  1.0000
  Ag  Ag1       1.0  0.58680  0.70737  0.58695  1.0000
  Ag  Ag2       1.0  0.41320  0.29266  0.08696  1.0000
  H   H1        1.0  0.28957  0.69465  0.74988  1.0000
  H   H2        1.0  0.71043  0.30536  0.24989  1.0000
  H   H3        1.0  0.22576  0.56151  0.67166  1.0000
  H   H4        1.0  0.77426  0.43851  0.17167  1.0000
  H   H5        1.0  0.96495  0.94250  0.59777  1.0000
  H   H6        1.0  0.03506  0.05751  0.09777  1.0000
  H   H7        1.0  0.05454  0.77588  0.61760  1.0000
  H   H8        1.0  0.94546  0.22412  0.11760  1.0000
  H   H9        1.0  0.37659  0.06343  0.29020  1.0000
  H   H10       1.0  0.62341  0.93658  0.79019  1.0000
  H   H11       1.0  0.48424  0.84490  0.45585  1.0000
  H   H12       1.0  0.51574  0.15511  0.95584  1.0000
  H   H13       1.0  0.21766  0.92880  0.43911  1.0000
  H   H14       1.0  0.78232  0.07120  0.93911  1.0000
  H   H15       1.0  0.14882  0.78381  0.28447  1.0000
  H   H16       1.0  0.85117  0.21617  0.78447  1.0000
  H   H17       1.0  0.60257  0.63539  0.32676  1.0000
  H   H18       1.0  0.39745  0.36462  0.82676  1.0000
  H   H19       1.0  0.40834  0.59306  0.22852  1.0000
  H   H20       1.0  0.59168  0.40692  0.72852  1.0000
  H   H21       1.0  0.48199  0.86179  0.16732  1.0000
  H   H22       1.0  0.51799  0.13820  0.66733  1.0000
  H   H23       1.0  0.79040  0.04479  0.24224  1.0000
  H   H24       1.0  0.20958  0.95520  0.74225  1.0000
  H   H25       1.0  0.82530  0.91055  0.33660  1.0000
  H   H26       1.0  0.17471  0.08946  0.83661  1.0000
  C   C1        1.0  0.49573  0.01348  0.34168  1.0000
  C   C2        1.0  0.50426  0.98652  0.84168  1.0000
  C   C3        1.0  0.36426  0.88456  0.40027  1.0000
  C   C4        1.0  0.63573  0.11544  0.90027  1.0000
  C   C5        1.0  0.27875  0.74714  0.33599  1.0000
  C   C6        1.0  0.72125  0.25285  0.83599  1.0000
  C   C7        1.0  0.47904  0.68535  0.27749  1.0000
  C   C8        1.0  0.52097  0.31465  0.77749  1.0000
  C   C9        1.0  0.60696  0.81760  0.21934  1.0000
  C   C10       1.0  0.39304  0.18240  0.71934  1.0000
  C   C11       1.0  0.69880  0.95143  0.28477  1.0000
  C   C12       1.0  0.30119  0.04857  0.78478  1.0000
  C   C13       1.0  0.60173  0.14438  0.40349  1.0000
  C   C14       1.0  0.39828  0.85562  0.90348  1.0000
  C   C15       1.0  0.16060  0.61490  0.39370  1.0000
  C   C16       1.0  0.83941  0.38509  0.89369  1.0000
  C   C17       1.0  0.79364  0.76198  0.15467  1.0000
  C   C18       1.0  0.20636  0.23802  0.65468  1.0000
  O   O1        1.0  0.76455  0.45905  0.56105  1.0000
  O   O2        1.0  0.23546  0.54095  0.06104  1.0000
  O   O3        1.0  0.14446  0.23155  0.42061  1.0000
  O   O4        1.0  0.85554  0.76845  0.92059  1.0000
  O   O5        1.0  0.65618  0.12431  0.49158  1.0000
  O   O6        1.0  0.34383  0.87568  0.99157  1.0000
  O   O7        1.0  0.66568  0.27656  0.36404  1.0000
  O   O8        1.0  0.33432  0.72344  0.86403  1.0000
  O   O9        1.0  0.97276  0.54076  0.36266  1.0000
  O   O10       1.0  0.02725  0.45923  0.86265  1.0000
  O   O11       1.0  0.25020  0.56987  0.47260  1.0000
  O   O12       1.0  0.74981  0.43013  0.97260  1.0000
  O   O13       1.0  0.77483  0.62082  0.12530  1.0000
  O   O14       1.0  0.22518  0.37918  0.62531  1.0000
  O   O15       1.0  0.96399  0.85227  0.12228  1.0000
  O   O16       1.0  0.03600  0.14772  0.62229  1.0000
  O   O17       1.0  0.25743  0.67559  0.67913  1.0000
  O   O18       1.0  0.74257  0.32442  0.17914  1.0000
  O   O19       1.0  0.94327  0.83210  0.57855  1.0000
  O   O20       1.0  0.05674  0.16791  0.07856  1.0000
