data_image0
_chemical_formula_structural       U2H44Pb2C72N8O20
_chemical_formula_sum              "U2 H44 Pb2 C72 N8 O20"
_cell_length_a       11.8946
_cell_length_b       12.6949
_cell_length_c       13.0757
_cell_angle_alpha    60.8804
_cell_angle_beta     79.6032
_cell_angle_gamma    68.1923

_space_group_name_H-M_alt    "P 1"
_space_group_IT_number       1

loop_
  _space_group_symop_operation_xyz
  'x, y, z'

loop_
  _atom_site_type_symbol
  _atom_site_label
  _atom_site_symmetry_multiplicity
  _atom_site_fract_x
  _atom_site_fract_y
  _atom_site_fract_z
  _atom_site_occupancy
  U   U1        1.0  0.50001  1.00000  0.99999  1.0000
  U   U2        1.0  0.99999  0.00001  0.99999  1.0000
  H   H1        1.0  0.82359  0.30923  0.14295  1.0000
  H   H2        1.0  0.67640  0.54768  0.14291  1.0000
  H   H3        1.0  0.17641  0.69077  0.85705  1.0000
  H   H4        1.0  0.32360  0.45232  0.85709  1.0000
  H   H5        1.0  0.55159  0.42528  0.83182  1.0000
  H   H6        1.0  0.94849  0.74310  0.83189  1.0000
  H   H7        1.0  0.44840  0.57472  0.16818  1.0000
  H   H8        1.0  0.05151  0.25689  0.16811  1.0000
  H   H9        1.0  0.62852  0.58917  0.82213  1.0000
  H   H10       1.0  0.87144  0.58894  0.82236  1.0000
  H   H11       1.0  0.37148  0.41083  0.17787  1.0000
  H   H12       1.0  0.12856  0.41106  0.17764  1.0000
  H   H13       1.0  0.51218  0.75561  0.29089  1.0000
  H   H14       1.0  0.98790  0.95375  0.29069  1.0000
  H   H15       1.0  0.48782  0.24439  0.70911  1.0000
  H   H16       1.0  0.01210  0.04625  0.70931  1.0000
  H   H17       1.0  0.38144  0.62274  0.41141  1.0000
  H   H18       1.0  0.11854  0.96604  0.41122  1.0000
  H   H19       1.0  0.61856  0.37726  0.58859  1.0000
  H   H20       1.0  0.88146  0.03396  0.58878  1.0000
  H   H21       1.0  0.34399  0.57731  0.62258  1.0000
  H   H22       1.0  0.15588  0.80003  0.62246  1.0000
  H   H23       1.0  0.65602  0.42269  0.37742  1.0000
  H   H24       1.0  0.84412  0.19997  0.37754  1.0000
  H   H25       1.0  0.43256  0.67403  0.70041  1.0000
  H   H26       1.0  0.06733  0.62528  0.70058  1.0000
  H   H27       1.0  0.56744  0.32597  0.29959  1.0000
  H   H28       1.0  0.93267  0.37472  0.29941  1.0000
  H   H29       1.0  0.46414  0.80198  0.73222  1.0000
  H   H30       1.0  0.03572  0.46575  0.73226  1.0000
  H   H31       1.0  0.53586  0.19802  0.26778  1.0000
  H   H32       1.0  0.96428  0.53426  0.26774  1.0000
  H   H33       1.0  0.56625  0.89661  0.79888  1.0000
  H   H34       1.0  0.93371  0.30422  0.79905  1.0000
  H   H35       1.0  0.43375  0.10339  0.20112  1.0000
  H   H36       1.0  0.06629  0.69578  0.20095  1.0000
  H   H37       1.0  0.72581  0.98330  0.67517  1.0000
  H   H38       1.0  0.77422  0.34136  0.67526  1.0000
  H   H39       1.0  0.27419  0.01670  0.32483  1.0000
  H   H40       1.0  0.22578  0.65864  0.32474  1.0000
  H   H41       1.0  0.78062  0.96904  0.48408  1.0000
  H   H42       1.0  0.71941  0.54701  0.48400  1.0000
  H   H43       1.0  0.21938  0.03096  0.51592  1.0000
  H   H44       1.0  0.28059  0.45299  0.51600  1.0000
  Pb  Pb1       1.0  0.74993  0.83803  0.32400  1.0000
  Pb  Pb2       1.0  0.25007  0.16197  0.67600  1.0000
  C   C1        1.0  0.72875  0.46050  0.98353  1.0000
  C   C2        1.0  0.77119  0.55611  0.98359  1.0000
  C   C3        1.0  0.27125  0.53950  0.01647  1.0000
  C   C4        1.0  0.22881  0.44389  0.01642  1.0000
  C   C5        1.0  0.76272  0.33565  0.07496  1.0000
  C   C6        1.0  0.73729  0.58935  0.07497  1.0000
  C   C7        1.0  0.23727  0.66435  0.92505  1.0000
  C   C8        1.0  0.26271  0.41065  0.92504  1.0000
  C   C9        1.0  0.72540  0.24246  0.07733  1.0000
  C   C10       1.0  0.77465  0.68014  0.07736  1.0000
  C   C11       1.0  0.27460  0.75754  0.92267  1.0000
  C   C12       1.0  0.22535  0.31986  0.92264  1.0000
  C   C13       1.0  0.64627  0.27627  0.99013  1.0000
  C   C14       1.0  0.85379  0.73362  0.99015  1.0000
  C   C15       1.0  0.35372  0.72373  0.00988  1.0000
  C   C16       1.0  0.14621  0.26638  0.00985  1.0000
  C   C17       1.0  0.61210  0.40145  0.89893  1.0000
  C   C18       1.0  0.88793  0.69982  0.89900  1.0000
  C   C19       1.0  0.38790  0.59855  0.10107  1.0000
  C   C20       1.0  0.11207  0.30018  0.10101  1.0000
  C   C21       1.0  0.65451  0.49221  0.89384  1.0000
  C   C22       1.0  0.84546  0.61417  0.89396  1.0000
  C   C23       1.0  0.34549  0.50779  0.10616  1.0000
  C   C24       1.0  0.15455  0.38583  0.10604  1.0000
  C   C25       1.0  0.77489  0.10867  0.17344  1.0000
  C   C26       1.0  0.72517  0.71774  0.17339  1.0000
  C   C27       1.0  0.22511  0.89134  0.82656  1.0000
  C   C28       1.0  0.27483  0.28226  0.82661  1.0000
  C   C29       1.0  0.59500  0.18400  0.99373  1.0000
  C   C30       1.0  0.90508  0.82227  0.99371  1.0000
  C   C31       1.0  0.40501  0.81600  0.00627  1.0000
  C   C32       1.0  0.09492  0.17773  0.00628  1.0000
  C   C33       1.0  0.49304  0.73470  0.38226  1.0000
  C   C34       1.0  0.00700  0.88322  0.38211  1.0000
  C   C35       1.0  0.50696  0.26530  0.61774  1.0000
  C   C36       1.0  0.99300  0.11678  0.61789  1.0000
  C   C37       1.0  0.41958  0.66113  0.44994  1.0000
  C   C38       1.0  0.08044  0.88900  0.44980  1.0000
  C   C39       1.0  0.58042  0.33887  0.55006  1.0000
  C   C40       1.0  0.91956  0.11100  0.55020  1.0000
  C   C41       1.0  0.39891  0.63689  0.56654  1.0000
  C   C42       1.0  0.10102  0.79648  0.56646  1.0000
  C   C43       1.0  0.60109  0.36310  0.43346  1.0000
  C   C44       1.0  0.89898  0.20352  0.43354  1.0000
  C   C45       1.0  0.44929  0.69008  0.61020  1.0000
  C   C46       1.0  0.05063  0.69955  0.61028  1.0000
  C   C47       1.0  0.55072  0.30992  0.38980  1.0000
  C   C48       1.0  0.94937  0.30045  0.38971  1.0000
  C   C49       1.0  0.52213  0.76373  0.53674  1.0000
  C   C50       1.0  0.97782  0.69954  0.53675  1.0000
  C   C51       1.0  0.47787  0.23627  0.46326  1.0000
  C   C52       1.0  0.02218  0.30047  0.46324  1.0000
  C   C53       1.0  0.57754  0.82361  0.57814  1.0000
  C   C54       1.0  0.92234  0.59831  0.57811  1.0000
  C   C55       1.0  0.42246  0.17639  0.42186  1.0000
  C   C56       1.0  0.07766  0.40169  0.42189  1.0000
  C   C57       1.0  0.53961  0.83248  0.68238  1.0000
  C   C58       1.0  0.96026  0.48509  0.68244  1.0000
  C   C59       1.0  0.46039  0.16752  0.31762  1.0000
  C   C60       1.0  0.03974  0.51492  0.31756  1.0000
  C   C61       1.0  0.59426  0.88836  0.71855  1.0000
  C   C62       1.0  0.90570  0.39291  0.71861  1.0000
  C   C63       1.0  0.40574  0.11163  0.28145  1.0000
  C   C64       1.0  0.09431  0.60709  0.28138  1.0000
  C   C65       1.0  0.68370  0.93727  0.64882  1.0000
  C   C66       1.0  0.81632  0.41382  0.64882  1.0000
  C   C67       1.0  0.31630  0.06273  0.35118  1.0000
  C   C68       1.0  0.18368  0.58618  0.35118  1.0000
  C   C69       1.0  0.71466  0.92842  0.54476  1.0000
  C   C70       1.0  0.78535  0.52690  0.54467  1.0000
  C   C71       1.0  0.28534  0.07158  0.45524  1.0000
  C   C72       1.0  0.21465  0.47311  0.45532  1.0000
  N   N1        1.0  0.54453  0.78285  0.42518  1.0000
  N   N2        1.0  0.95551  0.79209  0.42511  1.0000
  N   N3        1.0  0.45547  0.21715  0.57482  1.0000
  N   N4        1.0  0.04450  0.20791  0.57488  1.0000
  N   N5        1.0  0.66409  0.87181  0.51081  1.0000
  N   N6        1.0  0.83591  0.61754  0.51066  1.0000
  N   N7        1.0  0.33591  0.12819  0.48919  1.0000
  N   N8        1.0  0.16409  0.38246  0.48933  1.0000
  O   O1        1.0  0.61649  0.97494  0.89589  1.0000
  O   O2        1.0  0.88343  0.12927  0.89582  1.0000
  O   O3        1.0  0.38352  0.02506  0.10411  1.0000
  O   O4        1.0  0.11656  0.87073  0.10418  1.0000
  O   O5        1.0  0.85473  0.02354  0.14804  1.0000
  O   O6        1.0  0.64526  0.82832  0.14789  1.0000
  O   O7        1.0  0.14527  0.97646  0.85196  1.0000
  O   O8        1.0  0.35474  0.17168  0.85211  1.0000
  O   O9        1.0  0.73841  0.08530  0.27649  1.0000
  O   O10       1.0  0.76168  0.63801  0.27649  1.0000
  O   O11       1.0  0.26159  0.91470  0.72352  1.0000
  O   O12       1.0  0.23831  0.36199  0.72351  1.0000
  O   O13       1.0  0.60998  0.07490  0.08416  1.0000
  O   O14       1.0  0.89001  0.84080  0.08409  1.0000
  O   O15       1.0  0.39003  0.92509  0.91584  1.0000
  O   O16       1.0  0.10998  0.15921  0.91590  1.0000
  O   O17       1.0  0.53244  0.21444  0.90793  1.0000
  O   O18       1.0  0.96771  0.87778  0.90800  1.0000
  O   O19       1.0  0.46757  0.78556  0.09207  1.0000
  O   O20       1.0  0.03228  0.12223  0.09199  1.0000
