data_image0
_chemical_formula_structural       CdH30C26N4O8
_chemical_formula_sum              "Cd1 H30 C26 N4 O8"
_cell_length_a       7.4355
_cell_length_b       9.03929
_cell_length_c       10.9411
_cell_angle_alpha    99.7741
_cell_angle_beta     102.077
_cell_angle_gamma    113.079

_space_group_name_H-M_alt    "P 1"
_space_group_IT_number       1

loop_
  _space_group_symop_operation_xyz
  'x, y, z'

loop_
  _atom_site_type_symbol
  _atom_site_label
  _atom_site_symmetry_multiplicity
  _atom_site_fract_x
  _atom_site_fract_y
  _atom_site_fract_z
  _atom_site_occupancy
  Cd  Cd1       1.0  1.00000  1.00000  1.00000  1.0000
  H   H1        1.0  0.13830  0.02205  0.79861  1.0000
  H   H2        1.0  0.86170  0.97795  0.20139  1.0000
  H   H3        1.0  0.19325  0.87424  0.82526  1.0000
  H   H4        1.0  0.80675  0.12576  0.17474  1.0000
  H   H5        1.0  0.87146  0.68211  0.29722  1.0000
  H   H6        1.0  0.12854  0.31789  0.70278  1.0000
  H   H7        1.0  0.46758  0.22896  0.16597  1.0000
  H   H8        1.0  0.53242  0.77104  0.83403  1.0000
  H   H9        1.0  0.02693  0.35915  0.98607  1.0000
  H   H10       1.0  0.97306  0.64085  0.01393  1.0000
  H   H11       1.0  0.27790  0.66949  0.06639  1.0000
  H   H12       1.0  0.72210  0.33051  0.93361  1.0000
  H   H13       1.0  0.63271  0.75241  0.19979  1.0000
  H   H14       1.0  0.36729  0.24758  0.80021  1.0000
  H   H15       1.0  0.12393  0.63904  0.46048  1.0000
  H   H16       1.0  0.87607  0.36096  0.53952  1.0000
  H   H17       1.0  0.19111  0.63874  0.31723  1.0000
  H   H18       1.0  0.80888  0.36127  0.68277  1.0000
  H   H19       1.0  0.20936  0.36645  0.31028  1.0000
  H   H20       1.0  0.79064  0.63355  0.68972  1.0000
  H   H21       1.0  0.13626  0.35862  0.45209  1.0000
  H   H22       1.0  0.86374  0.64138  0.54791  1.0000
  H   H23       1.0  0.52284  0.64071  0.43387  1.0000
  H   H24       1.0  0.47716  0.35929  0.56613  1.0000
  H   H25       1.0  0.45034  0.63118  0.57570  1.0000
  H   H26       1.0  0.54966  0.36882  0.42430  1.0000
  H   H27       1.0  0.16906  0.97627  0.53205  1.0000
  H   H28       1.0  0.83094  0.02373  0.46794  1.0000
  H   H29       1.0  0.45726  0.01557  0.72065  1.0000
  H   H30       1.0  0.54274  0.98442  0.27935  1.0000
  C   C1        1.0  0.58158  0.49856  0.19373  1.0000
  C   C2        1.0  0.41842  0.50144  0.80627  1.0000
  C   C3        1.0  0.43267  0.33019  0.14675  1.0000
  C   C4        1.0  0.56733  0.66981  0.85325  1.0000
  C   C5        1.0  0.18454  0.40471  0.04678  1.0000
  C   C6        1.0  0.81545  0.59529  0.95322  1.0000
  C   C7        1.0  0.32234  0.57411  0.09079  1.0000
  C   C8        1.0  0.67766  0.42589  0.90921  1.0000
  C   C9        1.0  0.52151  0.62127  0.16556  1.0000
  C   C10       1.0  0.47849  0.37872  0.83444  1.0000
  C   C11       1.0  0.88608  0.45745  0.29099  1.0000
  C   C12       1.0  0.11392  0.54255  0.70902  1.0000
  C   C13       1.0  0.11084  0.55437  0.37032  1.0000
  C   C14       1.0  0.88916  0.44563  0.62969  1.0000
  C   C15       1.0  0.21827  0.44584  0.40149  1.0000
  C   C16       1.0  0.78172  0.55416  0.59851  1.0000
  C   C17       1.0  0.44290  0.55203  0.48440  1.0000
  C   C18       1.0  0.55710  0.44797  0.51560  1.0000
  C   C19       1.0  0.16448  0.94654  0.28026  1.0000
  C   C20       1.0  0.83552  0.05346  0.71974  1.0000
  C   C21       1.0  0.33898  0.97632  0.39430  1.0000
  C   C22       1.0  0.66102  0.02368  0.60570  1.0000
  C   C23       1.0  0.31421  0.98630  0.51868  1.0000
  C   C24       1.0  0.68579  0.01370  0.48132  1.0000
  C   C25       1.0  0.47432  0.00921  0.62369  1.0000
  C   C26       1.0  0.52568  0.99079  0.37631  1.0000
  N   N1        1.0  0.23970  0.28709  0.07573  1.0000
  N   N2        1.0  0.76030  0.71291  0.92427  1.0000
  N   N3        1.0  0.78588  0.55341  0.26725  1.0000
  N   N4        1.0  0.21412  0.44659  0.73275  1.0000
  O   O1        1.0  0.79657  0.30212  0.25022  1.0000
  O   O2        1.0  0.20343  0.69788  0.74978  1.0000
  O   O3        1.0  0.20125  0.95779  0.17282  1.0000
  O   O4        1.0  0.79875  0.04221  0.82718  1.0000
  O   O5        1.0  0.98912  0.90957  0.29870  1.0000
  O   O6        1.0  0.01088  0.09043  0.70130  1.0000
  O   O7        1.0  0.20723  0.98530  0.86855  1.0000
  O   O8        1.0  0.79277  0.01470  0.13145  1.0000
