data_image0
_chemical_formula_structural       Cd2H56C52N8O14
_chemical_formula_sum              "Cd2 H56 C52 N8 O14"
_cell_length_a       10.7244
_cell_length_b       11.1988
_cell_length_c       11.4719
_cell_angle_alpha    77.4834
_cell_angle_beta     88.4484
_cell_angle_gamma    75.809

_space_group_name_H-M_alt    "P 1"
_space_group_IT_number       1

loop_
  _space_group_symop_operation_xyz
  'x, y, z'

loop_
  _atom_site_type_symbol
  _atom_site_label
  _atom_site_symmetry_multiplicity
  _atom_site_fract_x
  _atom_site_fract_y
  _atom_site_fract_z
  _atom_site_occupancy
  Cd  Cd1       1.0  0.81533  0.16959  0.38817  1.0000
  Cd  Cd2       1.0  0.18467  0.83041  0.61183  1.0000
  H   H1        1.0  0.87203  0.93699  0.55796  1.0000
  H   H2        1.0  0.12797  0.06301  0.44204  1.0000
  H   H3        1.0  0.91212  0.03315  0.61893  1.0000
  H   H4        1.0  0.08788  0.96685  0.38107  1.0000
  H   H5        1.0  0.58344  0.57795  0.03796  1.0000
  H   H6        1.0  0.41656  0.42205  0.96204  1.0000
  H   H7        1.0  0.72068  0.40231  0.60900  1.0000
  H   H8        1.0  0.27932  0.59769  0.39100  1.0000
  H   H9        1.0  0.65181  0.40496  0.18392  1.0000
  H   H10       1.0  0.34818  0.59504  0.81608  1.0000
  H   H11       1.0  0.88717  0.46925  0.87787  1.0000
  H   H12       1.0  0.11282  0.53075  0.12214  1.0000
  H   H13       1.0  0.05397  0.27862  0.97872  1.0000
  H   H14       1.0  0.94603  0.72139  0.02128  1.0000
  H   H15       1.0  0.01213  0.16057  0.18318  1.0000
  H   H16       1.0  0.98787  0.83944  0.81682  1.0000
  H   H17       1.0  0.47957  0.75652  0.93464  1.0000
  H   H18       1.0  0.52043  0.24348  0.06536  1.0000
  H   H19       1.0  0.47951  0.74868  0.78212  1.0000
  H   H20       1.0  0.52049  0.25132  0.21788  1.0000
  H   H21       1.0  0.64220  0.87665  0.73993  1.0000
  H   H22       1.0  0.35781  0.12335  0.26007  1.0000
  H   H23       1.0  0.49497  0.95873  0.78948  1.0000
  H   H24       1.0  0.50503  0.04127  0.21052  1.0000
  H   H25       1.0  0.73040  0.82000  0.95582  1.0000
  H   H26       1.0  0.26961  0.18000  0.04418  1.0000
  H   H27       1.0  0.59037  0.92276  0.99312  1.0000
  H   H28       1.0  0.40963  0.07724  0.00688  1.0000
  H   H29       1.0  0.77303  0.02421  0.95877  1.0000
  H   H30       1.0  0.22697  0.97579  0.04123  1.0000
  H   H31       1.0  0.79155  0.99363  0.81353  1.0000
  H   H32       1.0  0.20845  0.00637  0.18647  1.0000
  H   H33       1.0  0.55191  0.16611  0.89471  1.0000
  H   H34       1.0  0.44809  0.83389  0.10529  1.0000
  H   H35       1.0  0.57705  0.13772  0.74933  1.0000
  H   H36       1.0  0.42295  0.86228  0.25067  1.0000
  H   H37       1.0  0.74856  0.25266  0.87929  1.0000
  H   H38       1.0  0.25144  0.74734  0.12071  1.0000
  H   H39       1.0  0.77047  0.22766  0.73217  1.0000
  H   H40       1.0  0.22952  0.77235  0.26783  1.0000
  H   H41       1.0  0.75382  0.61055  0.52016  1.0000
  H   H42       1.0  0.24618  0.38945  0.47984  1.0000
  H   H43       1.0  0.64771  0.83989  0.44029  1.0000
  H   H44       1.0  0.35229  0.16011  0.55971  1.0000
  H   H45       1.0  0.41572  0.92013  0.48435  1.0000
  H   H46       1.0  0.58429  0.07987  0.51565  1.0000
  H   H47       1.0  0.38439  0.56059  0.64728  1.0000
  H   H48       1.0  0.61561  0.43941  0.35272  1.0000
  H   H49       1.0  0.70631  0.85055  0.18640  1.0000
  H   H50       1.0  0.29369  0.14945  0.81360  1.0000
  H   H51       1.0  0.73548  0.63332  0.15431  1.0000
  H   H52       1.0  0.26452  0.36669  0.84568  1.0000
  H   H53       1.0  0.91831  0.45969  0.25942  1.0000
  H   H54       1.0  0.08169  0.54031  0.74058  1.0000
  H   H55       1.0  0.06124  0.50591  0.40035  1.0000
  H   H56       1.0  0.93876  0.49409  0.59965  1.0000
  C   C1        1.0  0.74056  0.37883  0.13682  1.0000
  C   C2        1.0  0.25944  0.62117  0.86319  1.0000
  C   C3        1.0  0.75637  0.45236  0.02406  1.0000
  C   C4        1.0  0.24363  0.54764  0.97594  1.0000
  C   C5        1.0  0.87166  0.41532  0.96538  1.0000
  C   C6        1.0  0.12834  0.58468  0.03462  1.0000
  C   C7        1.0  0.96400  0.30939  0.02251  1.0000
  C   C8        1.0  0.03600  0.69061  0.97750  1.0000
  C   C9        1.0  0.94205  0.24331  0.13541  1.0000
  C   C10       1.0  0.05795  0.75670  0.86460  1.0000
  C   C11       1.0  0.65466  0.64539  0.87420  1.0000
  C   C12       1.0  0.34533  0.35461  0.12580  1.0000
  C   C13       1.0  0.53886  0.75779  0.85478  1.0000
  C   C14       1.0  0.46114  0.24222  0.14522  1.0000
  C   C15       1.0  0.58107  0.88160  0.81832  1.0000
  C   C16       1.0  0.41893  0.11840  0.18168  1.0000
  C   C17       1.0  0.65545  0.90607  0.91906  1.0000
  C   C18       1.0  0.34455  0.09393  0.08094  1.0000
  C   C19       1.0  0.71979  0.01557  0.88126  1.0000
  C   C20       1.0  0.28021  0.98443  0.11874  1.0000
  C   C21       1.0  0.62683  0.14254  0.83018  1.0000
  C   C22       1.0  0.37317  0.85746  0.16982  1.0000
  C   C23       1.0  0.69744  0.24812  0.79887  1.0000
  C   C24       1.0  0.30255  0.75188  0.20113  1.0000
  C   C25       1.0  0.60756  0.37688  0.75613  1.0000
  C   C26       1.0  0.39244  0.62312  0.24387  1.0000
  C   C27       1.0  0.57887  0.56915  0.59758  1.0000
  C   C28       1.0  0.42113  0.43085  0.40242  1.0000
  C   C29       1.0  0.65203  0.64819  0.53351  1.0000
  C   C30       1.0  0.34797  0.35181  0.46649  1.0000
  C   C31       1.0  0.59392  0.77508  0.48958  1.0000
  C   C32       1.0  0.40608  0.22492  0.51042  1.0000
  C   C33       1.0  0.46485  0.82074  0.51231  1.0000
  C   C34       1.0  0.53515  0.17926  0.48769  1.0000
  C   C35       1.0  0.44731  0.62041  0.60804  1.0000
  C   C36       1.0  0.55269  0.37958  0.39196  1.0000
  C   C37       1.0  0.84592  0.93525  0.32337  1.0000
  C   C38       1.0  0.15408  0.06475  0.67663  1.0000
  C   C39       1.0  0.86570  0.80096  0.31159  1.0000
  C   C40       1.0  0.13430  0.19904  0.68842  1.0000
  C   C41       1.0  0.78410  0.77417  0.23294  1.0000
  C   C42       1.0  0.21590  0.22583  0.76707  1.0000
  C   C43       1.0  0.80139  0.65211  0.21461  1.0000
  C   C44       1.0  0.19862  0.34789  0.78539  1.0000
  C   C45       1.0  0.90248  0.55535  0.27353  1.0000
  C   C46       1.0  0.09752  0.44464  0.72647  1.0000
  C   C47       1.0  0.98324  0.58110  0.35300  1.0000
  C   C48       1.0  0.01676  0.41890  0.64700  1.0000
  C   C49       1.0  0.96405  0.70234  0.37543  1.0000
  C   C50       1.0  0.03594  0.29766  0.62457  1.0000
  C   C51       1.0  0.04506  0.72192  0.47094  1.0000
  C   C52       1.0  0.95494  0.27808  0.52906  1.0000
  N   N1        1.0  0.83118  0.27833  0.19118  1.0000
  N   N2        1.0  0.16882  0.72167  0.80882  1.0000
  N   N3        1.0  0.65774  0.55919  0.98086  1.0000
  N   N4        1.0  0.34226  0.44081  0.01914  1.0000
  N   N5        1.0  0.63764  0.44307  0.64915  1.0000
  N   N6        1.0  0.36236  0.55693  0.35085  1.0000
  N   N7        1.0  0.39328  0.74390  0.56896  1.0000
  N   N8        1.0  0.60671  0.25610  0.43104  1.0000
  O   O1        1.0  0.73991  0.63390  0.79993  1.0000
  O   O2        1.0  0.26009  0.36610  0.20007  1.0000
  O   O3        1.0  0.51477  0.41887  0.81625  1.0000
  O   O4        1.0  0.48523  0.58113  0.18375  1.0000
  O   O5        1.0  0.73271  0.99575  0.33999  1.0000
  O   O6        1.0  0.26729  0.00425  0.66001  1.0000
  O   O7        1.0  0.94297  0.98399  0.31439  1.0000
  O   O8        1.0  0.05703  0.01601  0.68561  1.0000
  O   O9        1.0  0.99208  0.79466  0.54001  1.0000
  O   O10       1.0  0.00792  0.20534  0.45999  1.0000
  O   O11       1.0  0.16345  0.66485  0.48192  1.0000
  O   O12       1.0  0.83655  0.33515  0.51808  1.0000
  O   O13       1.0  0.83836  0.02153  0.57549  1.0000
  O   O14       1.0  0.16164  0.97847  0.42451  1.0000
