data_image0
_chemical_formula_structural       Cd2H52C52N8O12
_chemical_formula_sum              "Cd2 H52 C52 N8 O12"
_cell_length_a       10.7541
_cell_length_b       11.8118
_cell_length_c       11.9775
_cell_angle_alpha    96.8092
_cell_angle_beta     113.054
_cell_angle_gamma    110.451

_space_group_name_H-M_alt    "P 1"
_space_group_IT_number       1

loop_
  _space_group_symop_operation_xyz
  'x, y, z'

loop_
  _atom_site_type_symbol
  _atom_site_label
  _atom_site_symmetry_multiplicity
  _atom_site_fract_x
  _atom_site_fract_y
  _atom_site_fract_z
  _atom_site_occupancy
  Cd  Cd1       1.0  0.70651  0.51096  0.58659  1.0000
  Cd  Cd2       1.0  0.29349  0.48904  0.41341  1.0000
  H   H1        1.0  0.14889  0.36785  0.04604  1.0000
  H   H2        1.0  0.85111  0.63215  0.95396  1.0000
  H   H3        1.0  0.36512  0.93797  0.23961  1.0000
  H   H4        1.0  0.63488  0.06203  0.76039  1.0000
  H   H5        1.0  0.07004  0.68297  0.71708  1.0000
  H   H6        1.0  0.92996  0.31702  0.28292  1.0000
  H   H7        1.0  0.30465  0.70757  0.89828  1.0000
  H   H8        1.0  0.69535  0.29243  0.10172  1.0000
  H   H9        1.0  0.29179  0.54658  0.01816  1.0000
  H   H10       1.0  0.70821  0.45342  0.98184  1.0000
  H   H11       1.0  0.81646  0.35274  0.76352  1.0000
  H   H12       1.0  0.18354  0.64726  0.23648  1.0000
  H   H13       1.0  0.87069  0.11285  0.04130  1.0000
  H   H14       1.0  0.12931  0.88715  0.95870  1.0000
  H   H15       1.0  0.06665  0.20979  0.11256  1.0000
  H   H16       1.0  0.93335  0.79021  0.88744  1.0000
  H   H17       1.0  0.08110  0.08234  0.93743  1.0000
  H   H18       1.0  0.91890  0.91766  0.06257  1.0000
  H   H19       1.0  0.88610  0.98695  0.86594  1.0000
  H   H20       1.0  0.11390  0.01305  0.13406  1.0000
  H   H21       1.0  0.47450  0.31331  0.66232  1.0000
  H   H22       1.0  0.52550  0.68669  0.33768  1.0000
  H   H23       1.0  0.26618  0.09289  0.55087  1.0000
  H   H24       1.0  0.73382  0.90711  0.44913  1.0000
  H   H25       1.0  0.26290  0.95663  0.37266  1.0000
  H   H26       1.0  0.73710  0.04337  0.62734  1.0000
  H   H27       1.0  0.66796  0.26507  0.43152  1.0000
  H   H28       1.0  0.33204  0.73493  0.56848  1.0000
  H   H29       1.0  0.61185  0.89231  0.19035  1.0000
  H   H30       1.0  0.38815  0.10769  0.80965  1.0000
  H   H31       1.0  0.41937  0.85815  0.11038  1.0000
  H   H32       1.0  0.58064  0.14185  0.88962  1.0000
  H   H33       1.0  0.67084  0.04810  0.07385  1.0000
  H   H34       1.0  0.32916  0.95190  0.92615  1.0000
  H   H35       1.0  0.54356  0.89408  0.96850  1.0000
  H   H36       1.0  0.45644  0.10592  0.03150  1.0000
  H   H37       1.0  0.56632  0.73135  0.84873  1.0000
  H   H38       1.0  0.43368  0.26865  0.15127  1.0000
  H   H39       1.0  0.39105  0.60481  0.73471  1.0000
  H   H40       1.0  0.60895  0.39519  0.26529  1.0000
  H   H41       1.0  0.34255  0.38088  0.77085  1.0000
  H   H42       1.0  0.65745  0.61912  0.22915  1.0000
  H   H43       1.0  0.66114  0.73059  0.06673  1.0000
  H   H44       1.0  0.33887  0.26942  0.93327  1.0000
  H   H45       1.0  0.09220  0.74603  0.51404  1.0000
  H   H46       1.0  0.90780  0.25397  0.48596  1.0000
  H   H47       1.0  0.95483  0.70446  0.35503  1.0000
  H   H48       1.0  0.04517  0.29554  0.64497  1.0000
  H   H49       1.0  0.90243  0.86921  0.28034  1.0000
  H   H50       1.0  0.09757  0.13079  0.71966  1.0000
  H   H51       1.0  0.08790  0.91577  0.68122  1.0000
  H   H52       1.0  0.91210  0.08422  0.31878  1.0000
  C   C1        1.0  0.06835  0.61460  0.77051  1.0000
  C   C2        1.0  0.93165  0.38540  0.22949  1.0000
  C   C3        1.0  0.19874  0.62801  0.87237  1.0000
  C   C4        1.0  0.80126  0.37199  0.12763  1.0000
  C   C5        1.0  0.19170  0.53847  0.93784  1.0000
  C   C6        1.0  0.80830  0.46153  0.06216  1.0000
  C   C7        1.0  0.05324  0.43500  0.89822  1.0000
  C   C8        1.0  0.94676  0.56500  0.10178  1.0000
  C   C9        1.0  0.92650  0.42936  0.79597  1.0000
  C   C10       1.0  0.07350  0.57064  0.20403  1.0000
  C   C11       1.0  0.93277  0.23247  0.93500  1.0000
  C   C12       1.0  0.06723  0.76753  0.06500  1.0000
  C   C13       1.0  0.96625  0.15186  0.02154  1.0000
  C   C14       1.0  0.03375  0.84814  0.97846  1.0000
  C   C15       1.0  0.98608  0.04295  0.95822  1.0000
  C   C16       1.0  0.01392  0.95705  0.04178  1.0000
  C   C17       1.0  0.46966  0.24961  0.58546  1.0000
  C   C18       1.0  0.53034  0.75039  0.41454  1.0000
  C   C19       1.0  0.35435  0.12765  0.52320  1.0000
  C   C20       1.0  0.64565  0.87235  0.47680  1.0000
  C   C21       1.0  0.35214  0.05224  0.42377  1.0000
  C   C22       1.0  0.64786  0.94776  0.57623  1.0000
  C   C23       1.0  0.46653  0.09985  0.38884  1.0000
  C   C24       1.0  0.53347  0.90015  0.61116  1.0000
  C   C25       1.0  0.57888  0.22338  0.45662  1.0000
  C   C26       1.0  0.42112  0.77662  0.54338  1.0000
  C   C27       1.0  0.56711  0.04401  0.24696  1.0000
  C   C28       1.0  0.43290  0.95599  0.75305  1.0000
  C   C29       1.0  0.53333  0.93232  0.14459  1.0000
  C   C30       1.0  0.46667  0.06768  0.85541  1.0000
  C   C31       1.0  0.55544  0.97440  0.03536  1.0000
  C   C32       1.0  0.44456  0.02560  0.96464  1.0000
  C   C33       1.0  0.58537  0.58798  0.74030  1.0000
  C   C34       1.0  0.41463  0.41202  0.25970  1.0000
  C   C35       1.0  0.50527  0.62784  0.80644  1.0000
  C   C36       1.0  0.49473  0.37216  0.19356  1.0000
  C   C37       1.0  0.50243  0.56365  0.90719  1.0000
  C   C38       1.0  0.49757  0.43635  0.09281  1.0000
  C   C39       1.0  0.41271  0.43330  0.87157  1.0000
  C   C40       1.0  0.58729  0.56670  0.12843  1.0000
  C   C41       1.0  0.58961  0.62916  0.03696  1.0000
  C   C42       1.0  0.41039  0.37084  0.96304  1.0000
  C   C43       1.0  0.87156  0.65275  0.48662  1.0000
  C   C44       1.0  0.12844  0.34725  0.51338  1.0000
  C   C45       1.0  0.98342  0.74511  0.45399  1.0000
  C   C46       1.0  0.01658  0.25489  0.54601  1.0000
  C   C47       1.0  0.99470  0.87702  0.47809  1.0000
  C   C48       1.0  0.00530  0.12298  0.52191  1.0000
  C   C49       1.0  0.94532  0.92664  0.37730  1.0000
  C   C50       1.0  0.05468  0.07336  0.62270  1.0000
  C   C51       1.0  0.04978  0.95273  0.60161  1.0000
  C   C52       1.0  0.95021  0.04727  0.39839  1.0000
  N   N1        1.0  0.93540  0.51780  0.73507  1.0000
  N   N2        1.0  0.06460  0.48220  0.26493  1.0000
  N   N3        1.0  0.04982  0.34444  0.96398  1.0000
  N   N4        1.0  0.95018  0.65556  0.03602  1.0000
  N   N5        1.0  0.57842  0.29554  0.55195  1.0000
  N   N6        1.0  0.42158  0.70447  0.44806  1.0000
  N   N7        1.0  0.46169  0.02198  0.28867  1.0000
  N   N8        1.0  0.53831  0.97802  0.71132  1.0000
  O   O1        1.0  0.80682  0.19535  0.84116  1.0000
  O   O2        1.0  0.19318  0.80465  0.15884  1.0000
  O   O3        1.0  0.68164  0.14472  0.28762  1.0000
  O   O4        1.0  0.31836  0.85528  0.71238  1.0000
  O   O5        1.0  0.70769  0.58231  0.80539  1.0000
  O   O6        1.0  0.29231  0.41769  0.19461  1.0000
  O   O7        1.0  0.52745  0.56040  0.61955  1.0000
  O   O8        1.0  0.47255  0.43960  0.38045  1.0000
  O   O9        1.0  0.83828  0.69932  0.56746  1.0000
  O   O10       1.0  0.16172  0.30068  0.43254  1.0000
  O   O11       1.0  0.82155  0.53520  0.43725  1.0000
  O   O12       1.0  0.17845  0.46480  0.56275  1.0000
