data_image0
_chemical_formula_structural       Cu6P8H40C28N4O32
_chemical_formula_sum              "Cu6 P8 H40 C28 N4 O32"
_cell_length_a       6.18436
_cell_length_b       12.5789
_cell_length_c       15.671
_cell_angle_alpha    106.458
_cell_angle_beta     90
_cell_angle_gamma    90

_space_group_name_H-M_alt    "P 1"
_space_group_IT_number       1

loop_
  _space_group_symop_operation_xyz
  'x, y, z'

loop_
  _atom_site_type_symbol
  _atom_site_label
  _atom_site_symmetry_multiplicity
  _atom_site_fract_x
  _atom_site_fract_y
  _atom_site_fract_z
  _atom_site_occupancy
  Cu  Cu1       1.0  0.00000  0.00000  0.00000  1.0000
  Cu  Cu2       1.0  0.50000  0.00000  0.50000  1.0000
  Cu  Cu3       1.0  0.62002  0.70158  0.97891  1.0000
  Cu  Cu4       1.0  0.12002  0.29842  0.52109  1.0000
  Cu  Cu5       1.0  0.37997  0.29842  0.02110  1.0000
  Cu  Cu6       1.0  0.87998  0.70158  0.47891  1.0000
  P   P1        1.0  0.12334  0.76375  0.00875  1.0000
  P   P2        1.0  0.62334  0.23625  0.49125  1.0000
  P   P3        1.0  0.87665  0.23626  0.99125  1.0000
  P   P4        1.0  0.37666  0.76375  0.50875  1.0000
  P   P5        1.0  0.81843  0.89088  0.14452  1.0000
  P   P6        1.0  0.31843  0.10912  0.35548  1.0000
  P   P7        1.0  0.18156  0.10912  0.85549  1.0000
  P   P8        1.0  0.68157  0.89088  0.64452  1.0000
  H   H1        1.0  0.68224  0.42980  0.15644  1.0000
  H   H2        1.0  0.18224  0.57020  0.34357  1.0000
  H   H3        1.0  0.31776  0.57019  0.84357  1.0000
  H   H4        1.0  0.81775  0.42980  0.65643  1.0000
  H   H5        1.0  0.68001  0.61626  0.27147  1.0000
  H   H6        1.0  0.18001  0.38374  0.22854  1.0000
  H   H7        1.0  0.31999  0.38374  0.72854  1.0000
  H   H8        1.0  0.81999  0.61625  0.77146  1.0000
  H   H9        1.0  0.36849  0.74410  0.27516  1.0000
  H   H10       1.0  0.86849  0.25590  0.22484  1.0000
  H   H11       1.0  0.63151  0.25590  0.72484  1.0000
  H   H12       1.0  0.13150  0.74409  0.77515  1.0000
  H   H13       1.0  0.08271  0.48768  0.06217  1.0000
  H   H14       1.0  0.58271  0.51232  0.43784  1.0000
  H   H15       1.0  0.91729  0.51232  0.93784  1.0000
  H   H16       1.0  0.41731  0.48768  0.56216  1.0000
  H   H17       1.0  0.95252  0.73218  0.23232  1.0000
  H   H18       1.0  0.45251  0.26781  0.26768  1.0000
  H   H19       1.0  0.04749  0.26781  0.76768  1.0000
  H   H20       1.0  0.54750  0.73219  0.73231  1.0000
  H   H21       1.0  0.88278  0.65172  0.12330  1.0000
  H   H22       1.0  0.38278  0.34828  0.37671  1.0000
  H   H23       1.0  0.11722  0.34828  0.87671  1.0000
  H   H24       1.0  0.61722  0.65172  0.62329  1.0000
  H   H25       1.0  0.75095  0.01241  0.27719  1.0000
  H   H26       1.0  0.25096  0.98759  0.22281  1.0000
  H   H27       1.0  0.24905  0.98760  0.72281  1.0000
  H   H28       1.0  0.74904  0.01241  0.77719  1.0000
  H   H29       1.0  0.38034  0.84162  0.14613  1.0000
  H   H30       1.0  0.88033  0.15838  0.35388  1.0000
  H   H31       1.0  0.61966  0.15838  0.85388  1.0000
  H   H32       1.0  0.11966  0.84162  0.64612  1.0000
  H   H33       1.0  0.41612  0.85754  0.91339  1.0000
  H   H34       1.0  0.91613  0.14246  0.58661  1.0000
  H   H35       1.0  0.58387  0.14246  0.08661  1.0000
  H   H36       1.0  0.08387  0.85754  0.41339  1.0000
  H   H37       1.0  0.62526  0.86511  0.85683  1.0000
  H   H38       1.0  0.12526  0.13489  0.64317  1.0000
  H   H39       1.0  0.37474  0.13489  0.14317  1.0000
  H   H40       1.0  0.87474  0.86511  0.35683  1.0000
  C   C1        1.0  0.54927  0.48783  0.16214  1.0000
  C   C2        1.0  0.04927  0.51217  0.33787  1.0000
  C   C3        1.0  0.45073  0.51217  0.83786  1.0000
  C   C4        1.0  0.95072  0.48783  0.66213  1.0000
  C   C5        1.0  0.54778  0.59170  0.22428  1.0000
  C   C6        1.0  0.04776  0.40830  0.27573  1.0000
  C   C7        1.0  0.45225  0.40830  0.77572  1.0000
  C   C8        1.0  0.95225  0.59169  0.72427  1.0000
  C   C9        1.0  0.37407  0.66285  0.22635  1.0000
  C   C10       1.0  0.87406  0.33715  0.27365  1.0000
  C   C11       1.0  0.62595  0.33715  0.77364  1.0000
  C   C12       1.0  0.12594  0.66285  0.72635  1.0000
  C   C13       1.0  0.20484  0.62830  0.16543  1.0000
  C   C14       1.0  0.70484  0.37170  0.33457  1.0000
  C   C15       1.0  0.79517  0.37170  0.83457  1.0000
  C   C16       1.0  0.29517  0.62830  0.66542  1.0000
  C   C17       1.0  0.21526  0.52137  0.10745  1.0000
  C   C18       1.0  0.71525  0.47863  0.39255  1.0000
  C   C19       1.0  0.78474  0.47863  0.89255  1.0000
  C   C20       1.0  0.28475  0.52136  0.60744  1.0000
  C   C21       1.0  0.01282  0.70045  0.16380  1.0000
  C   C22       1.0  0.51281  0.29955  0.33620  1.0000
  C   C23       1.0  0.98719  0.29955  0.83620  1.0000
  C   C24       1.0  0.48718  0.70045  0.66379  1.0000
  C   C25       1.0  0.06082  0.80169  0.12932  1.0000
  C   C26       1.0  0.56082  0.19831  0.37068  1.0000
  C   C27       1.0  0.93917  0.19831  0.87069  1.0000
  C   C28       1.0  0.43918  0.80169  0.62931  1.0000
  N   N1        1.0  0.38277  0.45295  0.10579  1.0000
  N   N2        1.0  0.88278  0.54705  0.39422  1.0000
  N   N3        1.0  0.61722  0.54705  0.89422  1.0000
  N   N4        1.0  0.11722  0.45295  0.60577  1.0000
  O   O1        1.0  0.31440  0.68334  0.99393  1.0000
  O   O2        1.0  0.81440  0.31666  0.50607  1.0000
  O   O3        1.0  0.68558  0.31667  0.00607  1.0000
  O   O4        1.0  0.18560  0.68334  0.49393  1.0000
  O   O5        1.0  0.18561  0.87292  0.98827  1.0000
  O   O6        1.0  0.68561  0.12708  0.51173  1.0000
  O   O7        1.0  0.81440  0.12709  0.01174  1.0000
  O   O8        1.0  0.31438  0.87292  0.48826  1.0000
  O   O9        1.0  0.92594  0.70586  0.95752  1.0000
  O   O10       1.0  0.42595  0.29414  0.54248  1.0000
  O   O11       1.0  0.07404  0.29416  0.04249  1.0000
  O   O12       1.0  0.57405  0.70586  0.45751  1.0000
  O   O13       1.0  0.62864  0.81668  0.10008  1.0000
  O   O14       1.0  0.12864  0.18332  0.39992  1.0000
  O   O15       1.0  0.37135  0.18332  0.89993  1.0000
  O   O16       1.0  0.87136  0.81668  0.60007  1.0000
  O   O17       1.0  0.86537  0.99115  0.11133  1.0000
  O   O18       1.0  0.36536  0.00885  0.38867  1.0000
  O   O19       1.0  0.13463  0.00885  0.88867  1.0000
  O   O20       1.0  0.63463  0.99115  0.61133  1.0000
  O   O21       1.0  0.77564  0.92874  0.24826  1.0000
  O   O22       1.0  0.27564  0.07126  0.25174  1.0000
  O   O23       1.0  0.22436  0.07126  0.75174  1.0000
  O   O24       1.0  0.72436  0.92874  0.74826  1.0000
  O   O25       1.0  0.23859  0.86485  0.17772  1.0000
  O   O26       1.0  0.73858  0.13515  0.32229  1.0000
  O   O27       1.0  0.76141  0.13516  0.82229  1.0000
  O   O28       1.0  0.26142  0.86485  0.67771  1.0000
  O   O29       1.0  0.54705  0.81717  0.88555  1.0000
  O   O30       1.0  0.04706  0.18283  0.61444  1.0000
  O   O31       1.0  0.45294  0.18283  0.11444  1.0000
  O   O32       1.0  0.95295  0.81717  0.38555  1.0000
