data_image0
_chemical_formula_structural       H16Pb4C24S4Cl4O18
_chemical_formula_sum              "H16 Pb4 C24 S4 Cl4 O18"
_cell_length_a       7.21404
_cell_length_b       10.5669
_cell_length_c       12.4536
_cell_angle_alpha    92.9062
_cell_angle_beta     90.2125
_cell_angle_gamma    110.183

_space_group_name_H-M_alt    "P 1"
_space_group_IT_number       1

loop_
  _space_group_symop_operation_xyz
  'x, y, z'

loop_
  _atom_site_type_symbol
  _atom_site_label
  _atom_site_symmetry_multiplicity
  _atom_site_fract_x
  _atom_site_fract_y
  _atom_site_fract_z
  _atom_site_occupancy
  H   H1        1.0  0.10179  0.39902  0.21843  1.0000
  H   H2        1.0  0.89822  0.60099  0.78157  1.0000
  H   H3        1.0  0.01081  0.51391  0.22817  1.0000
  H   H4        1.0  0.98919  0.48609  0.77182  1.0000
  H   H5        1.0  0.00479  0.24019  0.66298  1.0000
  H   H6        1.0  0.99519  0.75981  0.33702  1.0000
  H   H7        1.0  0.41787  0.59549  0.53131  1.0000
  H   H8        1.0  0.58211  0.40452  0.46869  1.0000
  H   H9        1.0  0.58762  0.66484  0.70915  1.0000
  H   H10       1.0  0.41237  0.33516  0.29085  1.0000
  H   H11       1.0  0.09951  0.90511  0.61651  1.0000
  H   H12       1.0  0.90050  0.09489  0.38348  1.0000
  H   H13       1.0  0.61539  0.25769  0.57570  1.0000
  H   H14       1.0  0.38461  0.74231  0.42430  1.0000
  H   H15       1.0  0.71269  0.25608  0.76419  1.0000
  H   H16       1.0  0.28732  0.74392  0.23581  1.0000
  Pb  Pb1       1.0  0.32038  0.59917  0.04286  1.0000
  Pb  Pb2       1.0  0.67962  0.40083  0.95714  1.0000
  Pb  Pb3       1.0  0.29801  0.06354  0.06903  1.0000
  Pb  Pb4       1.0  0.70199  0.93647  0.93096  1.0000
  C   C1        1.0  0.22409  0.37598  0.77346  1.0000
  C   C2        1.0  0.77592  0.62402  0.22654  1.0000
  C   C3        1.0  0.13057  0.33394  0.67259  1.0000
  C   C4        1.0  0.86941  0.66606  0.32742  1.0000
  C   C5        1.0  0.20107  0.41388  0.58602  1.0000
  C   C6        1.0  0.79891  0.58612  0.41399  1.0000
  C   C7        1.0  0.36393  0.53376  0.59964  1.0000
  C   C8        1.0  0.63605  0.46624  0.40036  1.0000
  C   C9        1.0  0.45840  0.57307  0.69942  1.0000
  C   C10       1.0  0.54160  0.42693  0.30057  1.0000
  C   C11       1.0  0.39248  0.49550  0.78965  1.0000
  C   C12       1.0  0.60752  0.50450  0.21035  1.0000
  C   C13       1.0  0.28980  0.98414  0.75624  1.0000
  C   C14       1.0  0.71020  0.01586  0.24376  1.0000
  C   C15       1.0  0.23240  0.98354  0.64889  1.0000
  C   C16       1.0  0.76761  0.01646  0.35111  1.0000
  C   C17       1.0  0.34877  0.08324  0.58437  1.0000
  C   C18       1.0  0.65125  0.91676  0.41563  1.0000
  C   C19       1.0  0.52089  0.18186  0.62663  1.0000
  C   C20       1.0  0.47912  0.81814  0.37337  1.0000
  C   C21       1.0  0.57457  0.18158  0.73394  1.0000
  C   C22       1.0  0.42543  0.81842  0.26606  1.0000
  C   C23       1.0  0.46056  0.08424  0.80304  1.0000
  C   C24       1.0  0.53944  0.91576  0.19696  1.0000
  S   S1        1.0  0.12308  0.28121  0.88525  1.0000
  S   S2        1.0  0.87693  0.71879  0.11474  1.0000
  S   S3        1.0  0.15062  0.85287  0.83616  1.0000
  S   S4        1.0  0.84940  0.14714  0.16384  1.0000
  Cl  Cl1       1.0  0.08605  0.36471  0.46118  1.0000
  Cl  Cl2       1.0  0.91392  0.63529  0.53883  1.0000
  Cl  Cl3       1.0  0.28224  0.08221  0.45012  1.0000
  Cl  Cl4       1.0  0.71776  0.91779  0.54988  1.0000
  O   O1        1.0  0.05981  0.37387  0.95900  1.0000
  O   O2        1.0  0.94019  0.62613  0.04100  1.0000
  O   O3        1.0  0.13466  0.49823  0.21459  1.0000
  O   O4        1.0  0.86535  0.50178  0.78541  1.0000
  O   O5        1.0  0.95743  0.16373  0.84458  1.0000
  O   O6        1.0  0.04257  0.83626  0.15543  1.0000
  O   O7        1.0  0.28331  0.24673  0.93644  1.0000
  O   O8        1.0  0.71669  0.75327  0.06356  1.0000
  O   O9        1.0  0.48494  0.53371  0.88541  1.0000
  O   O10       1.0  0.51506  0.46628  0.11460  1.0000
  O   O11       1.0  0.97503  0.77040  0.77288  1.0000
  O   O12       1.0  0.02497  0.22960  0.22713  1.0000
  O   O13       1.0  0.08717  0.92029  0.93113  1.0000
  O   O14       1.0  0.91283  0.07972  0.06886  1.0000
  O   O15       1.0  0.28200  0.78113  0.86868  1.0000
  O   O16       1.0  0.71801  0.21888  0.13132  1.0000
  O   O17       1.0  0.51504  0.08587  0.90697  1.0000
  O   O18       1.0  0.48496  0.91412  0.09303  1.0000
