data_image0
_chemical_formula_structural       Cd4H44C58N4O16
_chemical_formula_sum              "Cd4 H44 C58 N4 O16"
_cell_length_a       9.69282
_cell_length_b       10.2651
_cell_length_c       14.8205
_cell_angle_alpha    88.9313
_cell_angle_beta     71.704
_cell_angle_gamma    75.7891

_space_group_name_H-M_alt    "P 1"
_space_group_IT_number       1

loop_
  _space_group_symop_operation_xyz
  'x, y, z'

loop_
  _atom_site_type_symbol
  _atom_site_label
  _atom_site_symmetry_multiplicity
  _atom_site_fract_x
  _atom_site_fract_y
  _atom_site_fract_z
  _atom_site_occupancy
  Cd  Cd1       1.0  0.03369  0.90208  0.19742  1.0000
  Cd  Cd2       1.0  0.96631  0.09792  0.80258  1.0000
  Cd  Cd3       1.0  0.91100  0.10835  0.41407  1.0000
  Cd  Cd4       1.0  0.08900  0.89165  0.58593  1.0000
  H   H1        1.0  0.37147  0.74041  0.12197  1.0000
  H   H2        1.0  0.62852  0.25959  0.87803  1.0000
  H   H3        1.0  0.14139  0.05538  0.00311  1.0000
  H   H4        1.0  0.85861  0.94462  0.99689  1.0000
  H   H5        1.0  0.59544  0.69560  0.97492  1.0000
  H   H6        1.0  0.40456  0.30439  0.02508  1.0000
  H   H7        1.0  0.35461  0.02670  0.85435  1.0000
  H   H8        1.0  0.64539  0.97330  0.14565  1.0000
  H   H9        1.0  0.42232  0.04611  0.39907  1.0000
  H   H10       1.0  0.57768  0.95389  0.60093  1.0000
  H   H11       1.0  0.38914  0.66555  0.30173  1.0000
  H   H12       1.0  0.61086  0.33445  0.69827  1.0000
  H   H13       1.0  0.01514  0.43823  0.21408  1.0000
  H   H14       1.0  0.98487  0.56177  0.78592  1.0000
  H   H15       1.0  0.75259  0.26235  0.08976  1.0000
  H   H16       1.0  0.24741  0.73765  0.91024  1.0000
  H   H17       1.0  0.65357  0.56180  0.29609  1.0000
  H   H18       1.0  0.34643  0.43820  0.70391  1.0000
  H   H19       1.0  0.68431  0.47575  0.01265  1.0000
  H   H20       1.0  0.31569  0.52425  0.98735  1.0000
  H   H21       1.0  0.61439  0.91750  0.76724  1.0000
  H   H22       1.0  0.38561  0.08250  0.23276  1.0000
  H   H23       1.0  0.73070  0.81400  0.82494  1.0000
  H   H24       1.0  0.26930  0.18600  0.17506  1.0000
  H   H25       1.0  0.80539  0.70643  0.33170  1.0000
  H   H26       1.0  0.19461  0.29357  0.66830  1.0000
  H   H27       1.0  0.78269  0.67279  0.03925  1.0000
  H   H28       1.0  0.21731  0.32721  0.96075  1.0000
  H   H29       1.0  0.64943  0.61386  0.79090  1.0000
  H   H30       1.0  0.35057  0.38614  0.20910  1.0000
  H   H31       1.0  0.52212  0.71420  0.73845  1.0000
  H   H32       1.0  0.47788  0.28580  0.26155  1.0000
  H   H33       1.0  0.86088  0.69310  0.66884  1.0000
  H   H34       1.0  0.13912  0.30690  0.33116  1.0000
  H   H35       1.0  0.73050  0.77036  0.61090  1.0000
  H   H36       1.0  0.26950  0.22964  0.38910  1.0000
  H   H37       1.0  0.63285  0.62538  0.52051  1.0000
  H   H38       1.0  0.36715  0.37463  0.47949  1.0000
  H   H39       1.0  0.94769  0.44441  0.66693  1.0000
  H   H40       1.0  0.05231  0.55558  0.33307  1.0000
  H   H41       1.0  0.69554  0.40233  0.43273  1.0000
  H   H42       1.0  0.30445  0.59767  0.56727  1.0000
  H   H43       1.0  0.00314  0.23255  0.57110  1.0000
  H   H44       1.0  0.99686  0.76745  0.42890  1.0000
  C   C1        1.0  0.23185  0.92180  0.35203  1.0000
  C   C2        1.0  0.76815  0.07820  0.64797  1.0000
  C   C3        1.0  0.92290  0.21103  0.20676  1.0000
  C   C4        1.0  0.07710  0.78897  0.79324  1.0000
  C   C5        1.0  0.37288  0.80031  0.06027  1.0000
  C   C6        1.0  0.62712  0.19969  0.93973  1.0000
  C   C7        1.0  0.24424  0.97714  0.99512  1.0000
  C   C8        1.0  0.75576  0.02286  0.00488  1.0000
  C   C9        1.0  0.38905  0.86157  0.35139  1.0000
  C   C10       1.0  0.61095  0.13843  0.64861  1.0000
  C   C11       1.0  0.88586  0.33772  0.15785  1.0000
  C   C12       1.0  0.11415  0.66228  0.84215  1.0000
  C   C13       1.0  0.49687  0.77660  0.97845  1.0000
  C   C14       1.0  0.50313  0.22340  0.02155  1.0000
  C   C15       1.0  0.36497  0.96002  0.91122  1.0000
  C   C16       1.0  0.63503  0.03998  0.08878  1.0000
  C   C17       1.0  0.47256  0.94063  0.37487  1.0000
  C   C18       1.0  0.52744  0.05937  0.62513  1.0000
  C   C19       1.0  0.45523  0.72541  0.32135  1.0000
  C   C20       1.0  0.54477  0.27459  0.67865  1.0000
  C   C21       1.0  0.94271  0.44639  0.16997  1.0000
  C   C22       1.0  0.05729  0.55361  0.83003  1.0000
  C   C23       1.0  0.79382  0.34859  0.10009  1.0000
  C   C24       1.0  0.20619  0.65141  0.89991  1.0000
  C   C25       1.0  0.49453  0.85657  0.90083  1.0000
  C   C26       1.0  0.50547  0.14343  0.09917  1.0000
  C   C27       1.0  0.62427  0.88591  0.36435  1.0000
  C   C28       1.0  0.37573  0.11409  0.63565  1.0000
  C   C29       1.0  0.60287  0.66816  0.31784  1.0000
  C   C30       1.0  0.39713  0.33184  0.68216  1.0000
  C   C31       1.0  0.90625  0.56610  0.12653  1.0000
  C   C32       1.0  0.09376  0.43390  0.87347  1.0000
  C   C33       1.0  0.75588  0.46859  0.05747  1.0000
  C   C34       1.0  0.24412  0.53141  0.94253  1.0000
  C   C35       1.0  0.62393  0.82898  0.80971  1.0000
  C   C36       1.0  0.37607  0.17102  0.19029  1.0000
  C   C37       1.0  0.71740  0.97437  0.37905  1.0000
  C   C38       1.0  0.28260  0.02563  0.62095  1.0000
  C   C39       1.0  0.68800  0.74851  0.33793  1.0000
  C   C40       1.0  0.31200  0.25149  0.66207  1.0000
  C   C41       1.0  0.81107  0.57746  0.07104  1.0000
  C   C42       1.0  0.18893  0.42254  0.92896  1.0000
  C   C43       1.0  0.96073  0.68394  0.14457  1.0000
  C   C44       1.0  0.03927  0.31607  0.85543  1.0000
  C   C45       1.0  0.63051  0.70431  0.75071  1.0000
  C   C46       1.0  0.36949  0.29569  0.24929  1.0000
  C   C47       1.0  0.75771  0.68658  0.65488  1.0000
  C   C48       1.0  0.24229  0.31342  0.34512  1.0000
  C   C49       1.0  0.78732  0.55526  0.60064  1.0000
  C   C50       1.0  0.21268  0.44474  0.39936  1.0000
  C   C51       1.0  0.71481  0.54041  0.53445  1.0000
  C   C52       1.0  0.28518  0.45959  0.46555  1.0000
  C   C53       1.0  0.89095  0.44139  0.61442  1.0000
  C   C54       1.0  0.10905  0.55861  0.38558  1.0000
  C   C55       1.0  0.74967  0.41679  0.48483  1.0000
  C   C56       1.0  0.25033  0.58321  0.51517  1.0000
  C   C57       1.0  0.92122  0.32141  0.56178  1.0000
  C   C58       1.0  0.07878  0.67859  0.43822  1.0000
  N   N1        1.0  0.24731  0.89830  0.06840  1.0000
  N   N2        1.0  0.75269  0.10170  0.93160  1.0000
  N   N3        1.0  0.85206  0.30881  0.49757  1.0000
  N   N4        1.0  0.14794  0.69119  0.50243  1.0000
  O   O1        1.0  0.05530  0.66769  0.19052  1.0000
  O   O2        1.0  0.94470  0.33231  0.80948  1.0000
  O   O3        1.0  0.90630  0.79819  0.11764  1.0000
  O   O4        1.0  0.09370  0.20181  0.88236  1.0000
  O   O5        1.0  0.19897  0.88950  0.28148  1.0000
  O   O6        1.0  0.80103  0.11050  0.71852  1.0000
  O   O7        1.0  0.86072  0.92019  0.36036  1.0000
  O   O8        1.0  0.13928  0.07982  0.63964  1.0000
  O   O9        1.0  0.90214  0.10537  0.17517  1.0000
  O   O10       1.0  0.09786  0.89463  0.82483  1.0000
  O   O11       1.0  0.14220  0.00197  0.42407  1.0000
  O   O12       1.0  0.85780  0.99803  0.57593  1.0000
  O   O13       1.0  0.97332  0.21779  0.27608  1.0000
  O   O14       1.0  0.02668  0.78221  0.72392  1.0000
  O   O15       1.0  0.65997  0.09622  0.40832  1.0000
  O   O16       1.0  0.34003  0.90378  0.59168  1.0000
