data_image0
_chemical_formula_structural       Li4H18C6S2N2O14
_chemical_formula_sum              "Li4 H18 C6 S2 N2 O14"
_cell_length_a       5.00961
_cell_length_b       9.02508
_cell_length_c       9.79814
_cell_angle_alpha    72.6526
_cell_angle_beta     82.6367
_cell_angle_gamma    89.3099

_space_group_name_H-M_alt    "P 1"
_space_group_IT_number       1

loop_
  _space_group_symop_operation_xyz
  'x, y, z'

loop_
  _atom_site_type_symbol
  _atom_site_label
  _atom_site_symmetry_multiplicity
  _atom_site_fract_x
  _atom_site_fract_y
  _atom_site_fract_z
  _atom_site_occupancy
  Li  Li1       1.0  0.77755  0.10869  0.60489  1.0000
  Li  Li2       1.0  0.22246  0.89131  0.39511  1.0000
  Li  Li3       1.0  0.74917  0.75167  0.28045  1.0000
  Li  Li4       1.0  0.25084  0.24832  0.71955  1.0000
  H   H1        1.0  0.35227  0.89182  0.76587  1.0000
  H   H2        1.0  0.64773  0.10818  0.23413  1.0000
  H   H3        1.0  0.02929  0.85356  0.75474  1.0000
  H   H4        1.0  0.97071  0.14644  0.24526  1.0000
  H   H5        1.0  0.63475  0.47048  0.33543  1.0000
  H   H6        1.0  0.36525  0.52952  0.66457  1.0000
  H   H7        1.0  0.25663  0.62122  0.87343  1.0000
  H   H8        1.0  0.74337  0.37879  0.12657  1.0000
  H   H9        1.0  0.98026  0.66442  0.98738  1.0000
  H   H10       1.0  0.01974  0.33558  0.01262  1.0000
  H   H11       1.0  0.38697  0.59042  0.11609  1.0000
  H   H12       1.0  0.61303  0.40958  0.88391  1.0000
  H   H13       1.0  0.57114  0.75034  0.99230  1.0000
  H   H14       1.0  0.42885  0.24965  0.00770  1.0000
  H   H15       1.0  0.95143  0.47423  0.32873  1.0000
  H   H16       1.0  0.04857  0.52576  0.67127  1.0000
  H   H17       1.0  0.09772  0.94168  0.87402  1.0000
  H   H18       1.0  0.90228  0.05831  0.12598  1.0000
  C   C1        1.0  0.25962  0.80757  0.13929  1.0000
  C   C2        1.0  0.74037  0.19242  0.86071  1.0000
  C   C3        1.0  0.36681  0.70838  0.04380  1.0000
  C   C4        1.0  0.63319  0.29162  0.95620  1.0000
  C   C5        1.0  0.18426  0.70187  0.93356  1.0000
  C   C6        1.0  0.81574  0.29813  0.06645  1.0000
  S   S1        1.0  0.67391  0.77768  0.58051  1.0000
  S   S2        1.0  0.32609  0.22233  0.41948  1.0000
  N   N1        1.0  0.16612  0.85698  0.82612  1.0000
  N   N2        1.0  0.83387  0.14302  0.17388  1.0000
  O   O1        1.0  0.38562  0.79023  0.56024  1.0000
  O   O2        1.0  0.61438  0.20978  0.43975  1.0000
  O   O3        1.0  0.73283  0.88143  0.66916  1.0000
  O   O4        1.0  0.26717  0.11859  0.33083  1.0000
  O   O5        1.0  0.02676  0.86291  0.12503  1.0000
  O   O6        1.0  0.97324  0.13708  0.87498  1.0000
  O   O7        1.0  0.84339  0.83115  0.43662  1.0000
  O   O8        1.0  0.15662  0.16885  0.56337  1.0000
  O   O9        1.0  0.40422  0.82722  0.23070  1.0000
  O   O10       1.0  0.59579  0.17277  0.76930  1.0000
  O   O11       1.0  0.72952  0.61490  0.65830  1.0000
  O   O12       1.0  0.27048  0.38511  0.34169  1.0000
  O   O13       1.0  0.79552  0.53869  0.29890  1.0000
  O   O14       1.0  0.20448  0.46131  0.70110  1.0000
