data_image0
_chemical_formula_structural       Cs2H20C24N4Cl4O8
_chemical_formula_sum              "Cs2 H20 C24 N4 Cl4 O8"
_cell_length_a       6.12072
_cell_length_b       10.8296
_cell_length_c       12.3854
_cell_angle_alpha    108.969
_cell_angle_beta     92.0986
_cell_angle_gamma    89.7698

_space_group_name_H-M_alt    "P 1"
_space_group_IT_number       1

loop_
  _space_group_symop_operation_xyz
  'x, y, z'

loop_
  _atom_site_type_symbol
  _atom_site_label
  _atom_site_symmetry_multiplicity
  _atom_site_fract_x
  _atom_site_fract_y
  _atom_site_fract_z
  _atom_site_occupancy
  Cs  Cs1       1.0  0.25659  0.52591  0.87614  1.0000
  Cs  Cs2       1.0  0.74340  0.47409  0.12385  1.0000
  H   H1        1.0  0.24723  0.65785  0.20678  1.0000
  H   H2        1.0  0.75277  0.34215  0.79321  1.0000
  H   H3        1.0  0.30696  0.74321  0.12933  1.0000
  H   H4        1.0  0.69302  0.25679  0.87067  1.0000
  H   H5        1.0  0.63298  0.17734  0.60903  1.0000
  H   H6        1.0  0.36704  0.82266  0.39097  1.0000
  H   H7        1.0  0.84328  0.07609  0.52803  1.0000
  H   H8        1.0  0.15674  0.92390  0.47197  1.0000
  H   H9        1.0  0.68069  0.16952  0.46438  1.0000
  H   H10       1.0  0.31933  0.83048  0.53562  1.0000
  H   H11       1.0  0.17910  0.18677  0.48585  1.0000
  H   H12       1.0  0.82091  0.81323  0.51415  1.0000
  H   H13       1.0  0.01808  0.28337  0.42684  1.0000
  H   H14       1.0  0.98192  0.71663  0.57315  1.0000
  H   H15       1.0  0.37857  0.39116  0.48399  1.0000
  H   H16       1.0  0.62144  0.60884  0.51601  1.0000
  H   H17       1.0  0.36720  0.38121  0.62330  1.0000
  H   H18       1.0  0.63280  0.61878  0.37670  1.0000
  H   H19       1.0  0.18935  0.48889  0.58063  1.0000
  H   H20       1.0  0.81065  0.51111  0.41937  1.0000
  C   C1        1.0  0.27464  0.95740  0.01741  1.0000
  C   C2        1.0  0.72536  0.04259  0.98260  1.0000
  C   C3        1.0  0.25898  0.98360  0.90939  1.0000
  C   C4        1.0  0.74100  0.01641  0.09062  1.0000
  C   C5        1.0  0.24324  0.11003  0.90367  1.0000
  C   C6        1.0  0.75673  0.88996  0.09633  1.0000
  C   C7        1.0  0.23557  0.22382  0.00664  1.0000
  C   C8        1.0  0.76442  0.77619  0.99336  1.0000
  C   C9        1.0  0.25075  0.19681  0.11550  1.0000
  C   C10       1.0  0.74925  0.80317  0.88450  1.0000
  C   C11       1.0  0.26547  0.07203  0.12070  1.0000
  C   C12       1.0  0.73452  0.92798  0.87930  1.0000
  C   C13       1.0  0.25347  0.87299  0.80905  1.0000
  C   C14       1.0  0.74652  0.12701  0.19096  1.0000
  C   C15       1.0  0.23143  0.13038  0.79628  1.0000
  C   C16       1.0  0.76855  0.86961  0.20373  1.0000
  C   C17       1.0  0.92050  0.28057  0.58710  1.0000
  C   C18       1.0  0.07952  0.71941  0.41288  1.0000
  C   C19       1.0  0.75796  0.16984  0.54614  1.0000
  C   C20       1.0  0.24205  0.83016  0.45386  1.0000
  C   C21       1.0  0.09939  0.28275  0.50767  1.0000
  C   C22       1.0  0.90062  0.71726  0.49233  1.0000
  C   C23       1.0  0.26700  0.39263  0.55180  1.0000
  C   C24       1.0  0.73301  0.60737  0.44820  1.0000
  N   N1        1.0  0.24870  0.78079  0.72711  1.0000
  N   N2        1.0  0.75130  0.21921  0.27288  1.0000
  N   N3        1.0  0.22445  0.14404  0.70635  1.0000
  N   N4        1.0  0.77554  0.85596  0.29364  1.0000
  Cl  Cl1       1.0  0.24460  0.33110  0.23513  1.0000
  Cl  Cl2       1.0  0.75541  0.66891  0.76487  1.0000
  Cl  Cl3       1.0  0.26919  0.03988  0.24699  1.0000
  Cl  Cl4       1.0  0.73080  0.96013  0.75302  1.0000
  O   O1        1.0  0.29276  0.84277  0.02081  1.0000
  O   O2        1.0  0.70723  0.15724  0.97920  1.0000
  O   O3        1.0  0.21152  0.33750  0.00336  1.0000
  O   O4        1.0  0.78849  0.66250  0.99664  1.0000
  O   O5        1.0  0.32774  0.65760  0.13894  1.0000
  O   O6        1.0  0.67226  0.34240  0.86106  1.0000
  O   O7        1.0  0.90536  0.36714  0.68092  1.0000
  O   O8        1.0  0.09466  0.63287  0.31909  1.0000
