data_image0
_chemical_formula_structural       Zn4H24C44N8O16
_chemical_formula_sum              "Zn4 H24 C44 N8 O16"
_cell_length_a       11.0096
_cell_length_b       11.0096
_cell_length_c       17.4372
_cell_angle_alpha    71.8836
_cell_angle_beta     71.8835
_cell_angle_gamma    87.5341

_space_group_name_H-M_alt    "P 1"
_space_group_IT_number       1

loop_
  _space_group_symop_operation_xyz
  'x, y, z'

loop_
  _atom_site_type_symbol
  _atom_site_label
  _atom_site_symmetry_multiplicity
  _atom_site_fract_x
  _atom_site_fract_y
  _atom_site_fract_z
  _atom_site_occupancy
  Zn  Zn1       1.0  0.99421  0.09216  0.65719  1.0000
  Zn  Zn2       1.0  0.90784  0.00579  0.84281  1.0000
  Zn  Zn3       1.0  0.00579  0.90784  0.34281  1.0000
  Zn  Zn4       1.0  0.09216  0.99421  0.15719  1.0000
  H   H1        1.0  0.93188  0.29684  0.49640  1.0000
  H   H2        1.0  0.70316  0.06812  0.00360  1.0000
  H   H3        1.0  0.06812  0.70316  0.50360  1.0000
  H   H4        1.0  0.29684  0.93188  0.99640  1.0000
  H   H5        1.0  0.20894  0.02083  0.50723  1.0000
  H   H6        1.0  0.97917  0.79106  0.99277  1.0000
  H   H7        1.0  0.79106  0.97917  0.49277  1.0000
  H   H8        1.0  0.02083  0.20894  0.00722  1.0000
  H   H9        1.0  0.24163  0.15797  0.33751  1.0000
  H   H10       1.0  0.84203  0.75837  0.16249  1.0000
  H   H11       1.0  0.75837  0.84203  0.66249  1.0000
  H   H12       1.0  0.15798  0.24163  0.83751  1.0000
  H   H13       1.0  0.07422  0.50062  0.37780  1.0000
  H   H14       1.0  0.49939  0.92578  0.12220  1.0000
  H   H15       1.0  0.92578  0.49939  0.62220  1.0000
  H   H16       1.0  0.50062  0.07422  0.87780  1.0000
  H   H17       1.0  0.05377  0.62726  0.12362  1.0000
  H   H18       1.0  0.37274  0.94623  0.37638  1.0000
  H   H19       1.0  0.94623  0.37274  0.87638  1.0000
  H   H20       1.0  0.62727  0.05377  0.62362  1.0000
  H   H21       1.0  0.05476  0.39889  0.12377  1.0000
  H   H22       1.0  0.60111  0.94523  0.37623  1.0000
  H   H23       1.0  0.94524  0.60111  0.87623  1.0000
  H   H24       1.0  0.39889  0.05476  0.62377  1.0000
  C   C1        1.0  0.01217  0.24037  0.47761  1.0000
  C   C2        1.0  0.75963  0.98783  0.02239  1.0000
  C   C3        1.0  0.98783  0.75963  0.52239  1.0000
  C   C4        1.0  0.24037  0.01217  0.97761  1.0000
  C   C5        1.0  0.15729  0.09929  0.47941  1.0000
  C   C6        1.0  0.90071  0.84271  0.02059  1.0000
  C   C7        1.0  0.84271  0.90071  0.52059  1.0000
  C   C8        1.0  0.09929  0.15729  0.97941  1.0000
  C   C9        1.0  0.17478  0.16625  0.39580  1.0000
  C   C10       1.0  0.83375  0.82522  0.10420  1.0000
  C   C11       1.0  0.82522  0.83375  0.60420  1.0000
  C   C12       1.0  0.16625  0.17478  0.89580  1.0000
  C   C13       1.0  0.06755  0.35162  0.32257  1.0000
  C   C14       1.0  0.64838  0.93245  0.17743  1.0000
  C   C15       1.0  0.93245  0.64838  0.67743  1.0000
  C   C16       1.0  0.35162  0.06755  0.82257  1.0000
  C   C17       1.0  0.06644  0.47808  0.32285  1.0000
  C   C18       1.0  0.52192  0.93355  0.17715  1.0000
  C   C19       1.0  0.93356  0.52192  0.67715  1.0000
  C   C20       1.0  0.47808  0.06644  0.82285  1.0000
  C   C21       1.0  0.05883  0.57753  0.25185  1.0000
  C   C22       1.0  0.42247  0.94117  0.24815  1.0000
  C   C23       1.0  0.94117  0.42247  0.74815  1.0000
  C   C24       1.0  0.57753  0.05883  0.75185  1.0000
  C   C25       1.0  0.05617  0.54883  0.17951  1.0000
  C   C26       1.0  0.45117  0.94383  0.32049  1.0000
  C   C27       1.0  0.94383  0.45117  0.82049  1.0000
  C   C28       1.0  0.54883  0.05617  0.67951  1.0000
  C   C29       1.0  0.05719  0.42240  0.17957  1.0000
  C   C30       1.0  0.57760  0.94281  0.32043  1.0000
  C   C31       1.0  0.94281  0.57760  0.82043  1.0000
  C   C32       1.0  0.42240  0.05719  0.67957  1.0000
  C   C33       1.0  0.06010  0.32119  0.25143  1.0000
  C   C34       1.0  0.67881  0.93990  0.24857  1.0000
  C   C35       1.0  0.93990  0.67881  0.74857  1.0000
  C   C36       1.0  0.32119  0.06010  0.75143  1.0000
  C   C37       1.0  0.05063  0.18562  0.25030  1.0000
  C   C38       1.0  0.81438  0.94938  0.24969  1.0000
  C   C39       1.0  0.94937  0.81438  0.74970  1.0000
  C   C40       1.0  0.18562  0.05063  0.75030  1.0000
  C   C41       1.0  0.05580  0.71355  0.25319  1.0000
  C   C42       1.0  0.28646  0.94420  0.24681  1.0000
  C   C43       1.0  0.94420  0.28646  0.74681  1.0000
  C   C44       1.0  0.71354  0.05580  0.75319  1.0000
  N   N1        1.0  0.05579  0.14655  0.52958  1.0000
  N   N2        1.0  0.85345  0.94421  0.97042  1.0000
  N   N3        1.0  0.94421  0.85345  0.47042  1.0000
  N   N4        1.0  0.14655  0.05579  0.02958  1.0000
  N   N5        1.0  0.08220  0.25543  0.39546  1.0000
  N   N6        1.0  0.74457  0.91780  0.10454  1.0000
  N   N7        1.0  0.91780  0.74457  0.60454  1.0000
  N   N8        1.0  0.25543  0.08220  0.89546  1.0000
  O   O1        1.0  0.98510  0.10358  0.31887  1.0000
  O   O2        1.0  0.89642  0.01490  0.18113  1.0000
  O   O3        1.0  0.01490  0.89642  0.68113  1.0000
  O   O4        1.0  0.10358  0.98510  0.81887  1.0000
  O   O5        1.0  0.10803  0.16604  0.18014  1.0000
  O   O6        1.0  0.83396  0.89197  0.31986  1.0000
  O   O7        1.0  0.89197  0.83396  0.81986  1.0000
  O   O8        1.0  0.16604  0.10803  0.68014  1.0000
  O   O9        1.0  0.05797  0.79958  0.18413  1.0000
  O   O10       1.0  0.20042  0.94203  0.31587  1.0000
  O   O11       1.0  0.94202  0.20042  0.81587  1.0000
  O   O12       1.0  0.79958  0.05797  0.68413  1.0000
  O   O13       1.0  0.04967  0.73161  0.32283  1.0000
  O   O14       1.0  0.26839  0.95033  0.17717  1.0000
  O   O15       1.0  0.95033  0.26839  0.67717  1.0000
  O   O16       1.0  0.73161  0.04967  0.82283  1.0000
