data_image0
_chemical_formula_structural       K4H16C24N4Cl4O10
_chemical_formula_sum              "K4 H16 C24 N4 Cl4 O10"
_cell_length_a       3.84617
_cell_length_b       12.9073
_cell_length_c       15.7187
_cell_angle_alpha    101.769
_cell_angle_beta     97.0368
_cell_angle_gamma    89.9822

_space_group_name_H-M_alt    "P 1"
_space_group_IT_number       1

loop_
  _space_group_symop_operation_xyz
  'x, y, z'

loop_
  _atom_site_type_symbol
  _atom_site_label
  _atom_site_symmetry_multiplicity
  _atom_site_fract_x
  _atom_site_fract_y
  _atom_site_fract_z
  _atom_site_occupancy
  K   K1        1.0  0.25922  0.58695  0.91377  1.0000
  K   K2        1.0  0.34454  0.91285  0.08622  1.0000
  K   K3        1.0  0.74078  0.41305  0.08623  1.0000
  K   K4        1.0  0.65544  0.08715  0.91377  1.0000
  H   H1        1.0  0.03348  0.96020  0.75677  1.0000
  H   H2        1.0  0.27678  0.53981  0.24345  1.0000
  H   H3        1.0  0.96651  0.03980  0.24323  1.0000
  H   H4        1.0  0.72322  0.46020  0.75655  1.0000
  H   H5        1.0  0.35623  0.61588  0.64850  1.0000
  H   H6        1.0  0.70645  0.88404  0.35157  1.0000
  H   H7        1.0  0.64377  0.38411  0.35150  1.0000
  H   H8        1.0  0.29355  0.11596  0.64843  1.0000
  H   H9        1.0  0.38201  0.74545  0.55292  1.0000
  H   H10       1.0  0.82837  0.75453  0.44721  1.0000
  H   H11       1.0  0.61799  0.25455  0.44708  1.0000
  H   H12       1.0  0.17163  0.24547  0.55279  1.0000
  H   H13       1.0  0.87748  0.72918  0.04615  1.0000
  H   H14       1.0  0.83150  0.77066  0.95392  1.0000
  H   H15       1.0  0.12252  0.27082  0.95385  1.0000
  H   H16       1.0  0.16850  0.22934  0.04608  1.0000
  C   C1        1.0  0.69130  0.70864  0.75949  1.0000
  C   C2        1.0  0.93109  0.79132  0.24065  1.0000
  C   C3        1.0  0.30871  0.29136  0.24051  1.0000
  C   C4        1.0  0.06891  0.20868  0.75935  1.0000
  C   C5        1.0  0.87325  0.81259  0.79038  1.0000
  C   C6        1.0  0.08276  0.68743  0.20981  1.0000
  C   C7        1.0  0.12675  0.18741  0.20962  1.0000
  C   C8        1.0  0.91724  0.31257  0.79019  1.0000
  C   C9        1.0  0.88878  0.88504  0.73318  1.0000
  C   C10       1.0  0.15564  0.61498  0.26703  1.0000
  C   C11       1.0  0.11122  0.11496  0.26682  1.0000
  C   C12       1.0  0.84437  0.38502  0.73297  1.0000
  C   C13       1.0  0.71762  0.85900  0.64999  1.0000
  C   C14       1.0  0.06741  0.64103  0.35020  1.0000
  C   C15       1.0  0.28238  0.14100  0.35001  1.0000
  C   C16       1.0  0.93259  0.35897  0.64981  1.0000
  C   C17       1.0  0.52080  0.76171  0.61918  1.0000
  C   C18       1.0  0.90109  0.73829  0.38097  1.0000
  C   C19       1.0  0.47920  0.23829  0.38082  1.0000
  C   C20       1.0  0.09891  0.26171  0.61904  1.0000
  C   C21       1.0  0.50588  0.69004  0.67171  1.0000
  C   C22       1.0  0.83333  0.80993  0.32841  1.0000
  C   C23       1.0  0.49413  0.30995  0.32829  1.0000
  C   C24       1.0  0.16667  0.19007  0.67159  1.0000
  N   N1        1.0  0.00835  0.83505  0.87612  1.0000
  N   N2        1.0  0.13209  0.66499  0.12407  1.0000
  N   N3        1.0  0.99165  0.16495  0.12388  1.0000
  N   N4        1.0  0.86791  0.33502  0.87593  1.0000
  Cl  Cl1       1.0  0.73032  0.94363  0.57750  1.0000
  Cl  Cl2       1.0  0.15248  0.55638  0.42271  1.0000
  Cl  Cl3       1.0  0.26967  0.05637  0.42250  1.0000
  Cl  Cl4       1.0  0.84752  0.44362  0.57729  1.0000
  O   O1        1.0  0.69478  0.63879  0.80570  1.0000
  O   O2        1.0  0.88793  0.86115  0.19440  1.0000
  O   O3        1.0  0.30523  0.36121  0.19430  1.0000
  O   O4        1.0  0.11206  0.13886  0.80560  1.0000
  O   O5        1.0  0.16723  0.92520  0.90753  1.0000
  O   O6        1.0  0.25972  0.57484  0.09266  1.0000
  O   O7        1.0  0.83276  0.07480  0.09247  1.0000
  O   O8        1.0  0.74028  0.42516  0.90734  1.0000
  O   O9        1.0  0.70437  0.74989  1.00000  1.0000
  O   O10       1.0  0.29563  0.25012  0.00000  1.0000
