data_image0
_chemical_formula_structural       Sc4H24C48O24
_chemical_formula_sum              "Sc4 H24 C48 O24"
_cell_length_a       8.85371
_cell_length_b       11.3593
_cell_length_c       17.8461
_cell_angle_alpha    84.4546
_cell_angle_beta     75.6309
_cell_angle_gamma    67.064

_space_group_name_H-M_alt    "P 1"
_space_group_IT_number       1

loop_
  _space_group_symop_operation_xyz
  'x, y, z'

loop_
  _atom_site_type_symbol
  _atom_site_label
  _atom_site_symmetry_multiplicity
  _atom_site_fract_x
  _atom_site_fract_y
  _atom_site_fract_z
  _atom_site_occupancy
  Sc  Sc1       1.0  0.86380  0.24996  0.77235  1.0000
  Sc  Sc2       1.0  0.38612  0.24995  0.72762  1.0000
  Sc  Sc3       1.0  0.13620  0.75004  0.22765  1.0000
  Sc  Sc4       1.0  0.61388  0.75005  0.27238  1.0000
  H   H1        1.0  0.75549  0.05117  0.98322  1.0000
  H   H2        1.0  0.28993  0.44885  0.51669  1.0000
  H   H3        1.0  0.69339  0.05109  0.51672  1.0000
  H   H4        1.0  0.76122  0.44885  0.98333  1.0000
  H   H5        1.0  0.24451  0.94883  0.01678  1.0000
  H   H6        1.0  0.71007  0.55116  0.48331  1.0000
  H   H7        1.0  0.30661  0.94891  0.48328  1.0000
  H   H8        1.0  0.23878  0.55115  0.01667  1.0000
  H   H9        1.0  0.33074  0.07020  0.90003  1.0000
  H   H10       1.0  0.80100  0.42981  0.60006  1.0000
  H   H11       1.0  0.09892  0.07023  0.60005  1.0000
  H   H12       1.0  0.26920  0.42980  0.89992  1.0000
  H   H13       1.0  0.66925  0.92980  0.09998  1.0000
  H   H14       1.0  0.19900  0.57019  0.39994  1.0000
  H   H15       1.0  0.90108  0.92977  0.39996  1.0000
  H   H16       1.0  0.73081  0.57020  0.10008  1.0000
  H   H17       1.0  0.07120  0.87000  0.75214  1.0000
  H   H18       1.0  0.19338  0.62990  0.74784  1.0000
  H   H19       1.0  0.55866  0.86994  0.74787  1.0000
  H   H20       1.0  0.67651  0.62986  0.75219  1.0000
  H   H21       1.0  0.92880  0.13000  0.24786  1.0000
  H   H22       1.0  0.80661  0.37010  0.25216  1.0000
  H   H23       1.0  0.44134  0.13006  0.25213  1.0000
  H   H24       1.0  0.32349  0.37014  0.24781  1.0000
  C   C1        1.0  0.59924  0.13905  0.86538  1.0000
  C   C2        1.0  0.10372  0.36096  0.63460  1.0000
  C   C3        1.0  0.76158  0.13902  0.63462  1.0000
  C   C4        1.0  0.03524  0.36093  0.86539  1.0000
  C   C5        1.0  0.40076  0.86094  0.13463  1.0000
  C   C6        1.0  0.89627  0.63905  0.36540  1.0000
  C   C7        1.0  0.23842  0.86098  0.36538  1.0000
  C   C8        1.0  0.96475  0.63907  0.13461  1.0000
  C   C9        1.0  0.54797  0.06740  0.93507  1.0000
  C   C10       1.0  0.05046  0.43265  0.56493  1.0000
  C   C11       1.0  0.88457  0.06735  0.56495  1.0000
  C   C12       1.0  0.01687  0.43262  0.93506  1.0000
  C   C13       1.0  0.45202  0.93260  0.06493  1.0000
  C   C14       1.0  0.94954  0.56735  0.43507  1.0000
  C   C15       1.0  0.11542  0.93265  0.43505  1.0000
  C   C16       1.0  0.98313  0.56737  0.06493  1.0000
  C   C17       1.0  0.64399  0.02825  0.99124  1.0000
  C   C18       1.0  0.16350  0.47177  0.50871  1.0000
  C   C19       1.0  0.82781  0.02817  0.50874  1.0000
  C   C20       1.0  0.86474  0.47177  0.99131  1.0000
  C   C21       1.0  0.35601  0.97175  0.00876  1.0000
  C   C22       1.0  0.83651  0.52823  0.49129  1.0000
  C   C23       1.0  0.17220  0.97183  0.49126  1.0000
  C   C24       1.0  0.13526  0.52823  0.00869  1.0000
  C   C25       1.0  0.40389  0.03888  0.94414  1.0000
  C   C26       1.0  0.88690  0.46115  0.55592  1.0000
  C   C27       1.0  0.05716  0.03889  0.55591  1.0000
  C   C28       1.0  0.15195  0.46113  0.94406  1.0000
  C   C29       1.0  0.59611  0.96112  0.05587  1.0000
  C   C30       1.0  0.11310  0.53886  0.44408  1.0000
  C   C31       1.0  0.94284  0.96111  0.44409  1.0000
  C   C32       1.0  0.84805  0.53887  0.05594  1.0000
  C   C33       1.0  0.23699  0.02603  0.74996  1.0000
  C   C34       1.0  0.51298  0.47383  0.74997  1.0000
  C   C35       1.0  0.76301  0.97397  0.25004  1.0000
  C   C36       1.0  0.48703  0.52617  0.25003  1.0000
  C   C37       1.0  0.30827  0.88327  0.75001  1.0000
  C   C38       1.0  0.44160  0.61656  0.75002  1.0000
  C   C39       1.0  0.69173  0.11672  0.24999  1.0000
  C   C40       1.0  0.55840  0.38344  0.24998  1.0000
  C   C41       1.0  0.20405  0.81636  0.75089  1.0000
  C   C42       1.0  0.27135  0.68351  0.74915  1.0000
  C   C43       1.0  0.47940  0.81633  0.74917  1.0000
  C   C44       1.0  0.54492  0.68348  0.75092  1.0000
  C   C45       1.0  0.79595  0.18363  0.24911  1.0000
  C   C46       1.0  0.72865  0.31649  0.25085  1.0000
  C   C47       1.0  0.52061  0.18367  0.25083  1.0000
  C   C48       1.0  0.45508  0.31652  0.24908  1.0000
  O   O1        1.0  0.72631  0.16816  0.86067  1.0000
  O   O2        1.0  0.25520  0.33182  0.63929  1.0000
  O   O3        1.0  0.60542  0.16816  0.63929  1.0000
  O   O4        1.0  0.91292  0.33177  0.86071  1.0000
  O   O5        1.0  0.27369  0.83184  0.13933  1.0000
  O   O6        1.0  0.74480  0.66818  0.36071  1.0000
  O   O7        1.0  0.39458  0.83184  0.36071  1.0000
  O   O8        1.0  0.08708  0.66823  0.13929  1.0000
  O   O9        1.0  0.51362  0.16696  0.81401  1.0000
  O   O10       1.0  0.99463  0.33306  0.68598  1.0000
  O   O11       1.0  0.81923  0.16691  0.68602  1.0000
  O   O12       1.0  0.17224  0.33304  0.81400  1.0000
  O   O13       1.0  0.48637  0.83304  0.18599  1.0000
  O   O14       1.0  0.00538  0.66695  0.31401  1.0000
  O   O15       1.0  0.18077  0.83309  0.31398  1.0000
  O   O16       1.0  0.82777  0.66696  0.18600  1.0000
  O   O17       1.0  0.07809  0.08258  0.77229  1.0000
  O   O18       1.0  0.43290  0.41740  0.72759  1.0000
  O   O19       1.0  0.33948  0.08246  0.72761  1.0000
  O   O20       1.0  0.64951  0.41728  0.77231  1.0000
  O   O21       1.0  0.92191  0.91742  0.22771  1.0000
  O   O22       1.0  0.56710  0.58260  0.27241  1.0000
  O   O23       1.0  0.66054  0.91754  0.27239  1.0000
  O   O24       1.0  0.35049  0.58272  0.22769  1.0000
