data_image0
_chemical_formula_structural       K4H16C12N24Cl4O8
_chemical_formula_sum              "K4 H16 C12 N24 Cl4 O8"
_cell_length_a       8.60008
_cell_length_b       10.0476
_cell_length_c       10.175
_cell_angle_alpha    90
_cell_angle_beta     109.373
_cell_angle_gamma    90.0001

_space_group_name_H-M_alt    "P 1"
_space_group_IT_number       1

loop_
  _space_group_symop_operation_xyz
  'x, y, z'

loop_
  _atom_site_type_symbol
  _atom_site_label
  _atom_site_symmetry_multiplicity
  _atom_site_fract_x
  _atom_site_fract_y
  _atom_site_fract_z
  _atom_site_occupancy
  K   K1        1.0  0.05109  0.68891  0.57543  1.0000
  K   K2        1.0  0.44892  0.18891  0.42456  1.0000
  K   K3        1.0  0.94891  0.31110  0.42456  1.0000
  K   K4        1.0  0.55109  0.81109  0.57543  1.0000
  H   H1        1.0  0.85285  0.18603  0.84664  1.0000
  H   H2        1.0  0.64715  0.68603  0.15336  1.0000
  H   H3        1.0  0.14715  0.81397  0.15337  1.0000
  H   H4        1.0  0.35285  0.31397  0.84664  1.0000
  H   H5        1.0  0.64109  0.21104  0.82622  1.0000
  H   H6        1.0  0.85891  0.71104  0.17378  1.0000
  H   H7        1.0  0.35891  0.78896  0.17378  1.0000
  H   H8        1.0  0.14109  0.28896  0.82622  1.0000
  H   H9        1.0  0.93794  0.32098  0.06658  1.0000
  H   H10       1.0  0.56205  0.82098  0.93342  1.0000
  H   H11       1.0  0.06205  0.67902  0.93342  1.0000
  H   H12       1.0  0.43794  0.17902  0.06658  1.0000
  H   H13       1.0  0.81088  0.18285  0.07641  1.0000
  H   H14       1.0  0.68912  0.68285  0.92359  1.0000
  H   H15       1.0  0.18912  0.81715  0.92359  1.0000
  H   H16       1.0  0.31088  0.31715  0.07641  1.0000
  C   C1        1.0  0.63593  0.45486  0.71753  1.0000
  C   C2        1.0  0.86407  0.95486  0.28246  1.0000
  C   C3        1.0  0.36407  0.54514  0.28247  1.0000
  C   C4        1.0  0.13593  0.04514  0.71754  1.0000
  C   C5        1.0  0.76451  0.25442  0.86814  1.0000
  C   C6        1.0  0.73549  0.75442  0.13186  1.0000
  C   C7        1.0  0.23549  0.74558  0.13186  1.0000
  C   C8        1.0  0.26451  0.24558  0.86815  1.0000
  C   C9        1.0  0.81482  0.27730  0.02390  1.0000
  C   C10       1.0  0.68518  0.77730  0.97610  1.0000
  C   C11       1.0  0.18518  0.72270  0.97610  1.0000
  C   C12       1.0  0.31482  0.22270  0.02390  1.0000
  N   N1        1.0  0.76531  0.37725  0.79323  1.0000
  N   N2        1.0  0.73469  0.87725  0.20677  1.0000
  N   N3        1.0  0.23469  0.62274  0.20677  1.0000
  N   N4        1.0  0.26531  0.12275  0.79324  1.0000
  N   N5        1.0  0.90746  0.43926  0.80252  1.0000
  N   N6        1.0  0.59253  0.93926  0.19748  1.0000
  N   N7        1.0  0.09254  0.56074  0.19748  1.0000
  N   N8        1.0  0.40747  0.06074  0.80252  1.0000
  N   N9        1.0  0.86661  0.55092  0.73483  1.0000
  N   N10       1.0  0.63339  0.05092  0.26517  1.0000
  N   N11       1.0  0.13339  0.44908  0.26517  1.0000
  N   N12       1.0  0.36661  0.94908  0.73483  1.0000
  N   N13       1.0  0.70038  0.56565  0.68135  1.0000
  N   N14       1.0  0.79962  0.06565  0.31864  1.0000
  N   N15       1.0  0.29962  0.43435  0.31865  1.0000
  N   N16       1.0  0.20038  0.93435  0.68136  1.0000
  N   N17       1.0  0.48078  0.40500  0.68960  1.0000
  N   N18       1.0  0.01922  0.90500  0.31040  1.0000
  N   N19       1.0  0.51922  0.59500  0.31040  1.0000
  N   N20       1.0  0.98078  0.09500  0.68961  1.0000
  N   N21       1.0  0.35393  0.48387  0.62999  1.0000
  N   N22       1.0  0.14607  0.98387  0.37001  1.0000
  N   N23       1.0  0.64607  0.51613  0.37001  1.0000
  N   N24       1.0  0.85393  0.01613  0.62999  1.0000
  Cl  Cl1       1.0  0.67810  0.39040  0.06877  1.0000
  Cl  Cl2       1.0  0.82190  0.89040  0.93123  1.0000
  Cl  Cl3       1.0  0.32190  0.60960  0.93123  1.0000
  Cl  Cl4       1.0  0.17810  0.10960  0.06877  1.0000
  O   O1        1.0  0.21211  0.43275  0.60503  1.0000
  O   O2        1.0  0.28789  0.93275  0.39497  1.0000
  O   O3        1.0  0.78789  0.56725  0.39497  1.0000
  O   O4        1.0  0.71211  0.06725  0.60503  1.0000
  O   O5        1.0  0.36730  0.60498  0.60031  1.0000
  O   O6        1.0  0.13270  0.10498  0.39969  1.0000
  O   O7        1.0  0.63270  0.39502  0.39969  1.0000
  O   O8        1.0  0.86730  0.89502  0.60031  1.0000
