data_image0
_chemical_formula_structural       Cu4H28C4N12O20
_chemical_formula_sum              "Cu4 H28 C4 N12 O20"
_cell_length_a       7.06837
_cell_length_b       7.48234
_cell_length_c       12.3168
_cell_angle_alpha    90
_cell_angle_beta     90
_cell_angle_gamma    90

_space_group_name_H-M_alt    "P 1"
_space_group_IT_number       1

loop_
  _space_group_symop_operation_xyz
  'x, y, z'

loop_
  _atom_site_type_symbol
  _atom_site_label
  _atom_site_symmetry_multiplicity
  _atom_site_fract_x
  _atom_site_fract_y
  _atom_site_fract_z
  _atom_site_occupancy
  Cu  Cu1       1.0  0.75000  0.31336  0.37489  1.0000
  Cu  Cu2       1.0  0.25000  0.18664  0.87489  1.0000
  Cu  Cu3       1.0  0.25000  0.68664  0.62510  1.0000
  Cu  Cu4       1.0  0.75000  0.81336  0.12511  1.0000
  H   H1        1.0  0.75000  0.82702  0.36388  1.0000
  H   H2        1.0  0.25001  0.67298  0.86386  1.0000
  H   H3        1.0  0.25000  0.17298  0.63612  1.0000
  H   H4        1.0  0.75000  0.32702  0.13614  1.0000
  H   H5        1.0  0.42211  0.39167  0.30958  1.0000
  H   H6        1.0  0.57789  0.10833  0.80958  1.0000
  H   H7        1.0  0.92211  0.60833  0.69042  1.0000
  H   H8        1.0  0.07789  0.89167  0.19042  1.0000
  H   H9        1.0  0.57789  0.60833  0.69042  1.0000
  H   H10       1.0  0.42211  0.89167  0.19042  1.0000
  H   H11       1.0  0.07789  0.39167  0.30957  1.0000
  H   H12       1.0  0.92211  0.10833  0.80958  1.0000
  H   H13       1.0  0.41597  0.36267  0.44275  1.0000
  H   H14       1.0  0.58403  0.13734  0.94276  1.0000
  H   H15       1.0  0.91597  0.63733  0.55725  1.0000
  H   H16       1.0  0.08403  0.86267  0.05724  1.0000
  H   H17       1.0  0.58403  0.63733  0.55725  1.0000
  H   H18       1.0  0.41597  0.86267  0.05724  1.0000
  H   H19       1.0  0.08403  0.36267  0.44275  1.0000
  H   H20       1.0  0.91598  0.13733  0.94276  1.0000
  H   H21       1.0  0.41997  0.18776  0.36017  1.0000
  H   H22       1.0  0.58004  0.31224  0.86017  1.0000
  H   H23       1.0  0.91997  0.81224  0.63983  1.0000
  H   H24       1.0  0.08004  0.68776  0.13983  1.0000
  H   H25       1.0  0.58003  0.81223  0.63983  1.0000
  H   H26       1.0  0.41996  0.68776  0.13983  1.0000
  H   H27       1.0  0.08003  0.18776  0.36017  1.0000
  H   H28       1.0  0.91997  0.31224  0.86017  1.0000
  C   C1        1.0  0.75000  0.68148  0.34755  1.0000
  C   C2        1.0  0.25000  0.81852  0.84754  1.0000
  C   C3        1.0  0.25000  0.31852  0.65245  1.0000
  C   C4        1.0  0.75000  0.18148  0.15246  1.0000
  N   N1        1.0  0.75000  0.13357  0.59576  1.0000
  N   N2        1.0  0.25000  0.36643  0.09575  1.0000
  N   N3        1.0  0.25000  0.86643  0.40424  1.0000
  N   N4        1.0  0.75000  0.63357  0.90425  1.0000
  N   N5        1.0  0.47337  0.31428  0.37194  1.0000
  N   N6        1.0  0.52664  0.18572  0.87194  1.0000
  N   N7        1.0  0.97337  0.68572  0.62806  1.0000
  N   N8        1.0  0.02664  0.81428  0.12806  1.0000
  N   N9        1.0  0.52664  0.68572  0.62806  1.0000
  N   N10       1.0  0.47336  0.81428  0.12806  1.0000
  N   N11       1.0  0.02663  0.31428  0.37194  1.0000
  N   N12       1.0  0.97336  0.18572  0.87194  1.0000
  O   O1        1.0  0.75000  0.02232  0.67531  1.0000
  O   O2        1.0  0.25000  0.47768  0.17530  1.0000
  O   O3        1.0  0.25000  0.97768  0.32469  1.0000
  O   O4        1.0  0.75000  0.52232  0.82470  1.0000
  O   O5        1.0  0.75000  0.57833  0.43013  1.0000
  O   O6        1.0  0.25000  0.92166  0.93012  1.0000
  O   O7        1.0  0.25000  0.42167  0.56987  1.0000
  O   O8        1.0  0.75000  0.07834  0.06988  1.0000
  O   O9        1.0  0.75000  0.07207  0.49933  1.0000
  O   O10       1.0  0.25001  0.42792  0.99932  1.0000
  O   O11       1.0  0.25000  0.92793  0.50067  1.0000
  O   O12       1.0  0.75000  0.57208  0.00068  1.0000
  O   O13       1.0  0.75000  0.62472  0.25071  1.0000
  O   O14       1.0  0.25000  0.87529  0.75069  1.0000
  O   O15       1.0  0.25000  0.37528  0.74929  1.0000
  O   O16       1.0  0.75000  0.12471  0.24931  1.0000
  O   O17       1.0  0.75000  0.29843  0.61351  1.0000
  O   O18       1.0  0.25000  0.20157  0.11351  1.0000
  O   O19       1.0  0.25000  0.70157  0.38649  1.0000
  O   O20       1.0  0.75000  0.79843  0.88649  1.0000
