data_image0
_chemical_formula_structural       Cu4H28C4N8Cl4O24
_chemical_formula_sum              "Cu4 H28 C4 N8 Cl4 O24"
_cell_length_a       7.43827
_cell_length_b       7.74376
_cell_length_c       12.335
_cell_angle_alpha    90
_cell_angle_beta     90.0052
_cell_angle_gamma    90

_space_group_name_H-M_alt    "P 1"
_space_group_IT_number       1

loop_
  _space_group_symop_operation_xyz
  'x, y, z'

loop_
  _atom_site_type_symbol
  _atom_site_label
  _atom_site_symmetry_multiplicity
  _atom_site_fract_x
  _atom_site_fract_y
  _atom_site_fract_z
  _atom_site_occupancy
  Cu  Cu1       1.0  0.17219  0.25000  0.35760  1.0000
  Cu  Cu2       1.0  0.32788  0.75000  0.85776  1.0000
  Cu  Cu3       1.0  0.67214  0.25000  0.14220  1.0000
  Cu  Cu4       1.0  0.82783  0.75000  0.64233  1.0000
  H   H1        1.0  0.07698  0.55948  0.31937  1.0000
  H   H2        1.0  0.42314  0.44055  0.81962  1.0000
  H   H3        1.0  0.57680  0.94059  0.18043  1.0000
  H   H4        1.0  0.92304  0.05944  0.68066  1.0000
  H   H5        1.0  0.92304  0.44056  0.68066  1.0000
  H   H6        1.0  0.57680  0.55941  0.18043  1.0000
  H   H7        1.0  0.42314  0.05945  0.81962  1.0000
  H   H8        1.0  0.07698  0.94052  0.31937  1.0000
  H   H9        1.0  0.29542  0.55583  0.34097  1.0000
  H   H10       1.0  0.20467  0.44418  0.84113  1.0000
  H   H11       1.0  0.79527  0.94417  0.15897  1.0000
  H   H12       1.0  0.70460  0.05579  0.65903  1.0000
  H   H13       1.0  0.70460  0.44421  0.65903  1.0000
  H   H14       1.0  0.79527  0.55583  0.15897  1.0000
  H   H15       1.0  0.20467  0.05582  0.84113  1.0000
  H   H16       1.0  0.29542  0.94417  0.34097  1.0000
  H   H17       1.0  0.15389  0.54698  0.44425  1.0000
  H   H18       1.0  0.34612  0.45305  0.94446  1.0000
  H   H19       1.0  0.65389  0.95288  0.05560  1.0000
  H   H20       1.0  0.84617  0.04709  0.55576  1.0000
  H   H21       1.0  0.84617  0.45291  0.55576  1.0000
  H   H22       1.0  0.65389  0.54712  0.05560  1.0000
  H   H23       1.0  0.34612  0.04695  0.94446  1.0000
  H   H24       1.0  0.15389  0.95302  0.44425  1.0000
  H   H25       1.0  0.16924  0.25000  0.12070  1.0000
  H   H26       1.0  0.33079  0.75000  0.62092  1.0000
  H   H27       1.0  0.66926  0.25000  0.37906  1.0000
  H   H28       1.0  0.83088  0.75000  0.87916  1.0000
  C   C1        1.0  0.31329  0.25000  0.14119  1.0000
  C   C2        1.0  0.18670  0.75000  0.64134  1.0000
  C   C3        1.0  0.81333  0.25000  0.35861  1.0000
  C   C4        1.0  0.68679  0.75000  0.85875  1.0000
  N   N1        1.0  0.17538  0.50501  0.36641  1.0000
  N   N2        1.0  0.32469  0.49501  0.86661  1.0000
  N   N3        1.0  0.67528  0.99497  0.13343  1.0000
  N   N4        1.0  0.82466  0.00502  0.63358  1.0000
  N   N5        1.0  0.82466  0.49498  0.63358  1.0000
  N   N6        1.0  0.67528  0.50503  0.13343  1.0000
  N   N7        1.0  0.32469  0.00499  0.86661  1.0000
  N   N8        1.0  0.17538  0.99499  0.36641  1.0000
  Cl  Cl1       1.0  0.35191  0.25000  0.60554  1.0000
  Cl  Cl2       1.0  0.14796  0.75000  0.10556  1.0000
  Cl  Cl3       1.0  0.85197  0.25000  0.89446  1.0000
  Cl  Cl4       1.0  0.64805  0.75000  0.39444  1.0000
  O   O1        1.0  0.36352  0.25000  0.24002  1.0000
  O   O2        1.0  0.13645  0.75000  0.74017  1.0000
  O   O3        1.0  0.86354  0.25000  0.25978  1.0000
  O   O4        1.0  0.63647  0.75000  0.75993  1.0000
  O   O5        1.0  0.42547  0.25000  0.06309  1.0000
  O   O6        1.0  0.07454  0.75000  0.56323  1.0000
  O   O7        1.0  0.92551  0.25000  0.43671  1.0000
  O   O8        1.0  0.57466  0.75000  0.93688  1.0000
  O   O9        1.0  0.50055  0.25000  0.68516  1.0000
  O   O10       1.0  0.99942  0.75000  0.18521  1.0000
  O   O11       1.0  0.00059  0.25000  0.81487  1.0000
  O   O12       1.0  0.49938  0.75000  0.31485  1.0000
  O   O13       1.0  0.24288  0.09622  0.62150  1.0000
  O   O14       1.0  0.25702  0.90379  0.12150  1.0000
  O   O15       1.0  0.74293  0.40378  0.87849  1.0000
  O   O16       1.0  0.75708  0.59621  0.37845  1.0000
  O   O17       1.0  0.75708  0.90379  0.37845  1.0000
  O   O18       1.0  0.74293  0.09622  0.87849  1.0000
  O   O19       1.0  0.25703  0.59622  0.12150  1.0000
  O   O20       1.0  0.24288  0.40378  0.62150  1.0000
  O   O21       1.0  0.42813  0.25000  0.49610  1.0000
  O   O22       1.0  0.07165  0.75000  0.99615  1.0000
  O   O23       1.0  0.92818  0.25000  0.00390  1.0000
  O   O24       1.0  0.57190  0.75000  0.50388  1.0000
