data_image0
_chemical_formula_structural       Zn2H40C40N4O14
_chemical_formula_sum              "Zn2 H40 C40 N4 O14"
_cell_length_a       5.48137
_cell_length_b       8.21587
_cell_length_c       22.6644
_cell_angle_alpha    85.4347
_cell_angle_beta     83.0613
_cell_angle_gamma    70.5405

_space_group_name_H-M_alt    "P 1"
_space_group_IT_number       1

loop_
  _space_group_symop_operation_xyz
  'x, y, z'

loop_
  _atom_site_type_symbol
  _atom_site_label
  _atom_site_symmetry_multiplicity
  _atom_site_fract_x
  _atom_site_fract_y
  _atom_site_fract_z
  _atom_site_occupancy
  Zn  Zn1       1.0  0.96269  0.74917  0.25000  1.0000
  Zn  Zn2       1.0  0.03725  0.25092  0.75000  1.0000
  H   H1        1.0  0.19304  0.04574  0.24842  1.0000
  H   H2        1.0  0.48796  0.45273  0.25175  1.0000
  H   H3        1.0  0.80701  0.95428  0.75156  1.0000
  H   H4        1.0  0.51195  0.54736  0.74822  1.0000
  H   H5        1.0  0.12573  0.33801  0.19671  1.0000
  H   H6        1.0  0.66037  0.16043  0.30351  1.0000
  H   H7        1.0  0.87432  0.66201  0.80327  1.0000
  H   H8        1.0  0.33956  0.83966  0.69646  1.0000
  H   H9        1.0  0.80652  0.43819  0.12168  1.0000
  H   H10       1.0  0.36591  0.06048  0.37847  1.0000
  H   H11       1.0  0.19350  0.56185  0.87830  1.0000
  H   H12       1.0  0.63406  0.93957  0.62151  1.0000
  H   H13       1.0  0.56977  0.23614  0.09792  1.0000
  H   H14       1.0  0.90387  0.26279  0.40219  1.0000
  H   H15       1.0  0.43024  0.76390  0.90206  1.0000
  H   H16       1.0  0.09608  0.73724  0.59778  1.0000
  H   H17       1.0  0.65615  0.95205  0.15312  1.0000
  H   H18       1.0  0.76196  0.54684  0.34694  1.0000
  H   H19       1.0  0.34386  0.04800  0.84687  1.0000
  H   H20       1.0  0.23796  0.45322  0.65305  1.0000
  H   H21       1.0  0.87487  0.99858  0.43603  1.0000
  H   H22       1.0  0.30969  0.50096  0.06389  1.0000
  H   H23       1.0  0.12515  0.00142  0.56398  1.0000
  H   H24       1.0  0.69032  0.49894  0.93613  1.0000
  H   H25       1.0  0.86748  0.78455  0.44544  1.0000
  H   H26       1.0  0.09743  0.71495  0.05464  1.0000
  H   H27       1.0  0.13252  0.21545  0.55457  1.0000
  H   H28       1.0  0.90263  0.28496  0.94536  1.0000
  H   H29       1.0  0.14463  0.53025  0.43703  1.0000
  H   H30       1.0  0.11161  0.96946  0.06274  1.0000
  H   H31       1.0  0.85536  0.46972  0.56298  1.0000
  H   H32       1.0  0.88848  0.03041  0.93729  1.0000
  H   H33       1.0  0.57552  0.75908  0.53215  1.0000
  H   H34       1.0  0.86667  0.74095  0.96792  1.0000
  H   H35       1.0  0.42448  0.24088  0.46785  1.0000
  H   H36       1.0  0.13342  0.25891  0.03211  1.0000
  H   H37       1.0  0.52550  0.73776  0.21224  1.0000
  H   H38       1.0  0.47625  0.76080  0.28768  1.0000
  H   H39       1.0  0.47447  0.26226  0.78778  1.0000
  H   H40       1.0  0.52371  0.23928  0.71233  1.0000
  C   C1        1.0  0.05588  0.09410  0.21495  1.0000
  C   C2        1.0  0.36549  0.40442  0.28520  1.0000
  C   C3        1.0  0.94415  0.90594  0.78504  1.0000
  C   C4        1.0  0.63445  0.59565  0.71479  1.0000
  C   C5        1.0  0.01898  0.25537  0.18622  1.0000
  C   C6        1.0  0.46065  0.24314  0.31394  1.0000
  C   C7        1.0  0.98106  0.74465  0.81376  1.0000
  C   C8        1.0  0.53928  0.75693  0.68604  1.0000
  C   C9        1.0  0.84079  0.31079  0.14378  1.0000
  C   C10       1.0  0.29524  0.18792  0.35638  1.0000
  C   C11       1.0  0.15924  0.68924  0.85621  1.0000
  C   C12       1.0  0.70472  0.81214  0.64360  1.0000
  C   C13       1.0  0.70804  0.20120  0.13124  1.0000
  C   C14       1.0  0.04056  0.29763  0.36887  1.0000
  C   C15       1.0  0.29199  0.79883  0.86875  1.0000
  C   C16       1.0  0.95939  0.70242  0.63111  1.0000
  C   C17       1.0  0.75562  0.04148  0.16183  1.0000
  C   C18       1.0  0.95934  0.45729  0.33825  1.0000
  C   C19       1.0  0.24438  0.95857  0.83816  1.0000
  C   C20       1.0  0.04060  0.54276  0.66174  1.0000
  C   C21       1.0  0.09623  0.83150  0.36574  1.0000
  C   C22       1.0  0.29443  0.66788  0.13418  1.0000
  C   C23       1.0  0.90380  0.16849  0.63426  1.0000
  C   C24       1.0  0.70556  0.33203  0.86583  1.0000
  C   C25       1.0  0.99487  0.86276  0.43121  1.0000
  C   C26       1.0  0.28900  0.63679  0.06873  1.0000
  C   C27       1.0  0.00514  0.13723  0.56879  1.0000
  C   C28       1.0  0.71104  0.36311  0.93129  1.0000
  C   C29       1.0  0.34136  0.66587  0.48269  1.0000
  C   C30       1.0  0.48979  0.83400  0.01725  1.0000
  C   C31       1.0  0.65864  0.33411  0.51732  1.0000
  C   C32       1.0  0.51029  0.16587  0.98279  1.0000
  C   C33       1.0  0.29889  0.51936  0.46463  1.0000
  C   C34       1.0  0.28273  0.98041  0.03524  1.0000
  C   C35       1.0  0.70111  0.48062  0.53538  1.0000
  C   C36       1.0  0.71736  0.01945  0.96479  1.0000
  C   C37       1.0  0.54325  0.64475  0.51798  1.0000
  C   C38       1.0  0.70598  0.85525  0.98207  1.0000
  C   C39       1.0  0.45674  0.35522  0.48203  1.0000
  C   C40       1.0  0.29412  0.14461  0.01797  1.0000
  N   N1        1.0  0.92541  0.98928  0.20335  1.0000
  N   N2        1.0  0.11875  0.50930  0.29674  1.0000
  N   N3        1.0  0.07461  0.01076  0.79664  1.0000
  N   N4        1.0  0.88118  0.49077  0.70324  1.0000
  O   O1        1.0  0.60033  0.74790  0.25003  1.0000
  O   O2        1.0  0.39955  0.25234  0.74997  1.0000
  O   O3        1.0  0.91867  0.86957  0.33034  1.0000
  O   O4        1.0  0.12071  0.62883  0.16971  1.0000
  O   O5        1.0  0.08137  0.13048  0.66966  1.0000
  O   O6        1.0  0.87914  0.37121  0.83030  1.0000
  O   O7        1.0  0.33781  0.77263  0.35208  1.0000
  O   O8        1.0  0.46271  0.72768  0.14775  1.0000
  O   O9        1.0  0.66221  0.22734  0.64793  1.0000
  O   O10       1.0  0.53737  0.27214  0.85227  1.0000
  O   O11       1.0  0.19348  0.83387  0.46975  1.0000
  O   O12       1.0  0.49680  0.66596  0.03009  1.0000
  O   O13       1.0  0.80652  0.16610  0.53026  1.0000
  O   O14       1.0  0.50328  0.33391  0.96994  1.0000
