data_image0
_chemical_formula_structural       Cu6H12C18O18
_chemical_formula_sum              "Cu6 H12 C18 O18"
_cell_length_a       3.68598
_cell_length_b       10.7718
_cell_length_c       14.1061
_cell_angle_alpha    89.9999
_cell_angle_beta     89.9996
_cell_angle_gamma    96.2913

_space_group_name_H-M_alt    "P 1"
_space_group_IT_number       1

loop_
  _space_group_symop_operation_xyz
  'x, y, z'

loop_
  _atom_site_type_symbol
  _atom_site_label
  _atom_site_symmetry_multiplicity
  _atom_site_fract_x
  _atom_site_fract_y
  _atom_site_fract_z
  _atom_site_occupancy
  Cu  Cu1       1.0  0.55639  0.27611  0.63122  1.0000
  Cu  Cu2       1.0  0.44361  0.72389  0.13122  1.0000
  Cu  Cu3       1.0  0.44360  0.72389  0.36879  1.0000
  Cu  Cu4       1.0  0.55640  0.27611  0.86879  1.0000
  Cu  Cu5       1.0  0.00001  0.50001  0.50000  1.0000
  Cu  Cu6       1.0  1.00000  0.49999  0.99999  1.0000
  H   H1        1.0  0.65652  0.44588  0.75000  1.0000
  H   H2        1.0  0.34348  0.55412  0.25000  1.0000
  H   H3        1.0  0.10882  0.42243  0.65635  1.0000
  H   H4        1.0  0.89118  0.57757  0.15635  1.0000
  H   H5        1.0  0.89119  0.57757  0.34365  1.0000
  H   H6        1.0  0.10881  0.42243  0.84365  1.0000
  H   H7        1.0  0.67815  0.36073  0.25001  1.0000
  H   H8        1.0  0.32185  0.63927  0.75000  1.0000
  H   H9        1.0  0.13637  0.04781  0.40283  1.0000
  H   H10       1.0  0.86365  0.95218  0.90283  1.0000
  H   H11       1.0  0.86364  0.95218  0.59717  1.0000
  H   H12       1.0  0.13634  0.04782  0.09716  1.0000
  C   C1        1.0  0.54286  0.27381  0.42700  1.0000
  C   C2        1.0  0.45714  0.72620  0.92700  1.0000
  C   C3        1.0  0.45714  0.72620  0.57300  1.0000
  C   C4        1.0  0.54284  0.27381  0.07301  1.0000
  C   C5        1.0  0.41968  0.21134  0.33603  1.0000
  C   C6        1.0  0.58032  0.78866  0.83603  1.0000
  C   C7        1.0  0.58031  0.78866  0.66397  1.0000
  C   C8        1.0  0.41967  0.21135  0.16397  1.0000
  C   C9        1.0  0.51554  0.27025  0.24999  1.0000
  C   C10       1.0  0.48444  0.72976  0.75000  1.0000
  C   C11       1.0  0.86797  0.91494  0.25000  1.0000
  C   C12       1.0  0.13203  0.08506  0.75001  1.0000
  C   C13       1.0  0.10595  0.03712  0.25000  1.0000
  C   C14       1.0  0.89404  0.96289  0.75000  1.0000
  C   C15       1.0  0.21421  0.09416  0.33615  1.0000
  C   C16       1.0  0.78581  0.90584  0.83614  1.0000
  C   C17       1.0  0.78581  0.90585  0.66386  1.0000
  C   C18       1.0  0.21419  0.09415  0.16386  1.0000
  O   O1        1.0  0.48824  0.36935  0.75000  1.0000
  O   O2        1.0  0.51177  0.63064  0.25000  1.0000
  O   O3        1.0  0.99706  0.38109  0.59995  1.0000
  O   O4        1.0  0.00295  0.61891  0.09995  1.0000
  O   O5        1.0  0.00300  0.61892  0.40005  1.0000
  O   O6        1.0  0.99701  0.38108  0.90005  1.0000
  O   O7        1.0  0.65333  0.39114  0.42087  1.0000
  O   O8        1.0  0.34666  0.60886  0.92087  1.0000
  O   O9        1.0  0.34664  0.60885  0.57912  1.0000
  O   O10       1.0  0.65334  0.39115  0.07913  1.0000
  O   O11       1.0  0.52472  0.20712  0.50118  1.0000
  O   O12       1.0  0.47530  0.79288  0.00118  1.0000
  O   O13       1.0  0.47531  0.79288  0.49881  1.0000
  O   O14       1.0  0.52469  0.20713  0.99882  1.0000
  O   O15       1.0  0.77736  0.86936  0.33107  1.0000
  O   O16       1.0  0.22265  0.13064  0.83107  1.0000
  O   O17       1.0  0.22260  0.13062  0.66893  1.0000
  O   O18       1.0  0.77740  0.86938  0.16893  1.0000
