data_image0
_chemical_formula_structural       Ca2P2H20C6N2O14
_chemical_formula_sum              "Ca2 P2 H20 C6 N2 O14"
_cell_length_a       5.40251
_cell_length_b       7.90794
_cell_length_c       10.2206
_cell_angle_alpha    74.3825
_cell_angle_beta     79.8871
_cell_angle_gamma    83.2802

_space_group_name_H-M_alt    "P 1"
_space_group_IT_number       1

loop_
  _space_group_symop_operation_xyz
  'x, y, z'

loop_
  _atom_site_type_symbol
  _atom_site_label
  _atom_site_symmetry_multiplicity
  _atom_site_fract_x
  _atom_site_fract_y
  _atom_site_fract_z
  _atom_site_occupancy
  Ca  Ca1       1.0  0.15039  0.70854  0.87423  1.0000
  Ca  Ca2       1.0  0.84961  0.29146  0.12577  1.0000
  P   P1        1.0  0.68903  0.41483  0.83915  1.0000
  P   P2        1.0  0.31097  0.58518  0.16085  1.0000
  H   H1        1.0  0.82677  0.30621  0.63395  1.0000
  H   H2        1.0  0.17323  0.69380  0.36605  1.0000
  H   H3        1.0  0.94573  0.51557  0.62035  1.0000
  H   H4        1.0  0.05427  0.48443  0.37965  1.0000
  H   H5        1.0  0.25678  0.37696  0.75674  1.0000
  H   H6        1.0  0.74323  0.62303  0.24326  1.0000
  H   H7        1.0  0.12764  0.18149  0.80522  1.0000
  H   H8        1.0  0.87237  0.81852  0.19478  1.0000
  H   H9        1.0  0.43566  0.34468  0.54875  1.0000
  H   H10       1.0  0.56433  0.65532  0.45124  1.0000
  H   H11       1.0  0.20150  0.21057  0.53882  1.0000
  H   H12       1.0  0.79849  0.78943  0.46118  1.0000
  H   H13       1.0  0.64405  0.83384  0.99463  1.0000
  H   H14       1.0  0.35595  0.16616  0.00537  1.0000
  H   H15       1.0  0.77425  0.01173  0.95263  1.0000
  H   H16       1.0  0.22575  0.98827  0.04737  1.0000
  H   H17       1.0  0.16438  0.83399  0.56588  1.0000
  H   H18       1.0  0.83562  0.16601  0.43413  1.0000
  H   H19       1.0  0.89078  0.86975  0.63868  1.0000
  H   H20       1.0  0.10922  0.13025  0.36133  1.0000
  C   C1        1.0  0.90788  0.38450  0.68743  1.0000
  C   C2        1.0  0.09213  0.61550  0.31257  1.0000
  C   C3        1.0  0.31873  0.23729  0.60758  1.0000
  C   C4        1.0  0.68126  0.76271  0.39242  1.0000
  C   C5        1.0  0.47577  0.06640  0.66069  1.0000
  C   C6        1.0  0.52422  0.93360  0.33931  1.0000
  N   N1        1.0  0.15293  0.29268  0.72345  1.0000
  N   N2        1.0  0.84707  0.70732  0.27654  1.0000
  O   O1        1.0  0.44853  0.50580  0.78250  1.0000
  O   O2        1.0  0.55147  0.49419  0.21750  1.0000
  O   O3        1.0  0.65304  0.23051  0.93716  1.0000
  O   O4        1.0  0.34695  0.76950  0.06284  1.0000
  O   O5        1.0  0.81899  0.52201  0.90821  1.0000
  O   O6        1.0  0.18101  0.47799  0.09180  1.0000
  O   O7        1.0  0.37585  0.95982  0.76623  1.0000
  O   O8        1.0  0.62414  0.04018  0.23377  1.0000
  O   O9        1.0  0.69090  0.04517  0.59106  1.0000
  O   O10       1.0  0.30909  0.95483  0.40894  1.0000
  O   O11       1.0  0.81350  0.88251  0.96988  1.0000
  O   O12       1.0  0.18650  0.11749  0.03012  1.0000
  O   O13       1.0  0.03944  0.78081  0.64576  1.0000
  O   O14       1.0  0.96056  0.21919  0.35425  1.0000
