data_image0
_chemical_formula_structural       H28Pb2C38S2N4O12
_chemical_formula_sum              "H28 Pb2 C38 S2 N4 O12"
_cell_length_a       6.80144
_cell_length_b       11.2592
_cell_length_c       12.6691
_cell_angle_alpha    99.8974
_cell_angle_beta     97.9062
_cell_angle_gamma    103.295

_space_group_name_H-M_alt    "P 1"
_space_group_IT_number       1

loop_
  _space_group_symop_operation_xyz
  'x, y, z'

loop_
  _atom_site_type_symbol
  _atom_site_label
  _atom_site_symmetry_multiplicity
  _atom_site_fract_x
  _atom_site_fract_y
  _atom_site_fract_z
  _atom_site_occupancy
  H   H1        1.0  0.62958  0.37481  0.27898  1.0000
  H   H2        1.0  0.37043  0.62519  0.72103  1.0000
  H   H3        1.0  0.85855  0.47275  0.45723  1.0000
  H   H4        1.0  0.14146  0.52725  0.54278  1.0000
  H   H5        1.0  0.73300  0.43141  0.63006  1.0000
  H   H6        1.0  0.26700  0.56859  0.36994  1.0000
  H   H7        1.0  0.45070  0.33126  0.71579  1.0000
  H   H8        1.0  0.54930  0.66874  0.28421  1.0000
  H   H9        1.0  0.09288  0.20427  0.69753  1.0000
  H   H10       1.0  0.90712  0.79572  0.30246  1.0000
  H   H11       1.0  0.76023  0.08464  0.58094  1.0000
  H   H12       1.0  0.23976  0.91536  0.41905  1.0000
  H   H13       1.0  0.54317  0.00558  0.38985  1.0000
  H   H14       1.0  0.45683  0.99442  0.61015  1.0000
  H   H15       1.0  0.70065  0.05194  0.23222  1.0000
  H   H16       1.0  0.29935  0.94806  0.76778  1.0000
  H   H17       1.0  0.28690  0.65589  0.15351  1.0000
  H   H18       1.0  0.71310  0.34410  0.84649  1.0000
  H   H19       1.0  0.81585  0.84634  0.08728  1.0000
  H   H20       1.0  0.18415  0.15366  0.91272  1.0000
  H   H21       1.0  0.54926  0.65095  0.07542  1.0000
  H   H22       1.0  0.45074  0.34905  0.92458  1.0000
  H   H23       1.0  0.64894  0.46065  0.11258  1.0000
  H   H24       1.0  0.35105  0.53935  0.88742  1.0000
  H   H25       1.0  0.66214  0.26384  0.12744  1.0000
  H   H26       1.0  0.33786  0.73616  0.87256  1.0000
  H   H27       1.0  0.51668  0.16913  0.02532  1.0000
  H   H28       1.0  0.48332  0.83087  0.97469  1.0000
  Pb  Pb1       1.0  0.16003  0.18962  0.15654  1.0000
  Pb  Pb2       1.0  0.83998  0.81038  0.84346  1.0000
  C   C1        1.0  0.57727  0.35902  0.35410  1.0000
  C   C2        1.0  0.42273  0.64098  0.64590  1.0000
  C   C3        1.0  0.70726  0.41294  0.45548  1.0000
  C   C4        1.0  0.29274  0.58706  0.54452  1.0000
  C   C5        1.0  0.63832  0.39040  0.54947  1.0000
  C   C6        1.0  0.36168  0.60960  0.45053  1.0000
  C   C7        1.0  0.43705  0.31548  0.54164  1.0000
  C   C8        1.0  0.56294  0.68452  0.45835  1.0000
  C   C9        1.0  0.35374  0.29151  0.63580  1.0000
  C   C10       1.0  0.64627  0.70850  0.36420  1.0000
  C   C11       1.0  0.15606  0.22281  0.62577  1.0000
  C   C12       1.0  0.84394  0.77718  0.37423  1.0000
  C   C13       1.0  0.02671  0.17342  0.52109  1.0000
  C   C14       1.0  0.97330  0.82658  0.47891  1.0000
  C   C15       1.0  0.82055  0.10331  0.50824  1.0000
  C   C16       1.0  0.17945  0.89669  0.49176  1.0000
  C   C17       1.0  0.70272  0.05948  0.40492  1.0000
  C   C18       1.0  0.29728  0.94052  0.59507  1.0000
  C   C19       1.0  0.79145  0.08539  0.31454  1.0000
  C   C20       1.0  0.20855  0.91461  0.68546  1.0000
  C   C21       1.0  0.31396  0.26636  0.43577  1.0000
  C   C22       1.0  0.68604  0.73365  0.56423  1.0000
  C   C23       1.0  0.10413  0.19433  0.42533  1.0000
  C   C24       1.0  0.89587  0.80567  0.57467  1.0000
  C   C25       1.0  0.04230  0.43481  0.16147  1.0000
  C   C26       1.0  0.95770  0.56519  0.83853  1.0000
  C   C27       1.0  0.97535  0.54730  0.13836  1.0000
  C   C28       1.0  0.02465  0.45270  0.86164  1.0000
  C   C29       1.0  0.06837  0.76199  0.11934  1.0000
  C   C30       1.0  0.93162  0.23801  0.88066  1.0000
  C   C31       1.0  0.12566  0.65571  0.13865  1.0000
  C   C32       1.0  0.87433  0.34429  0.86135  1.0000
  C   C33       1.0  0.86041  0.76161  0.09862  1.0000
  C   C34       1.0  0.13959  0.23839  0.90138  1.0000
  C   C35       1.0  0.71068  0.65198  0.09437  1.0000
  C   C36       1.0  0.28932  0.34802  0.90563  1.0000
  C   C37       1.0  0.76706  0.54544  0.11504  1.0000
  C   C38       1.0  0.23294  0.45456  0.88496  1.0000
  S   S1        1.0  0.26047  0.90095  0.12260  1.0000
  S   S2        1.0  0.73953  0.09905  0.87740  1.0000
  N   N1        1.0  0.38761  0.28811  0.34466  1.0000
  N   N2        1.0  0.61240  0.71190  0.65535  1.0000
  N   N3        1.0  0.98551  0.15003  0.32463  1.0000
  N   N4        1.0  0.01448  0.84996  0.67537  1.0000
  O   O1        1.0  0.90612  0.34076  0.17364  1.0000
  O   O2        1.0  0.09388  0.65924  0.82636  1.0000
  O   O3        1.0  0.23138  0.43689  0.16937  1.0000
  O   O4        1.0  0.76861  0.56311  0.83063  1.0000
  O   O5        1.0  0.18736  0.94830  0.02704  1.0000
  O   O6        1.0  0.81264  0.05170  0.97296  1.0000
  O   O7        1.0  0.26478  0.98589  0.22654  1.0000
  O   O8        1.0  0.73522  0.01411  0.77346  1.0000
  O   O9        1.0  0.45393  0.86498  0.11795  1.0000
  O   O10       1.0  0.54607  0.13502  0.88205  1.0000
  O   O11       1.0  0.51944  0.20970  0.10127  1.0000
  O   O12       1.0  0.48056  0.79030  0.89873  1.0000
