data_image0
_chemical_formula_structural       H28Pb2C34S2N4O12
_chemical_formula_sum              "H28 Pb2 C34 S2 N4 O12"
_cell_length_a       7.01007
_cell_length_b       11.2738
_cell_length_c       11.5981
_cell_angle_alpha    98.8124
_cell_angle_beta     97.4004
_cell_angle_gamma    102.788

_space_group_name_H-M_alt    "P 1"
_space_group_IT_number       1

loop_
  _space_group_symop_operation_xyz
  'x, y, z'

loop_
  _atom_site_type_symbol
  _atom_site_label
  _atom_site_symmetry_multiplicity
  _atom_site_fract_x
  _atom_site_fract_y
  _atom_site_fract_z
  _atom_site_occupancy
  H   H1        1.0  0.72913  0.84465  0.35531  1.0000
  H   H2        1.0  0.27088  0.15535  0.64469  1.0000
  H   H3        1.0  0.16447  0.62710  0.37048  1.0000
  H   H4        1.0  0.83553  0.37291  0.62952  1.0000
  H   H5        1.0  0.42776  0.81440  0.37347  1.0000
  H   H6        1.0  0.57224  0.18561  0.62654  1.0000
  H   H7        1.0  0.34437  0.01640  0.36262  1.0000
  H   H8        1.0  0.65563  0.98361  0.63738  1.0000
  H   H9        1.0  0.39166  0.12498  0.21835  1.0000
  H   H10       1.0  0.60834  0.87502  0.78166  1.0000
  H   H11       1.0  0.16072  0.04190  0.02736  1.0000
  H   H12       1.0  0.83928  0.95810  0.97265  1.0000
  H   H13       1.0  0.28383  0.08764  0.83869  1.0000
  H   H14       1.0  0.71616  0.91236  0.16131  1.0000
  H   H15       1.0  0.62534  0.21273  0.85222  1.0000
  H   H16       1.0  0.37466  0.78727  0.14779  1.0000
  H   H17       1.0  0.90772  0.30805  0.86984  1.0000
  H   H18       1.0  0.09227  0.69194  0.13015  1.0000
  H   H19       1.0  0.25660  0.42358  0.90260  1.0000
  H   H20       1.0  0.74338  0.57640  0.09739  1.0000
  H   H21       1.0  0.45339  0.48030  0.11342  1.0000
  H   H22       1.0  0.54661  0.51969  0.88656  1.0000
  H   H23       1.0  0.27982  0.42052  0.27642  1.0000
  H   H24       1.0  0.72019  0.57948  0.72357  1.0000
  H   H25       1.0  0.48679  0.31894  0.48489  1.0000
  H   H26       1.0  0.51322  0.68106  0.51511  1.0000
  H   H27       1.0  0.34561  0.22473  0.37796  1.0000
  H   H28       1.0  0.65439  0.77527  0.62204  1.0000
  Pb  Pb1       1.0  0.83817  0.29847  0.34659  1.0000
  Pb  Pb2       1.0  0.16183  0.70153  0.65341  1.0000
  C   C1        1.0  0.97104  0.06062  0.34162  1.0000
  C   C2        1.0  0.02896  0.93938  0.65838  1.0000
  C   C3        1.0  0.02955  0.94194  0.35326  1.0000
  C   C4        1.0  0.97046  0.05807  0.64674  1.0000
  C   C5        1.0  0.88129  0.83686  0.35678  1.0000
  C   C6        1.0  0.11871  0.16314  0.64323  1.0000
  C   C7        1.0  0.92945  0.72468  0.36346  1.0000
  C   C8        1.0  0.07055  0.27533  0.63654  1.0000
  C   C9        1.0  0.12636  0.71536  0.36682  1.0000
  C   C10       1.0  0.87364  0.28465  0.63319  1.0000
  C   C11       1.0  0.27449  0.82107  0.36670  1.0000
  C   C12       1.0  0.72552  0.17894  0.63331  1.0000
  C   C13       1.0  0.22710  0.93402  0.36022  1.0000
  C   C14       1.0  0.77290  0.06599  0.63978  1.0000
  C   C15       1.0  0.43897  0.14248  0.13550  1.0000
  C   C16       1.0  0.56103  0.85753  0.86450  1.0000
  C   C17       1.0  0.30992  0.09687  0.02834  1.0000
  C   C18       1.0  0.69007  0.90313  0.97167  1.0000
  C   C19       1.0  0.37736  0.12286  0.92499  1.0000
  C   C20       1.0  0.62263  0.87715  0.07501  1.0000
  C   C21       1.0  0.57067  0.19266  0.93257  1.0000
  C   C22       1.0  0.42933  0.80735  0.06743  1.0000
  C   C23       1.0  0.69379  0.23419  0.04331  1.0000
  C   C24       1.0  0.30620  0.76581  0.95669  1.0000
  C   C25       1.0  0.90395  0.30367  0.05643  1.0000
  C   C26       1.0  0.09604  0.69633  0.94357  1.0000
  C   C27       1.0  0.99188  0.33360  0.95939  1.0000
  C   C28       1.0  0.00812  0.66639  0.04061  1.0000
  C   C29       1.0  0.19034  0.39838  0.97817  1.0000
  C   C30       1.0  0.80965  0.60161  0.02181  1.0000
  C   C31       1.0  0.29752  0.43097  0.09296  1.0000
  C   C32       1.0  0.70248  0.56902  0.90703  1.0000
  C   C33       1.0  0.20091  0.39762  0.18528  1.0000
  C   C34       1.0  0.79909  0.60238  0.81471  1.0000
  S   S1        1.0  0.74149  0.59136  0.37204  1.0000
  S   S2        1.0  0.25851  0.40864  0.62796  1.0000
  N   N1        1.0  0.62527  0.20897  0.14293  1.0000
  N   N2        1.0  0.37474  0.79103  0.85708  1.0000
  N   N3        1.0  0.00957  0.33632  0.16715  1.0000
  N   N4        1.0  0.99043  0.66368  0.83285  1.0000
  O   O1        1.0  0.10385  0.15536  0.33302  1.0000
  O   O2        1.0  0.89614  0.84465  0.66698  1.0000
  O   O3        1.0  0.78882  0.06122  0.33808  1.0000
  O   O4        1.0  0.21118  0.93879  0.66192  1.0000
  O   O5        1.0  0.80600  0.55400  0.48398  1.0000
  O   O6        1.0  0.19401  0.44600  0.51602  1.0000
  O   O7        1.0  0.55418  0.62990  0.36749  1.0000
  O   O8        1.0  0.44583  0.37010  0.63251  1.0000
  O   O9        1.0  0.74160  0.49770  0.26770  1.0000
  O   O10       1.0  0.25841  0.50230  0.73230  1.0000
  O   O11       1.0  0.48579  0.27272  0.40513  1.0000
  O   O12       1.0  0.51421  0.72728  0.59486  1.0000
