data_image0
_chemical_formula_structural       K2H60C38N6O18
_chemical_formula_sum              "K2 H60 C38 N6 O18"
_cell_length_a       8.03464
_cell_length_b       9.87532
_cell_length_c       15.175
_cell_angle_alpha    90
_cell_angle_beta     90
_cell_angle_gamma    101.808

_space_group_name_H-M_alt    "P 1"
_space_group_IT_number       1

loop_
  _space_group_symop_operation_xyz
  'x, y, z'

loop_
  _atom_site_type_symbol
  _atom_site_label
  _atom_site_symmetry_multiplicity
  _atom_site_fract_x
  _atom_site_fract_y
  _atom_site_fract_z
  _atom_site_occupancy
  K   K1        1.0  0.87649  0.05839  0.85627  1.0000
  K   K2        1.0  0.12351  0.94161  0.35627  1.0000
  H   H1        1.0  0.19284  0.71686  0.89660  1.0000
  H   H2        1.0  0.80716  0.28314  0.39660  1.0000
  H   H3        1.0  0.00083  0.74518  0.94731  1.0000
  H   H4        1.0  0.99918  0.25482  0.44731  1.0000
  H   H5        1.0  0.07540  0.75416  0.74847  1.0000
  H   H6        1.0  0.92460  0.24584  0.24847  1.0000
  H   H7        1.0  0.95634  0.60920  0.80676  1.0000
  H   H8        1.0  0.04366  0.39080  0.30676  1.0000
  H   H9        1.0  0.69824  0.62531  0.72271  1.0000
  H   H10       1.0  0.30176  0.37469  0.22271  1.0000
  H   H11       1.0  0.82545  0.76560  0.66298  1.0000
  H   H12       1.0  0.17455  0.23440  0.16298  1.0000
  H   H13       1.0  0.51699  0.76829  0.66210  1.0000
  H   H14       1.0  0.48301  0.23171  0.16210  1.0000
  H   H15       1.0  0.51822  0.78322  0.77975  1.0000
  H   H16       1.0  0.48178  0.21678  0.27975  1.0000
  H   H17       1.0  0.46492  0.00678  0.63695  1.0000
  H   H18       1.0  0.53507  0.99322  0.13694  1.0000
  H   H19       1.0  0.42116  0.99070  0.75276  1.0000
  H   H20       1.0  0.57883  0.00930  0.25276  1.0000
  H   H21       1.0  0.70205  0.21420  0.67187  1.0000
  H   H22       1.0  0.29795  0.78580  0.17186  1.0000
  H   H23       1.0  0.49037  0.23622  0.69339  1.0000
  H   H24       1.0  0.50963  0.76378  0.19339  1.0000
  H   H25       1.0  0.56604  0.40279  0.81735  1.0000
  H   H26       1.0  0.43396  0.59720  0.31735  1.0000
  H   H27       1.0  0.76945  0.40401  0.76829  1.0000
  H   H28       1.0  0.23054  0.59598  0.26828  1.0000
  H   H29       1.0  0.77905  0.49349  0.92454  1.0000
  H   H30       1.0  0.22095  0.50651  0.42453  1.0000
  H   H31       1.0  0.68164  0.32507  0.96129  1.0000
  H   H32       1.0  0.31836  0.67493  0.46129  1.0000
  H   H33       1.0  0.95237  0.32256  0.04140  1.0000
  H   H34       1.0  0.04763  0.67744  0.54140  1.0000
  H   H35       1.0  0.05194  0.48638  0.99562  1.0000
  H   H36       1.0  0.94805  0.51363  0.49562  1.0000
  H   H37       1.0  0.24567  0.36269  0.90815  1.0000
  H   H38       1.0  0.75433  0.63731  0.40815  1.0000
  H   H39       1.0  0.27901  0.36730  0.02392  1.0000
  H   H40       1.0  0.72099  0.63270  0.52392  1.0000
  H   H41       1.0  0.35761  0.15962  0.89182  1.0000
  H   H42       1.0  0.64239  0.84038  0.39182  1.0000
  H   H43       1.0  0.40058  0.15954  0.00709  1.0000
  H   H44       1.0  0.59943  0.84047  0.50709  1.0000
  H   H45       1.0  0.37836  0.92746  0.95315  1.0000
  H   H46       1.0  0.62165  0.07254  0.45315  1.0000
  H   H47       1.0  0.19699  0.93027  0.02115  1.0000
  H   H48       1.0  0.80301  0.06973  0.52115  1.0000
  H   H49       1.0  0.09930  0.43151  0.76036  1.0000
  H   H50       1.0  0.90070  0.56849  0.26036  1.0000
  H   H51       1.0  0.15021  0.56155  0.67579  1.0000
  H   H52       1.0  0.84979  0.43845  0.17579  1.0000
  H   H53       1.0  0.31041  0.53142  0.74991  1.0000
  H   H54       1.0  0.68960  0.46858  0.24991  1.0000
  H   H55       1.0  0.10803  0.98106  0.69728  1.0000
  H   H56       1.0  0.89196  0.01894  0.19728  1.0000
  H   H57       1.0  0.17911  0.93371  0.59114  1.0000
  H   H58       1.0  0.82089  0.06629  0.09114  1.0000
  H   H59       1.0  0.97459  0.97455  0.60285  1.0000
  H   H60       1.0  0.02540  0.02545  0.10285  1.0000
  C   C1        1.0  0.08648  0.77128  0.88981  1.0000
  C   C2        1.0  0.91353  0.22872  0.38981  1.0000
  C   C3        1.0  0.99153  0.72338  0.80609  1.0000
  C   C4        1.0  0.00847  0.27662  0.30609  1.0000
  C   C5        1.0  0.74595  0.73846  0.72246  1.0000
  C   C6        1.0  0.25405  0.26154  0.22246  1.0000
  C   C7        1.0  0.59595  0.80830  0.71971  1.0000
  C   C8        1.0  0.40405  0.19170  0.21971  1.0000
  C   C9        1.0  0.52168  0.02671  0.70326  1.0000
  C   C10       1.0  0.47832  0.97329  0.20325  1.0000
  C   C11       1.0  0.58904  0.17993  0.71408  1.0000
  C   C12       1.0  0.41095  0.82006  0.21407  1.0000
  C   C13       1.0  0.67949  0.35558  0.81989  1.0000
  C   C14       1.0  0.32051  0.64442  0.31989  1.0000
  C   C15       1.0  0.76274  0.38212  0.90909  1.0000
  C   C16       1.0  0.23726  0.61787  0.40908  1.0000
  C   C17       1.0  0.02310  0.37344  0.98361  1.0000
  C   C18       1.0  0.97691  0.62656  0.48361  1.0000
  C   C19       1.0  0.18762  0.32432  0.97168  1.0000
  C   C20       1.0  0.81238  0.67568  0.47168  1.0000
  C   C21       1.0  0.30281  0.12286  0.95641  1.0000
  C   C22       1.0  0.69719  0.87714  0.45641  1.0000
  C   C23       1.0  0.25968  0.96697  0.95812  1.0000
  C   C24       1.0  0.74032  0.03304  0.45812  1.0000
  C   C25       1.0  0.14464  0.24142  0.66433  1.0000
  C   C26       1.0  0.85536  0.75859  0.16433  1.0000
  C   C27       1.0  0.35611  0.42017  0.58776  1.0000
  C   C28       1.0  0.64389  0.57983  0.08776  1.0000
  C   C29       1.0  0.37995  0.31520  0.52654  1.0000
  C   C30       1.0  0.62005  0.68480  0.02654  1.0000
  C   C31       1.0  0.29900  0.17304  0.53577  1.0000
  C   C32       1.0  0.70101  0.82696  0.03577  1.0000
  C   C33       1.0  0.19608  0.48202  0.71377  1.0000
  C   C34       1.0  0.80392  0.51798  0.21377  1.0000
  C   C35       1.0  0.48953  0.35461  0.45502  1.0000
  C   C36       1.0  0.51047  0.64539  0.95502  1.0000
  C   C37       1.0  0.10637  0.99903  0.62615  1.0000
  C   C38       1.0  0.89363  0.00097  0.12615  1.0000
  N   N1        1.0  0.23308  0.37638  0.65382  1.0000
  N   N2        1.0  0.76692  0.62362  0.15382  1.0000
  N   N3        1.0  0.18655  0.14289  0.60805  1.0000
  N   N4        1.0  0.81345  0.85711  0.10805  1.0000
  N   N5        1.0  0.57978  0.38925  0.39482  1.0000
  N   N6        1.0  0.42023  0.61075  0.89482  1.0000
  O   O1        1.0  0.14844  0.91782  0.88583  1.0000
  O   O2        1.0  0.85156  0.08219  0.38582  1.0000
  O   O3        1.0  0.84379  0.78157  0.80000  1.0000
  O   O4        1.0  0.15621  0.21843  0.30000  1.0000
  O   O5        1.0  0.65740  0.95486  0.71354  1.0000
  O   O6        1.0  0.34260  0.04514  0.21354  1.0000
  O   O7        1.0  0.63322  0.20992  0.80431  1.0000
  O   O8        1.0  0.36678  0.79008  0.30430  1.0000
  O   O9        1.0  0.92384  0.34211  0.90544  1.0000
  O   O10       1.0  0.07616  0.65789  0.40544  1.0000
  O   O11       1.0  0.15311  0.17602  0.97349  1.0000
  O   O12       1.0  0.84689  0.82398  0.47349  1.0000
  O   O13       1.0  0.03465  0.20825  0.72202  1.0000
  O   O14       1.0  0.96535  0.79175  0.22202  1.0000
  O   O15       1.0  0.32218  0.07679  0.48665  1.0000
  O   O16       1.0  0.67783  0.92321  0.98665  1.0000
  O   O17       1.0  0.43179  0.54363  0.58621  1.0000
  O   O18       1.0  0.56822  0.45637  0.08620  1.0000
