data_image0
_chemical_formula_structural       Ag8H8C16O20
_chemical_formula_sum              "Ag8 H8 C16 O20"
_cell_length_a       5.04612
_cell_length_b       8.04876
_cell_length_c       15.4981
_cell_angle_alpha    90.0013
_cell_angle_beta     103.472
_cell_angle_gamma    89.9988

_space_group_name_H-M_alt    "P 1"
_space_group_IT_number       1

loop_
  _space_group_symop_operation_xyz
  'x, y, z'

loop_
  _atom_site_type_symbol
  _atom_site_label
  _atom_site_symmetry_multiplicity
  _atom_site_fract_x
  _atom_site_fract_y
  _atom_site_fract_z
  _atom_site_occupancy
  Ag  Ag1       1.0  0.73704  0.48333  0.93211  1.0000
  Ag  Ag2       1.0  0.76293  0.98334  0.56789  1.0000
  Ag  Ag3       1.0  0.26291  0.51666  0.06788  1.0000
  Ag  Ag4       1.0  0.23707  0.01665  0.43211  1.0000
  Ag  Ag5       1.0  0.05602  0.20289  0.94119  1.0000
  Ag  Ag6       1.0  0.44396  0.70290  0.55881  1.0000
  Ag  Ag7       1.0  0.94398  0.79713  0.05882  1.0000
  Ag  Ag8       1.0  0.55602  0.29710  0.44119  1.0000
  H   H1        1.0  0.37872  0.50127  0.72056  1.0000
  H   H2        1.0  0.12128  0.00128  0.77944  1.0000
  H   H3        1.0  0.62130  0.49872  0.27943  1.0000
  H   H4        1.0  0.87873  0.99873  0.22056  1.0000
  H   H5        1.0  0.83191  0.31847  0.63436  1.0000
  H   H6        1.0  0.66808  0.81844  0.86564  1.0000
  H   H7        1.0  0.16808  0.68153  0.36564  1.0000
  H   H8        1.0  0.33193  0.18157  0.13437  1.0000
  C   C1        1.0  0.05550  0.45989  0.79301  1.0000
  C   C2        1.0  0.44450  0.95990  0.70699  1.0000
  C   C3        1.0  0.94451  0.54011  0.20699  1.0000
  C   C4        1.0  0.55551  0.04010  0.29301  1.0000
  C   C5        1.0  0.17510  0.31349  0.56845  1.0000
  C   C6        1.0  0.32489  0.81351  0.93155  1.0000
  C   C7        1.0  0.82488  0.68649  0.43155  1.0000
  C   C8        1.0  0.67511  0.18651  0.06845  1.0000
  C   C9        1.0  0.15880  0.48179  0.70984  1.0000
  C   C10       1.0  0.34122  0.98179  0.79017  1.0000
  C   C11       1.0  0.84120  0.51820  0.29016  1.0000
  C   C12       1.0  0.65881  0.01822  0.20983  1.0000
  C   C13       1.0  0.01732  0.38568  0.63082  1.0000
  C   C14       1.0  0.48268  0.88566  0.86918  1.0000
  C   C15       1.0  0.98267  0.61430  0.36917  1.0000
  C   C16       1.0  0.51733  0.11435  0.13083  1.0000
  O   O1        1.0  0.84271  0.53446  0.80173  1.0000
  O   O2        1.0  0.65727  0.03446  0.69828  1.0000
  O   O3        1.0  0.15730  0.46554  0.19827  1.0000
  O   O4        1.0  0.34272  0.96554  0.30172  1.0000
  O   O5        1.0  0.20349  0.35878  0.84668  1.0000
  O   O6        1.0  0.29649  0.85879  0.65332  1.0000
  O   O7        1.0  0.79652  0.64122  0.15332  1.0000
  O   O8        1.0  0.70352  0.14121  0.34669  1.0000
  O   O9        1.0  0.10427  0.16795  0.53975  1.0000
  O   O10       1.0  0.39574  0.66795  0.96027  1.0000
  O   O11       1.0  0.89573  0.83204  0.46026  1.0000
  O   O12       1.0  0.60425  0.33205  0.03973  1.0000
  O   O13       1.0  0.36485  0.39801  0.54882  1.0000
  O   O14       1.0  0.13516  0.89801  0.95118  1.0000
  O   O15       1.0  0.63514  0.60199  0.45118  1.0000
  O   O16       1.0  0.86485  0.10200  0.04882  1.0000
  O   O17       1.0  0.99464  0.56391  0.63397  1.0000
  O   O18       1.0  0.50539  0.06390  0.86604  1.0000
  O   O19       1.0  0.00536  0.43608  0.36603  1.0000
  O   O20       1.0  0.49465  0.93611  0.13396  1.0000
