data_image0
_chemical_formula_structural       Ag4H40C40N20O8
_chemical_formula_sum              "Ag4 H40 C40 N20 O8"
_cell_length_a       11.3958
_cell_length_b       11.9398
_cell_length_c       12.6387
_cell_angle_alpha    116.431
_cell_angle_beta     103.663
_cell_angle_gamma    103.666

_space_group_name_H-M_alt    "P 1"
_space_group_IT_number       1

loop_
  _space_group_symop_operation_xyz
  'x, y, z'

loop_
  _atom_site_type_symbol
  _atom_site_label
  _atom_site_symmetry_multiplicity
  _atom_site_fract_x
  _atom_site_fract_y
  _atom_site_fract_z
  _atom_site_occupancy
  Ag  Ag1       1.0  0.12995  0.68888  0.01478  1.0000
  Ag  Ag2       1.0  0.87005  0.31112  0.98522  1.0000
  Ag  Ag3       1.0  0.74765  0.07332  0.73358  1.0000
  Ag  Ag4       1.0  0.25235  0.92668  0.26642  1.0000
  H   H1        1.0  0.93156  0.04137  0.46815  1.0000
  H   H2        1.0  0.06844  0.95863  0.53185  1.0000
  H   H3        1.0  0.82535  0.09646  0.39611  1.0000
  H   H4        1.0  0.17465  0.90354  0.60389  1.0000
  H   H5        1.0  0.77607  0.02187  0.48111  1.0000
  H   H6        1.0  0.22393  0.97813  0.51889  1.0000
  H   H7        1.0  0.35845  0.47351  0.11875  1.0000
  H   H8        1.0  0.64155  0.52649  0.88125  1.0000
  H   H9        1.0  0.51810  0.49960  0.11520  1.0000
  H   H10       1.0  0.48190  0.50040  0.88480  1.0000
  H   H11       1.0  0.45909  0.40553  0.18040  1.0000
  H   H12       1.0  0.54091  0.59447  0.81960  1.0000
  H   H13       1.0  0.61503  0.81975  0.28307  1.0000
  H   H14       1.0  0.38497  0.18025  0.71693  1.0000
  H   H15       1.0  0.82883  0.80502  0.28223  1.0000
  H   H16       1.0  0.17117  0.19498  0.71777  1.0000
  H   H17       1.0  0.86580  0.83924  0.92679  1.0000
  H   H18       1.0  0.13420  0.16076  0.07321  1.0000
  H   H19       1.0  0.71898  0.84569  0.75308  1.0000
  H   H20       1.0  0.28101  0.15430  0.24691  1.0000
  H   H21       1.0  0.50141  0.85295  0.75014  1.0000
  H   H22       1.0  0.49858  0.14704  0.24986  1.0000
  H   H23       1.0  0.42932  0.85031  0.91897  1.0000
  H   H24       1.0  0.57067  0.14969  0.08103  1.0000
  H   H25       1.0  0.27241  0.59367  0.86293  1.0000
  H   H26       1.0  0.72759  0.40633  0.13707  1.0000
  H   H27       1.0  0.27203  0.45456  0.72411  1.0000
  H   H28       1.0  0.72798  0.54544  0.27589  1.0000
  H   H29       1.0  0.86147  0.53086  0.90660  1.0000
  H   H30       1.0  0.13853  0.46914  0.09340  1.0000
  H   H31       1.0  0.72859  0.37915  0.78146  1.0000
  H   H32       1.0  0.27141  0.62084  0.21854  1.0000
  H   H33       1.0  0.33671  0.82570  0.44914  1.0000
  H   H34       1.0  0.66329  0.17430  0.55086  1.0000
  H   H35       1.0  0.47260  0.95119  0.59846  1.0000
  H   H36       1.0  0.52740  0.04881  0.40154  1.0000
  H   H37       1.0  0.88444  0.90846  0.63294  1.0000
  H   H38       1.0  0.11556  0.09154  0.36706  1.0000
  H   H39       1.0  0.88117  0.76691  0.49676  1.0000
  H   H40       1.0  0.11883  0.23309  0.50324  1.0000
  C   C1        1.0  0.90435  0.39081  0.77220  1.0000
  C   C2        1.0  0.09565  0.60919  0.22780  1.0000
  C   C3        1.0  0.92108  0.22544  0.60005  1.0000
  C   C4        1.0  0.07892  0.77456  0.39995  1.0000
  C   C5        1.0  0.09812  0.42632  0.74330  1.0000
  C   C6        1.0  0.90188  0.57367  0.25670  1.0000
  C   C7        1.0  0.85997  0.08809  0.48012  1.0000
  C   C8        1.0  0.14003  0.91191  0.51988  1.0000
  C   C9        1.0  0.70413  0.77427  0.48478  1.0000
  C   C10       1.0  0.29587  0.22574  0.51521  1.0000
  C   C11       1.0  0.52033  0.61892  0.30200  1.0000
  C   C12       1.0  0.47968  0.38108  0.69800  1.0000
  C   C13       1.0  0.50810  0.80066  0.46314  1.0000
  C   C14       1.0  0.49190  0.19934  0.53685  1.0000
  C   C15       1.0  0.45930  0.49275  0.17121  1.0000
  C   C16       1.0  0.54070  0.50725  0.82879  1.0000
  C   C17       1.0  0.43395  0.82996  0.12338  1.0000
  C   C18       1.0  0.56605  0.17005  0.87663  1.0000
  C   C19       1.0  0.56492  0.83378  0.11775  1.0000
  C   C20       1.0  0.43508  0.16623  0.88226  1.0000
  C   C21       1.0  0.64710  0.82353  0.20986  1.0000
  C   C22       1.0  0.35290  0.17647  0.79014  1.0000
  C   C23       1.0  0.76866  0.81707  0.21010  1.0000
  C   C24       1.0  0.23134  0.18293  0.78990  1.0000
  C   C25       1.0  0.81166  0.82541  0.11934  1.0000
  C   C26       1.0  0.18834  0.17460  0.88067  1.0000
  C   C27       1.0  0.73104  0.83708  0.02249  1.0000
  C   C28       1.0  0.26896  0.16293  0.97752  1.0000
  C   C29       1.0  0.77055  0.84194  0.92557  1.0000
  C   C30       1.0  0.22945  0.15806  0.07443  1.0000
  C   C31       1.0  0.68866  0.84574  0.82874  1.0000
  C   C32       1.0  0.31133  0.15425  0.17125  1.0000
  C   C33       1.0  0.56489  0.84876  0.82656  1.0000
  C   C34       1.0  0.43510  0.15123  0.17343  1.0000
  C   C35       1.0  0.52446  0.84741  0.92078  1.0000
  C   C36       1.0  0.47553  0.15259  0.07922  1.0000
  C   C37       1.0  0.60456  0.83983  0.02032  1.0000
  C   C38       1.0  0.39544  0.16017  0.97968  1.0000
  C   C39       1.0  0.94315  0.81938  0.12450  1.0000
  C   C40       1.0  0.05685  0.18062  0.87550  1.0000
  N   N1        1.0  0.03014  0.47494  0.81583  1.0000
  N   N2        1.0  0.96986  0.52506  0.18417  1.0000
  N   N3        1.0  0.84638  0.26262  0.66571  1.0000
  N   N4        1.0  0.15362  0.73739  0.33429  1.0000
  N   N5        1.0  0.04446  0.30180  0.63201  1.0000
  N   N6        1.0  0.95554  0.69820  0.36799  1.0000
  N   N7        1.0  0.22347  0.50052  0.77900  1.0000
  N   N8        1.0  0.77653  0.49948  0.22101  1.0000
  N   N9        1.0  0.82871  0.42987  0.83733  1.0000
  N   N10       1.0  0.17129  0.57013  0.16267  1.0000
  N   N11       1.0  0.63837  0.85149  0.53556  1.0000
  N   N12       1.0  0.36163  0.14851  0.46443  1.0000
  N   N13       1.0  0.64698  0.65489  0.36908  1.0000
  N   N14       1.0  0.35302  0.34511  0.63092  1.0000
  N   N15       1.0  0.44630  0.68636  0.34263  1.0000
  N   N16       1.0  0.55370  0.31364  0.65737  1.0000
  N   N17       1.0  0.43387  0.86472  0.50901  1.0000
  N   N18       1.0  0.56613  0.13528  0.49098  1.0000
  N   N19       1.0  0.83270  0.81563  0.54924  1.0000
  N   N20       1.0  0.16730  0.18437  0.45076  1.0000
  O   O1        1.0  0.43213  0.89646  0.23430  1.0000
  O   O2        1.0  0.56787  0.10354  0.76572  1.0000
  O   O3        1.0  0.33261  0.75629  0.01837  1.0000
  O   O4        1.0  0.66739  0.24372  0.98164  1.0000
  O   O5        1.0  0.04355  0.91786  0.22193  1.0000
  O   O6        1.0  0.95645  0.08214  0.77807  1.0000
  O   O7        1.0  0.94456  0.71553  0.03293  1.0000
  O   O8        1.0  0.05544  0.28447  0.96707  1.0000
