data_image0
_chemical_formula_structural       Co6H12C6O18
_chemical_formula_sum              "Co6 H12 C6 O18"
_cell_length_a       7.60693
_cell_length_b       7.55477
_cell_length_c       7.704
_cell_angle_alpha    97.4485
_cell_angle_beta     97.0016
_cell_angle_gamma    97.8171

_space_group_name_H-M_alt    "P 1"
_space_group_IT_number       1

loop_
  _space_group_symop_operation_xyz
  'x, y, z'

loop_
  _atom_site_type_symbol
  _atom_site_label
  _atom_site_symmetry_multiplicity
  _atom_site_fract_x
  _atom_site_fract_y
  _atom_site_fract_z
  _atom_site_occupancy
  Co  Co1       1.0  0.01786  0.92568  0.28564  1.0000
  Co  Co2       1.0  0.29196  0.01646  0.93216  1.0000
  Co  Co3       1.0  0.92519  0.29122  0.02588  1.0000
  Co  Co4       1.0  0.96959  0.06450  0.69493  1.0000
  Co  Co5       1.0  0.71322  0.98691  0.07430  1.0000
  Co  Co6       1.0  0.08026  0.71331  0.98266  1.0000
  H   H1        1.0  0.41429  0.14707  0.45662  1.0000
  H   H2        1.0  0.44973  0.41844  0.14315  1.0000
  H   H3        1.0  0.14960  0.45022  0.41072  1.0000
  H   H4        1.0  0.57913  0.85145  0.54076  1.0000
  H   H5        1.0  0.55079  0.58531  0.85186  1.0000
  H   H6        1.0  0.85909  0.55268  0.59365  1.0000
  H   H7        1.0  0.89209  0.21655  0.34248  1.0000
  H   H8        1.0  0.34146  0.89343  0.21676  1.0000
  H   H9        1.0  0.20644  0.32384  0.89842  1.0000
  H   H10       1.0  0.10833  0.78568  0.66655  1.0000
  H   H11       1.0  0.66391  0.10667  0.78969  1.0000
  H   H12       1.0  0.78766  0.66604  0.09934  1.0000
  C   C1        1.0  0.33615  0.12317  0.56595  1.0000
  C   C2        1.0  0.56267  0.34387  0.12133  1.0000
  C   C3        1.0  0.12511  0.56331  0.33732  1.0000
  C   C4        1.0  0.65601  0.87258  0.43001  1.0000
  C   C5        1.0  0.43948  0.66121  0.87713  1.0000
  C   C6        1.0  0.88084  0.43813  0.66574  1.0000
  O   O1        1.0  0.16549  0.09487  0.52533  1.0000
  O   O2        1.0  0.52622  0.17164  0.09165  1.0000
  O   O3        1.0  0.09641  0.52626  0.16870  1.0000
  O   O4        1.0  0.82681  0.89777  0.46685  1.0000
  O   O5        1.0  0.47847  0.83333  0.90773  1.0000
  O   O6        1.0  0.91167  0.47334  0.83403  1.0000
  O   O7        1.0  0.42097  0.12530  0.71771  1.0000
  O   O8        1.0  0.71680  0.43275  0.12647  1.0000
  O   O9        1.0  0.12658  0.71708  0.42453  1.0000
  O   O10       1.0  0.57082  0.87082  0.27852  1.0000
  O   O11       1.0  0.28530  0.57348  0.87434  1.0000
  O   O12       1.0  0.87354  0.28405  0.57569  1.0000
  O   O13       1.0  0.92075  0.15314  0.23138  1.0000
  O   O14       1.0  0.23055  0.92273  0.15287  1.0000
  O   O15       1.0  0.13951  0.21224  0.92592  1.0000
  O   O16       1.0  0.07772  0.85447  0.77374  1.0000
  O   O17       1.0  0.77770  0.08051  0.84988  1.0000
  O   O18       1.0  0.85380  0.77848  0.07159  1.0000
