data_image0
_chemical_formula_structural       Cu2H52C50S4Br2O4
_chemical_formula_sum              "Cu2 H52 C50 S4 Br2 O4"
_cell_length_a       11.14
_cell_length_b       11.6388
_cell_length_c       12.9855
_cell_angle_alpha    85.0653
_cell_angle_beta     64.9776
_cell_angle_gamma    79.4124

_space_group_name_H-M_alt    "P 1"
_space_group_IT_number       1

loop_
  _space_group_symop_operation_xyz
  'x, y, z'

loop_
  _atom_site_type_symbol
  _atom_site_label
  _atom_site_symmetry_multiplicity
  _atom_site_fract_x
  _atom_site_fract_y
  _atom_site_fract_z
  _atom_site_occupancy
  Cu  Cu1       1.0  0.94446  0.51351  0.41995  1.0000
  Cu  Cu2       1.0  0.05555  0.48649  0.58005  1.0000
  H   H1        1.0  0.43437  0.02262  0.36605  1.0000
  H   H2        1.0  0.56564  0.97738  0.63395  1.0000
  H   H3        1.0  0.53991  0.99975  0.21844  1.0000
  H   H4        1.0  0.46009  0.00025  0.78156  1.0000
  H   H5        1.0  0.52545  0.19949  0.29853  1.0000
  H   H6        1.0  0.47454  0.80051  0.70147  1.0000
  H   H7        1.0  0.61964  0.12460  0.37245  1.0000
  H   H8        1.0  0.38036  0.87540  0.62755  1.0000
  H   H9        1.0  0.80416  0.04886  0.18628  1.0000
  H   H10       1.0  0.19584  0.95115  0.81371  1.0000
  H   H11       1.0  0.70595  0.12218  0.11379  1.0000
  H   H12       1.0  0.29405  0.87782  0.88621  1.0000
  H   H13       1.0  0.91700  0.09970  0.99619  1.0000
  H   H14       1.0  0.08300  0.90030  0.00381  1.0000
  H   H15       1.0  0.12912  0.14144  0.84079  1.0000
  H   H16       1.0  0.87088  0.85856  0.15921  1.0000
  H   H17       1.0  0.23304  0.30780  0.85546  1.0000
  H   H18       1.0  0.76696  0.69221  0.14455  1.0000
  H   H19       1.0  0.11957  0.43431  0.02626  1.0000
  H   H20       1.0  0.88043  0.56569  0.97374  1.0000
  H   H21       1.0  0.78094  0.43262  0.24628  1.0000
  H   H22       1.0  0.21905  0.56738  0.75372  1.0000
  H   H23       1.0  0.92338  0.50422  0.18659  1.0000
  H   H24       1.0  0.07660  0.49578  0.81341  1.0000
  H   H25       1.0  0.76831  0.32016  0.50090  1.0000
  H   H26       1.0  0.23169  0.67984  0.49910  1.0000
  H   H27       1.0  0.73046  0.30341  0.38375  1.0000
  H   H28       1.0  0.26954  0.69658  0.61626  1.0000
  H   H29       1.0  0.98984  0.13383  0.24125  1.0000
  H   H30       1.0  0.01016  0.86617  0.75875  1.0000
  H   H31       1.0  0.73273  0.14314  0.59826  1.0000
  H   H32       1.0  0.26727  0.85686  0.40175  1.0000
  H   H33       1.0  0.04812  0.91853  0.25301  1.0000
  H   H34       1.0  0.95189  0.08147  0.74699  1.0000
  H   H35       1.0  0.79696  0.92791  0.61143  1.0000
  H   H36       1.0  0.20305  0.07209  0.38857  1.0000
  H   H37       1.0  0.92559  0.74844  0.53070  1.0000
  H   H38       1.0  0.07441  0.25156  0.46930  1.0000
  H   H39       1.0  0.06911  0.74717  0.39934  1.0000
  H   H40       1.0  0.93089  0.25282  0.60066  1.0000
  H   H41       1.0  0.68770  0.69815  0.53903  1.0000
  H   H42       1.0  0.31230  0.30185  0.46097  1.0000
  H   H43       1.0  0.69685  0.84003  0.47047  1.0000
  H   H44       1.0  0.30314  0.15997  0.52953  1.0000
  H   H45       1.0  0.63926  0.53917  0.45042  1.0000
  H   H46       1.0  0.36074  0.46083  0.54959  1.0000
  H   H47       1.0  0.50781  0.49005  0.34870  1.0000
  H   H48       1.0  0.49219  0.50995  0.65130  1.0000
  H   H49       1.0  0.42704  0.64427  0.23809  1.0000
  H   H50       1.0  0.57296  0.35573  0.76191  1.0000
  H   H51       1.0  0.47527  0.84497  0.22807  1.0000
  H   H52       1.0  0.52473  0.15503  0.77193  1.0000
  C   C1        1.0  0.53890  0.01367  0.30183  1.0000
  C   C2        1.0  0.46110  0.98633  0.69817  1.0000
  C   C3        1.0  0.59953  0.12187  0.29681  1.0000
  C   C4        1.0  0.40047  0.87813  0.70319  1.0000
  C   C5        1.0  0.72726  0.12468  0.18923  1.0000
  C   C6        1.0  0.27274  0.87532  0.81077  1.0000
  C   C7        1.0  0.89641  0.24589  0.09885  1.0000
  C   C8        1.0  0.10358  0.75412  0.90115  1.0000
  C   C9        1.0  0.96056  0.17339  0.00342  1.0000
  C   C10       1.0  0.03943  0.82661  0.99658  1.0000
  C   C11       1.0  0.08133  0.19613  0.91613  1.0000
  C   C12       1.0  0.91867  0.80387  0.08387  1.0000
  C   C13       1.0  0.13932  0.28974  0.92358  1.0000
  C   C14       1.0  0.86067  0.71026  0.07643  1.0000
  C   C15       1.0  0.07538  0.36063  0.01931  1.0000
  C   C16       1.0  0.92461  0.63937  0.98069  1.0000
  C   C17       1.0  0.95406  0.34090  0.10778  1.0000
  C   C18       1.0  0.04593  0.65910  0.89221  1.0000
  C   C19       1.0  0.89092  0.41859  0.20934  1.0000
  C   C20       1.0  0.10907  0.58142  0.79066  1.0000
  C   C21       1.0  0.80922  0.28310  0.41543  1.0000
  C   C22       1.0  0.19079  0.71690  0.58457  1.0000
  C   C23       1.0  0.85356  0.15315  0.41876  1.0000
  C   C24       1.0  0.14644  0.84684  0.58124  1.0000
  C   C25       1.0  0.94420  0.08855  0.32205  1.0000
  C   C26       1.0  0.05580  0.91145  0.67795  1.0000
  C   C27       1.0  0.80116  0.09360  0.52229  1.0000
  C   C28       1.0  0.19884  0.90640  0.47771  1.0000
  C   C29       1.0  0.97824  0.96788  0.32902  1.0000
  C   C30       1.0  0.02176  0.03212  0.67098  1.0000
  C   C31       1.0  0.83602  0.97277  0.52942  1.0000
  C   C32       1.0  0.16398  0.02723  0.47058  1.0000
  C   C33       1.0  0.92488  0.90820  0.43300  1.0000
  C   C34       1.0  0.07513  0.09179  0.56700  1.0000
  C   C35       1.0  0.96065  0.77874  0.44182  1.0000
  C   C36       1.0  0.03935  0.22125  0.55818  1.0000
  C   C37       1.0  0.71120  0.74571  0.45769  1.0000
  C   C38       1.0  0.28880  0.25428  0.54231  1.0000
  C   C39       1.0  0.63080  0.71884  0.39780  1.0000
  C   C40       1.0  0.36920  0.28116  0.60220  1.0000
  C   C41       1.0  0.60267  0.60582  0.40133  1.0000
  C   C42       1.0  0.39733  0.39418  0.59867  1.0000
  C   C43       1.0  0.53042  0.57806  0.34407  1.0000
  C   C44       1.0  0.46958  0.42194  0.65593  1.0000
  C   C45       1.0  0.48504  0.66483  0.28187  1.0000
  C   C46       1.0  0.51496  0.33517  0.71813  1.0000
  C   C47       1.0  0.51101  0.77856  0.27741  1.0000
  C   C48       1.0  0.48900  0.22144  0.72259  1.0000
  C   C49       1.0  0.58387  0.80606  0.33482  1.0000
  C   C50       1.0  0.41614  0.19394  0.66518  1.0000
  S   S1        1.0  0.94397  0.36318  0.32382  1.0000
  S   S2        1.0  0.05603  0.63682  0.67618  1.0000
  S   S3        1.0  0.89069  0.70025  0.36963  1.0000
  S   S4        1.0  0.10932  0.29975  0.63037  1.0000
  Br  Br1       1.0  0.19327  0.50143  0.37312  1.0000
  Br  Br2       1.0  0.80674  0.49857  0.62688  1.0000
  O   O1        1.0  0.61671  0.91476  0.33217  1.0000
  O   O2        1.0  0.38330  0.08524  0.66782  1.0000
  O   O3        1.0  0.77721  0.23013  0.18783  1.0000
  O   O4        1.0  0.22278  0.76987  0.81217  1.0000
