data_image0
_chemical_formula_structural       Zn4H32C40N20O20
_chemical_formula_sum              "Zn4 H32 C40 N20 O20"
_cell_length_a       7.22334
_cell_length_b       9.29952
_cell_length_c       20.219
_cell_angle_alpha    90
_cell_angle_beta     90
_cell_angle_gamma    109.581

_space_group_name_H-M_alt    "P 1"
_space_group_IT_number       1

loop_
  _space_group_symop_operation_xyz
  'x, y, z'

loop_
  _atom_site_type_symbol
  _atom_site_label
  _atom_site_symmetry_multiplicity
  _atom_site_fract_x
  _atom_site_fract_y
  _atom_site_fract_z
  _atom_site_occupancy
  Zn  Zn1       1.0  0.53648  0.77600  0.99061  1.0000
  Zn  Zn2       1.0  0.96351  0.22399  0.49060  1.0000
  Zn  Zn3       1.0  0.46352  0.22400  0.00939  1.0000
  Zn  Zn4       1.0  0.03649  0.77601  0.50940  1.0000
  H   H1        1.0  0.60076  0.94005  0.63943  1.0000
  H   H2        1.0  0.89922  0.05994  0.13943  1.0000
  H   H3        1.0  0.39924  0.05996  0.36056  1.0000
  H   H4        1.0  0.10079  0.94007  0.86057  1.0000
  H   H5        1.0  0.87808  0.17089  0.85616  1.0000
  H   H6        1.0  0.62190  0.82910  0.35616  1.0000
  H   H7        1.0  0.12192  0.82910  0.14384  1.0000
  H   H8        1.0  0.37809  0.17090  0.64384  1.0000
  H   H9        1.0  0.27025  0.58717  0.80478  1.0000
  H   H10       1.0  0.22973  0.41282  0.30478  1.0000
  H   H11       1.0  0.72975  0.41283  0.19522  1.0000
  H   H12       1.0  0.77027  0.58718  0.69522  1.0000
  H   H13       1.0  0.21002  0.51877  0.69206  1.0000
  H   H14       1.0  0.28996  0.48121  0.19206  1.0000
  H   H15       1.0  0.78998  0.48123  0.30794  1.0000
  H   H16       1.0  0.71004  0.51878  0.80794  1.0000
  H   H17       1.0  0.32034  0.49892  0.97162  1.0000
  H   H18       1.0  0.17966  0.50107  0.47162  1.0000
  H   H19       1.0  0.67966  0.50108  0.02838  1.0000
  H   H20       1.0  0.82034  0.49893  0.52838  1.0000
  H   H21       1.0  0.51629  0.51030  0.92977  1.0000
  H   H22       1.0  0.98371  0.48970  0.42977  1.0000
  H   H23       1.0  0.48371  0.48971  0.07023  1.0000
  H   H24       1.0  0.01629  0.51030  0.57023  1.0000
  H   H25       1.0  0.28913  0.87954  0.04872  1.0000
  H   H26       1.0  0.21087  0.12046  0.54872  1.0000
  H   H27       1.0  0.71087  0.12046  0.95128  1.0000
  H   H28       1.0  0.78913  0.87954  0.45128  1.0000
  H   H29       1.0  0.28085  0.71568  0.07382  1.0000
  H   H30       1.0  0.21914  0.28431  0.57382  1.0000
  H   H31       1.0  0.71915  0.28432  0.92618  1.0000
  H   H32       1.0  0.78086  0.71569  0.42618  1.0000
  C   C1        1.0  0.58501  0.88933  0.86679  1.0000
  C   C2        1.0  0.91497  0.11066  0.36678  1.0000
  C   C3        1.0  0.41499  0.11067  0.13321  1.0000
  C   C4        1.0  0.08502  0.88934  0.63322  1.0000
  C   C5        1.0  0.66330  0.97764  0.80779  1.0000
  C   C6        1.0  0.83668  0.02235  0.30779  1.0000
  C   C7        1.0  0.33670  0.02236  0.19221  1.0000
  C   C8        1.0  0.16331  0.97765  0.69222  1.0000
  C   C9        1.0  0.58906  0.91294  0.74546  1.0000
  C   C10       1.0  0.91093  0.08705  0.24546  1.0000
  C   C11       1.0  0.41094  0.08706  0.25454  1.0000
  C   C12       1.0  0.08906  0.91295  0.75454  1.0000
  C   C13       1.0  0.43800  0.76170  0.74319  1.0000
  C   C14       1.0  0.06198  0.23830  0.24318  1.0000
  C   C15       1.0  0.56200  0.23830  0.25681  1.0000
  C   C16       1.0  0.93801  0.76170  0.75682  1.0000
  C   C17       1.0  0.88087  0.22213  0.62901  1.0000
  C   C18       1.0  0.61911  0.77785  0.12901  1.0000
  C   C19       1.0  0.11913  0.77787  0.37099  1.0000
  C   C20       1.0  0.38089  0.22215  0.87099  1.0000
  C   C21       1.0  0.80251  0.13596  0.68919  1.0000
  C   C22       1.0  0.69748  0.86402  0.18919  1.0000
  C   C23       1.0  0.19749  0.86404  0.31081  1.0000
  C   C24       1.0  0.30252  0.13597  0.81081  1.0000
  C   C25       1.0  0.87890  0.19927  0.75117  1.0000
  C   C26       1.0  0.62109  0.80072  0.25117  1.0000
  C   C27       1.0  0.12111  0.80073  0.24883  1.0000
  C   C28       1.0  0.37891  0.19928  0.74883  1.0000
  C   C29       1.0  0.03473  0.34807  0.75327  1.0000
  C   C30       1.0  0.46526  0.65192  0.25327  1.0000
  C   C31       1.0  0.96528  0.65193  0.24673  1.0000
  C   C32       1.0  0.53474  0.34808  0.74673  1.0000
  C   C33       1.0  0.65867  0.99158  0.68679  1.0000
  C   C34       1.0  0.84133  0.00841  0.18678  1.0000
  C   C35       1.0  0.34133  0.00843  0.31321  1.0000
  C   C36       1.0  0.15868  0.99159  0.81322  1.0000
  C   C37       1.0  0.81062  0.12049  0.80975  1.0000
  C   C38       1.0  0.68937  0.87950  0.30975  1.0000
  C   C39       1.0  0.18938  0.87951  0.19025  1.0000
  C   C40       1.0  0.31063  0.12050  0.69025  1.0000
  N   N1        1.0  0.44698  0.75483  0.86349  1.0000
  N   N2        1.0  0.05299  0.24516  0.36349  1.0000
  N   N3        1.0  0.55301  0.24517  0.13651  1.0000
  N   N4        1.0  0.94700  0.75483  0.63651  1.0000
  N   N5        1.0  0.37886  0.69608  0.80313  1.0000
  N   N6        1.0  0.12112  0.30391  0.30312  1.0000
  N   N7        1.0  0.62114  0.30392  0.19687  1.0000
  N   N8        1.0  0.87887  0.69608  0.69688  1.0000
  N   N9        1.0  0.03141  0.35288  0.63231  1.0000
  N   N10       1.0  0.46857  0.64711  0.13232  1.0000
  N   N11       1.0  0.96859  0.64713  0.36769  1.0000
  N   N12       1.0  0.53143  0.35289  0.86768  1.0000
  N   N13       1.0  0.10011  0.41042  0.69361  1.0000
  N   N14       1.0  0.39987  0.58956  0.19361  1.0000
  N   N15       1.0  0.89989  0.58958  0.30639  1.0000
  N   N16       1.0  0.60013  0.41043  0.80639  1.0000
  N   N17       1.0  0.47084  0.54404  0.97443  1.0000
  N   N18       1.0  0.02916  0.45596  0.47443  1.0000
  N   N19       1.0  0.52916  0.45596  0.02557  1.0000
  N   N20       1.0  0.97084  0.54405  0.52557  1.0000
  O   O1        1.0  0.65240  0.94025  0.92656  1.0000
  O   O2        1.0  0.84757  0.05974  0.42656  1.0000
  O   O3        1.0  0.34760  0.05976  0.07344  1.0000
  O   O4        1.0  0.15242  0.94025  0.57345  1.0000
  O   O5        1.0  0.36545  0.69602  0.68996  1.0000
  O   O6        1.0  0.13452  0.30397  0.18996  1.0000
  O   O7        1.0  0.63455  0.30398  0.31005  1.0000
  O   O8        1.0  0.86547  0.69603  0.81005  1.0000
  O   O9        1.0  0.80583  0.16717  0.57217  1.0000
  O   O10       1.0  0.69416  0.83280  0.07217  1.0000
  O   O11       1.0  0.19417  0.83283  0.42783  1.0000
  O   O12       1.0  0.30585  0.16719  0.92783  1.0000
  O   O13       1.0  0.10614  0.41332  0.80683  1.0000
  O   O14       1.0  0.39383  0.58667  0.30683  1.0000
  O   O15       1.0  0.89386  0.58668  0.19317  1.0000
  O   O16       1.0  0.60616  0.41333  0.69317  1.0000
  O   O17       1.0  0.27294  0.77257  0.03323  1.0000
  O   O18       1.0  0.22705  0.22744  0.53322  1.0000
  O   O19       1.0  0.72705  0.22743  0.96677  1.0000
  O   O20       1.0  0.77295  0.77256  0.46678  1.0000
