data_image0
_chemical_formula_structural       Cu2H14C20N4O14
_chemical_formula_sum              "Cu2 H14 C20 N4 O14"
_cell_length_a       6.62257
_cell_length_b       9.64427
_cell_length_c       9.50881
_cell_angle_alpha    96.4291
_cell_angle_beta     109.523
_cell_angle_gamma    94.3533

_space_group_name_H-M_alt    "P 1"
_space_group_IT_number       1

loop_
  _space_group_symop_operation_xyz
  'x, y, z'

loop_
  _atom_site_type_symbol
  _atom_site_label
  _atom_site_symmetry_multiplicity
  _atom_site_fract_x
  _atom_site_fract_y
  _atom_site_fract_z
  _atom_site_occupancy
  Cu  Cu1       1.0  0.42350  0.86860  0.45215  1.0000
  Cu  Cu2       1.0  0.57650  0.13140  0.54785  1.0000
  H   H1        1.0  0.39444  0.98033  0.12983  1.0000
  H   H2        1.0  0.60555  0.01967  0.87017  1.0000
  H   H3        1.0  0.04142  0.33337  0.38094  1.0000
  H   H4        1.0  0.95858  0.66663  0.61906  1.0000
  H   H5        1.0  0.00155  0.19077  0.03064  1.0000
  H   H6        1.0  0.99845  0.80924  0.96936  1.0000
  H   H7        1.0  0.64723  0.61992  0.16886  1.0000
  H   H8        1.0  0.35278  0.38008  0.83114  1.0000
  H   H9        1.0  0.25964  0.56151  0.28473  1.0000
  H   H10       1.0  0.74037  0.43849  0.71528  1.0000
  H   H11       1.0  0.25444  0.57237  0.44863  1.0000
  H   H12       1.0  0.74557  0.42763  0.55137  1.0000
  H   H13       1.0  0.01068  0.73393  0.30324  1.0000
  H   H14       1.0  0.98932  0.26607  0.69675  1.0000
  C   C1        1.0  0.76595  0.86489  0.23387  1.0000
  C   C2        1.0  0.23404  0.13511  0.76613  1.0000
  C   C3        1.0  0.73853  0.01408  0.24070  1.0000
  C   C4        1.0  0.26147  0.98592  0.75930  1.0000
  C   C5        1.0  0.53463  0.05882  0.18114  1.0000
  C   C6        1.0  0.46536  0.94117  0.81886  1.0000
  C   C7        1.0  0.51213  0.20197  0.19044  1.0000
  C   C8        1.0  0.48786  0.79803  0.80956  1.0000
  C   C9        1.0  0.69695  0.30195  0.26100  1.0000
  C   C10       1.0  0.30305  0.69805  0.73900  1.0000
  C   C11       1.0  0.89857  0.25811  0.32238  1.0000
  C   C12       1.0  0.10143  0.74189  0.67762  1.0000
  C   C13       1.0  0.92096  0.11436  0.31159  1.0000
  C   C14       1.0  0.07904  0.88564  0.68841  1.0000
  C   C15       1.0  0.13306  0.06942  0.37639  1.0000
  C   C16       1.0  0.86694  0.93058  0.62360  1.0000
  C   C17       1.0  0.29668  0.25206  0.13701  1.0000
  C   C18       1.0  0.70331  0.74793  0.86299  1.0000
  C   C19       1.0  0.68626  0.45748  0.27908  1.0000
  C   C20       1.0  0.31375  0.54252  0.72092  1.0000
  N   N1        1.0  0.97069  0.83583  0.29816  1.0000
  N   N2        1.0  0.02930  0.16417  0.70184  1.0000
  N   N3        1.0  0.15327  0.93182  0.36750  1.0000
  N   N4        1.0  0.84673  0.06818  0.63250  1.0000
  O   O1        1.0  0.60942  0.76890  0.17153  1.0000
  O   O2        1.0  0.39058  0.23110  0.82847  1.0000
  O   O3        1.0  0.29577  0.16434  0.44073  1.0000
  O   O4        1.0  0.70423  0.83566  0.55927  1.0000
  O   O5        1.0  0.26088  0.37331  0.16275  1.0000
  O   O6        1.0  0.73912  0.62670  0.83725  1.0000
  O   O7        1.0  0.13634  0.14778  0.05642  1.0000
  O   O8        1.0  0.86366  0.85222  0.94357  1.0000
  O   O9        1.0  0.66726  0.51256  0.15634  1.0000
  O   O10       1.0  0.33274  0.48744  0.84366  1.0000
  O   O11       1.0  0.70813  0.52303  0.40416  1.0000
  O   O12       1.0  0.29187  0.47697  0.59584  1.0000
  O   O13       1.0  0.22434  0.62374  0.35952  1.0000
  O   O14       1.0  0.77567  0.37626  0.64048  1.0000
