data_image0
_chemical_formula_structural       Fe3H14C20N4O16
_chemical_formula_sum              "Fe3 H14 C20 N4 O16"
_cell_length_a       6.42544
_cell_length_b       9.40118
_cell_length_c       10.2435
_cell_angle_alpha    108.21
_cell_angle_beta     91.4403
_cell_angle_gamma    101.61

_space_group_name_H-M_alt    "P 1"
_space_group_IT_number       1

loop_
  _space_group_symop_operation_xyz
  'x, y, z'

loop_
  _atom_site_type_symbol
  _atom_site_label
  _atom_site_symmetry_multiplicity
  _atom_site_fract_x
  _atom_site_fract_y
  _atom_site_fract_z
  _atom_site_occupancy
  Fe  Fe1       1.0  0.29197  0.18501  0.65797  1.0000
  Fe  Fe2       1.0  0.70803  0.81499  0.34203  1.0000
  Fe  Fe3       1.0  0.50000  0.50000  0.50000  1.0000
  H   H1        1.0  0.33252  0.22708  0.12431  1.0000
  H   H2        1.0  0.66747  0.77292  0.87569  1.0000
  H   H3        1.0  0.12491  0.66102  0.02130  1.0000
  H   H4        1.0  0.87509  0.33898  0.97870  1.0000
  H   H5        1.0  0.15362  0.75342  0.59577  1.0000
  H   H6        1.0  0.84638  0.24658  0.40423  1.0000
  H   H7        1.0  0.72873  0.34901  0.59440  1.0000
  H   H8        1.0  0.27127  0.65099  0.40560  1.0000
  H   H9        1.0  0.89781  0.50383  0.61171  1.0000
  H   H10       1.0  0.10219  0.49617  0.38829  1.0000
  H   H11       1.0  0.25131  0.49846  0.71616  1.0000
  H   H12       1.0  0.74869  0.50154  0.28384  1.0000
  H   H13       1.0  0.48379  0.48184  0.76146  1.0000
  H   H14       1.0  0.51620  0.51816  0.23854  1.0000
  C   C1        1.0  0.26585  0.06933  0.85284  1.0000
  C   C2        1.0  0.73415  0.93066  0.14716  1.0000
  C   C3        1.0  0.24863  0.00753  0.96562  1.0000
  C   C4        1.0  0.75137  0.99247  0.03437  1.0000
  C   C5        1.0  0.28839  0.10354  0.10268  1.0000
  C   C6        1.0  0.71160  0.89646  0.89731  1.0000
  C   C7        1.0  0.27100  0.04304  0.21074  1.0000
  C   C8        1.0  0.72901  0.95697  0.78926  1.0000
  C   C9        1.0  0.21145  0.88161  0.18153  1.0000
  C   C10       1.0  0.78854  0.11839  0.81847  1.0000
  C   C11       1.0  0.17142  0.78513  0.04540  1.0000
  C   C12       1.0  0.82857  0.21487  0.95460  1.0000
  C   C13       1.0  0.18889  0.84634  0.93618  1.0000
  C   C14       1.0  0.81111  0.15366  0.06382  1.0000
  C   C15       1.0  0.14601  0.74883  0.79312  1.0000
  C   C16       1.0  0.85399  0.25117  0.20689  1.0000
  C   C17       1.0  0.31626  0.15123  0.35470  1.0000
  C   C18       1.0  0.68374  0.84877  0.64530  1.0000
  C   C19       1.0  0.19392  0.81048  0.29467  1.0000
  C   C20       1.0  0.80608  0.18952  0.70533  1.0000
  N   N1        1.0  0.23033  0.97619  0.72153  1.0000
  N   N2        1.0  0.76967  0.02381  0.27847  1.0000
  N   N3        1.0  0.17151  0.82187  0.69761  1.0000
  N   N4        1.0  0.82849  0.17813  0.30239  1.0000
  O   O1        1.0  0.31504  0.21461  0.86858  1.0000
  O   O2        1.0  0.68497  0.78539  0.13142  1.0000
  O   O3        1.0  0.08540  0.60188  0.75460  1.0000
  O   O4        1.0  0.91461  0.39812  0.24541  1.0000
  O   O5        1.0  0.37667  0.29303  0.36835  1.0000
  O   O6        1.0  0.62333  0.70696  0.63165  1.0000
  O   O7        1.0  0.29152  0.09623  0.45363  1.0000
  O   O8        1.0  0.70848  0.90377  0.54637  1.0000
  O   O9        1.0  0.35785  0.76610  0.32780  1.0000
  O   O10       1.0  0.64215  0.23390  0.67220  1.0000
  O   O11       1.0  0.01996  0.78432  0.34648  1.0000
  O   O12       1.0  0.98004  0.21568  0.65352  1.0000
  O   O13       1.0  0.77820  0.42832  0.54676  1.0000
  O   O14       1.0  0.22180  0.57168  0.45324  1.0000
  O   O15       1.0  0.36927  0.43877  0.68647  1.0000
  O   O16       1.0  0.63073  0.56123  0.31353  1.0000
