data_image0
_chemical_formula_structural       Cd2H38C32N4O10
_chemical_formula_sum              "Cd2 H38 C32 N4 O10"
_cell_length_a       8.69988
_cell_length_b       10.3076
_cell_length_c       10.9274
_cell_angle_alpha    64.0534
_cell_angle_beta     70.7895
_cell_angle_gamma    78.3881

_space_group_name_H-M_alt    "P 1"
_space_group_IT_number       1

loop_
  _space_group_symop_operation_xyz
  'x, y, z'

loop_
  _atom_site_type_symbol
  _atom_site_label
  _atom_site_symmetry_multiplicity
  _atom_site_fract_x
  _atom_site_fract_y
  _atom_site_fract_z
  _atom_site_occupancy
  Cd  Cd1       1.0  0.22732  0.08430  0.08742  1.0000
  Cd  Cd2       1.0  0.77268  0.91571  0.91258  1.0000
  H   H1        1.0  0.25382  0.79304  0.32723  1.0000
  H   H2        1.0  0.74618  0.20696  0.67277  1.0000
  H   H3        1.0  0.40461  0.64428  0.34023  1.0000
  H   H4        1.0  0.59539  0.35572  0.65977  1.0000
  H   H5        1.0  0.23247  0.94935  0.45183  1.0000
  H   H6        1.0  0.76753  0.05065  0.54817  1.0000
  H   H7        1.0  0.47954  0.79980  0.77758  1.0000
  H   H8        1.0  0.52045  0.20019  0.22242  1.0000
  H   H9        1.0  0.61875  0.59714  0.70853  1.0000
  H   H10       1.0  0.38125  0.40286  0.29147  1.0000
  H   H11       1.0  0.57500  0.57754  0.50266  1.0000
  H   H12       1.0  0.42500  0.42246  0.49733  1.0000
  H   H13       1.0  0.25632  0.10994  0.56325  1.0000
  H   H14       1.0  0.74368  0.89006  0.43675  1.0000
  H   H15       1.0  0.33032  0.03342  0.71605  1.0000
  H   H16       1.0  0.66968  0.96658  0.28395  1.0000
  H   H17       1.0  0.95822  0.28831  0.25117  1.0000
  H   H18       1.0  0.04178  0.71169  0.74883  1.0000
  H   H19       1.0  0.25154  0.64512  0.00314  1.0000
  H   H20       1.0  0.74846  0.35488  0.99687  1.0000
  H   H21       1.0  0.41483  0.40310  0.95196  1.0000
  H   H22       1.0  0.58517  0.59690  0.04804  1.0000
  H   H23       1.0  0.82707  0.53019  0.24148  1.0000
  H   H24       1.0  0.17293  0.46981  0.75852  1.0000
  H   H25       1.0  0.92759  0.68475  0.10780  1.0000
  H   H26       1.0  0.07241  0.31525  0.89220  1.0000
  H   H27       1.0  0.09247  0.67093  0.26264  1.0000
  H   H28       1.0  0.90753  0.32907  0.73737  1.0000
  H   H29       1.0  0.88077  0.69505  0.33419  1.0000
  H   H30       1.0  0.11923  0.30495  0.66581  1.0000
  H   H31       1.0  0.07955  0.40191  0.42021  1.0000
  H   H32       1.0  0.92044  0.59809  0.57980  1.0000
  H   H33       1.0  0.86837  0.42980  0.48847  1.0000
  H   H34       1.0  0.13163  0.57020  0.51153  1.0000
  H   H35       1.0  0.19133  0.89435  0.97483  1.0000
  H   H36       1.0  0.80867  0.10565  0.02518  1.0000
  H   H37       1.0  0.37500  0.91784  0.95630  1.0000
  H   H38       1.0  0.62500  0.08216  0.04370  1.0000
  C   C1        1.0  0.49760  0.85156  0.20404  1.0000
  C   C2        1.0  0.50240  0.14844  0.79596  1.0000
  C   C3        1.0  0.37850  0.75446  0.33594  1.0000
  C   C4        1.0  0.62150  0.24554  0.66406  1.0000
  C   C5        1.0  0.39908  0.76082  0.46526  1.0000
  C   C6        1.0  0.60092  0.23918  0.53474  1.0000
  C   C7        1.0  0.31739  0.87202  0.50815  1.0000
  C   C8        1.0  0.68262  0.12798  0.49185  1.0000
  C   C9        1.0  0.34592  0.88744  0.61984  1.0000
  C   C10       1.0  0.65407  0.11256  0.38016  1.0000
  C   C11       1.0  0.45427  0.78714  0.69218  1.0000
  C   C12       1.0  0.54573  0.21286  0.30782  1.0000
  C   C13       1.0  0.53395  0.67426  0.65194  1.0000
  C   C14       1.0  0.46605  0.32574  0.34805  1.0000
  C   C15       1.0  0.50807  0.66210  0.53795  1.0000
  C   C16       1.0  0.49193  0.33790  0.46205  1.0000
  C   C17       1.0  0.26163  0.01268  0.65930  1.0000
  C   C18       1.0  0.73837  0.98732  0.34070  1.0000
  C   C19       1.0  0.08859  0.98029  0.75213  1.0000
  C   C20       1.0  0.91141  0.01971  0.24787  1.0000
  C   C21       1.0  0.06254  0.34967  0.17718  1.0000
  C   C22       1.0  0.93746  0.65033  0.82281  1.0000
  C   C23       1.0  0.21840  0.53462  0.04673  1.0000
  C   C24       1.0  0.78160  0.46538  0.95327  1.0000
  C   C25       1.0  0.29739  0.41438  0.02352  1.0000
  C   C26       1.0  0.70261  0.58563  0.97648  1.0000
  C   C27       1.0  0.94126  0.58434  0.19838  1.0000
  C   C28       1.0  0.05874  0.41566  0.80163  1.0000
  C   C29       1.0  0.97782  0.61627  0.30924  1.0000
  C   C30       1.0  0.02218  0.38373  0.69076  1.0000
  C   C31       1.0  0.98426  0.48249  0.44434  1.0000
  C   C32       1.0  0.01574  0.51751  0.55567  1.0000
  N   N1        1.0  0.19898  0.29967  0.10573  1.0000
  N   N2        1.0  0.80102  0.70033  0.89427  1.0000
  N   N3        1.0  0.06959  0.49171  0.14377  1.0000
  N   N4        1.0  0.93041  0.50829  0.85623  1.0000
  O   O1        1.0  0.46216  0.98913  0.15902  1.0000
  O   O2        1.0  0.53784  0.01087  0.84098  1.0000
  O   O3        1.0  0.62769  0.79318  0.14918  1.0000
  O   O4        1.0  0.37231  0.20682  0.85082  1.0000
  O   O5        1.0  0.06454  0.90816  0.88647  1.0000
  O   O6        1.0  0.93547  0.09184  0.11353  1.0000
  O   O7        1.0  0.97231  0.02092  0.69469  1.0000
  O   O8        1.0  0.02769  0.97908  0.30531  1.0000
  O   O9        1.0  0.26979  0.88331  0.02963  1.0000
  O   O10       1.0  0.73021  0.11669  0.97037  1.0000
