data_image0
_chemical_formula_structural       Zn2H44C40N8O8
_chemical_formula_sum              "Zn2 H44 C40 N8 O8"
_cell_length_a       7.88441
_cell_length_b       8.7889
_cell_length_c       16.4278
_cell_angle_alpha    84.167
_cell_angle_beta     76.9046
_cell_angle_gamma    63.3497

_space_group_name_H-M_alt    "P 1"
_space_group_IT_number       1

loop_
  _space_group_symop_operation_xyz
  'x, y, z'

loop_
  _atom_site_type_symbol
  _atom_site_label
  _atom_site_symmetry_multiplicity
  _atom_site_fract_x
  _atom_site_fract_y
  _atom_site_fract_z
  _atom_site_occupancy
  Zn  Zn1       1.0  0.06020  0.62230  0.44827  1.0000
  Zn  Zn2       1.0  0.68222  0.37775  0.94827  1.0000
  H   H1        1.0  0.36960  0.75487  0.48896  1.0000
  H   H2        1.0  0.12401  0.24493  0.98890  1.0000
  H   H3        1.0  0.76711  0.00171  0.49727  1.0000
  H   H4        1.0  0.76836  0.99806  0.99733  1.0000
  H   H5        1.0  0.89264  0.23952  0.52884  1.0000
  H   H6        1.0  0.13154  0.76038  0.02908  1.0000
  H   H7        1.0  0.25435  0.20893  0.50565  1.0000
  H   H8        1.0  0.46282  0.79108  0.00584  1.0000
  H   H9        1.0  0.43979  0.99529  0.50595  1.0000
  H   H10       1.0  0.43440  0.00482  0.00600  1.0000
  H   H11       1.0  0.27824  0.96376  0.65463  1.0000
  H   H12       1.0  0.24184  0.03654  0.15474  1.0000
  H   H13       1.0  0.12285  0.18632  0.65536  1.0000
  H   H14       1.0  0.30874  0.81401  0.15560  1.0000
  H   H15       1.0  0.56635  0.02154  0.62480  1.0000
  H   H16       1.0  0.58785  0.97845  0.12482  1.0000
  H   H17       1.0  0.41630  0.24494  0.62680  1.0000
  H   H18       1.0  0.66096  0.75505  0.12691  1.0000
  H   H19       1.0  0.25381  0.21972  0.77557  1.0000
  H   H20       1.0  0.47341  0.78055  0.27570  1.0000
  H   H21       1.0  0.41412  0.99818  0.77272  1.0000
  H   H22       1.0  0.41219  0.00208  0.27276  1.0000
  H   H23       1.0  0.34470  0.33675  0.87426  1.0000
  H   H24       1.0  0.68118  0.66364  0.37436  1.0000
  H   H25       1.0  0.95194  0.14423  0.79096  1.0000
  H   H26       1.0  0.09616  0.85582  0.29107  1.0000
  H   H27       1.0  0.80717  0.01452  0.69061  1.0000
  H   H28       1.0  0.82177  0.98564  0.19069  1.0000
  H   H29       1.0  0.55288  0.24077  0.27822  1.0000
  H   H30       1.0  0.79406  0.75862  0.77799  1.0000
  H   H31       1.0  0.65893  0.18240  0.36647  1.0000
  H   H32       1.0  0.84151  0.81743  0.86619  1.0000
  H   H33       1.0  0.66395  0.41022  0.16074  1.0000
  H   H34       1.0  0.07514  0.58894  0.66059  1.0000
  H   H35       1.0  0.92144  0.49295  0.09089  1.0000
  H   H36       1.0  0.41539  0.50658  0.59092  1.0000
  H   H37       1.0  0.19304  0.31952  0.30397  1.0000
  H   H38       1.0  0.51230  0.68112  0.80399  1.0000
  H   H39       1.0  0.94128  0.22781  0.37194  1.0000
  H   H40       1.0  0.16877  0.77242  0.87181  1.0000
  H   H41       1.0  0.30284  0.47868  0.20086  1.0000
  H   H42       1.0  0.78186  0.52157  0.70091  1.0000
  H   H43       1.0  0.13896  0.62127  0.14249  1.0000
  H   H44       1.0  0.76052  0.37895  0.64259  1.0000
  C   C1        1.0  0.22114  0.85130  0.49556  1.0000
  C   C2        1.0  0.07196  0.14851  0.99561  1.0000
  C   C3        1.0  0.90930  0.98611  0.50122  1.0000
  C   C4        1.0  0.89493  0.01370  0.00129  1.0000
  C   C5        1.0  0.96797  0.10365  0.51725  1.0000
  C   C6        1.0  0.07105  0.89622  0.01744  1.0000
  C   C7        1.0  0.29050  0.08251  0.53397  1.0000
  C   C8        1.0  0.37250  0.91755  0.03412  1.0000
  C   C9        1.0  0.26778  0.08750  0.62863  1.0000
  C   C10       1.0  0.35497  0.91271  0.12877  1.0000
  C   C11       1.0  0.42361  0.12197  0.65231  1.0000
  C   C12       1.0  0.54541  0.87812  0.15238  1.0000
  C   C13       1.0  0.39813  0.12358  0.74693  1.0000
  C   C14       1.0  0.52159  0.87664  0.24700  1.0000
  C   C15       1.0  0.49214  0.26650  0.84031  1.0000
  C   C16       1.0  0.75847  0.73379  0.34041  1.0000
  C   C17       1.0  0.80463  0.16506  0.79348  1.0000
  C   C18       1.0  0.96963  0.83508  0.29357  1.0000
  C   C19       1.0  0.73468  0.09986  0.74368  1.0000
  C   C20       1.0  0.83451  0.90032  0.24376  1.0000
  C   C21       1.0  0.44539  0.44175  0.36568  1.0000
  C   C22       1.0  0.88747  0.55798  0.86563  1.0000
  C   C23       1.0  0.61386  0.28411  0.31993  1.0000
  C   C24       1.0  0.89830  0.71552  0.81975  1.0000
  C   C25       1.0  0.78176  0.31558  0.27252  1.0000
  C   C26       1.0  0.09766  0.68414  0.77238  1.0000
  C   C27       1.0  0.78138  0.38718  0.19225  1.0000
  C   C28       1.0  0.16916  0.61236  0.69215  1.0000
  C   C29       1.0  0.92679  0.43465  0.15286  1.0000
  C   C30       1.0  0.36206  0.56510  0.65284  1.0000
  C   C31       1.0  0.07586  0.41364  0.19246  1.0000
  C   C32       1.0  0.48983  0.58651  0.69247  1.0000
  C   C33       1.0  0.08077  0.33488  0.27089  1.0000
  C   C34       1.0  0.41569  0.66545  0.77086  1.0000
  C   C35       1.0  0.93642  0.28590  0.31006  1.0000
  C   C36       1.0  0.22235  0.71423  0.80995  1.0000
  C   C37       1.0  0.21764  0.48455  0.15497  1.0000
  C   C38       1.0  0.70251  0.51567  0.65504  1.0000
  C   C39       1.0  0.36392  0.40141  0.07497  1.0000
  C   C40       1.0  0.76573  0.59858  0.57498  1.0000
  N   N1        1.0  0.06891  0.82913  0.48761  1.0000
  N   N2        1.0  0.89759  0.17068  0.98761  1.0000
  N   N3        1.0  0.16552  0.01596  0.51309  1.0000
  N   N4        1.0  0.18093  0.98394  0.01326  1.0000
  N   N5        1.0  0.53696  0.16503  0.77437  1.0000
  N   N6        1.0  0.70189  0.83522  0.27445  1.0000
  N   N7        1.0  0.65190  0.26884  0.85343  1.0000
  N   N8        1.0  0.92059  0.73141  0.35355  1.0000
  O   O1        1.0  0.30070  0.41447  0.40722  1.0000
  O   O2        1.0  0.71559  0.58535  0.90734  1.0000
  O   O3        1.0  0.45056  0.58233  0.36101  1.0000
  O   O4        1.0  0.03322  0.41737  0.86092  1.0000
  O   O5        1.0  0.39078  0.26231  0.04904  1.0000
  O   O6        1.0  0.65334  0.73720  0.54871  1.0000
  O   O7        1.0  0.45688  0.48942  0.03972  1.0000
  O   O8        1.0  0.94692  0.51081  0.53998  1.0000
