data_image0
_chemical_formula_structural       Cu8H36C32I10N10
_chemical_formula_sum              "Cu8 H36 C32 I10 N10"
_cell_length_a       10.18
_cell_length_b       10.9728
_cell_length_c       12.1032
_cell_angle_alpha    97.9068
_cell_angle_beta     104.627
_cell_angle_gamma    103.856

_space_group_name_H-M_alt    "P 1"
_space_group_IT_number       1

loop_
  _space_group_symop_operation_xyz
  'x, y, z'

loop_
  _atom_site_type_symbol
  _atom_site_label
  _atom_site_symmetry_multiplicity
  _atom_site_fract_x
  _atom_site_fract_y
  _atom_site_fract_z
  _atom_site_occupancy
  Cu  Cu1       1.0  0.92201  0.71659  0.84399  1.0000
  Cu  Cu2       1.0  0.07799  0.28341  0.15602  1.0000
  Cu  Cu3       1.0  0.06655  0.49345  0.10335  1.0000
  Cu  Cu4       1.0  0.93345  0.50654  0.89665  1.0000
  Cu  Cu5       1.0  0.10303  0.80611  0.74358  1.0000
  Cu  Cu6       1.0  0.89697  0.19389  0.25642  1.0000
  Cu  Cu7       1.0  0.10391  0.00619  0.58036  1.0000
  Cu  Cu8       1.0  0.89609  0.99381  0.41964  1.0000
  H   H1        1.0  0.72125  0.57006  0.39827  1.0000
  H   H2        1.0  0.27875  0.42993  0.60172  1.0000
  H   H3        1.0  0.56503  0.52958  0.44189  1.0000
  H   H4        1.0  0.43497  0.47042  0.55810  1.0000
  H   H5        1.0  0.73364  0.53578  0.53849  1.0000
  H   H6        1.0  0.26637  0.46421  0.46151  1.0000
  H   H7        1.0  0.56896  0.34207  0.30544  1.0000
  H   H8        1.0  0.43104  0.65793  0.69456  1.0000
  H   H9        1.0  0.74284  0.35019  0.39011  1.0000
  H   H10       1.0  0.25716  0.64980  0.60989  1.0000
  H   H11       1.0  0.78376  0.31211  0.57782  1.0000
  H   H12       1.0  0.21624  0.68789  0.42218  1.0000
  H   H13       1.0  0.69377  0.16937  0.70294  1.0000
  H   H14       1.0  0.30622  0.83063  0.29706  1.0000
  H   H15       1.0  0.26908  0.10632  0.47284  1.0000
  H   H16       1.0  0.73092  0.89368  0.52716  1.0000
  H   H17       1.0  0.37570  0.24815  0.35613  1.0000
  H   H18       1.0  0.62430  0.75185  0.64387  1.0000
  H   H19       1.0  0.69950  0.94437  0.89604  1.0000
  H   H20       1.0  0.30050  0.05563  0.10396  1.0000
  H   H21       1.0  0.79534  0.84617  0.06204  1.0000
  H   H22       1.0  0.20466  0.15383  0.93796  1.0000
  H   H23       1.0  0.38997  0.68393  0.08322  1.0000
  H   H24       1.0  0.61003  0.31607  0.91678  1.0000
  H   H25       1.0  0.27813  0.77386  0.91851  1.0000
  H   H26       1.0  0.72187  0.22614  0.08149  1.0000
  H   H27       1.0  0.58612  0.69659  0.22883  1.0000
  H   H28       1.0  0.41388  0.30341  0.77118  1.0000
  H   H29       1.0  0.75889  0.77643  0.22581  1.0000
  H   H30       1.0  0.24112  0.22358  0.77419  1.0000
  H   H31       1.0  0.73005  0.54333  0.20595  1.0000
  H   H32       1.0  0.26995  0.45667  0.79405  1.0000
  H   H33       1.0  0.57615  0.50733  0.08435  1.0000
  H   H34       1.0  0.42385  0.49268  0.91565  1.0000
  H   H35       1.0  0.74673  0.58661  0.07357  1.0000
  H   H36       1.0  0.25328  0.41339  0.92643  1.0000
  C   C1        1.0  0.66656  0.50942  0.44725  1.0000
  C   C2        1.0  0.33344  0.49058  0.55274  1.0000
  C   C3        1.0  0.64300  0.36959  0.39412  1.0000
  C   C4        1.0  0.35700  0.63041  0.60587  1.0000
  C   C5        1.0  0.67149  0.26362  0.55930  1.0000
  C   C6        1.0  0.32851  0.73638  0.44069  1.0000
  C   C7        1.0  0.62024  0.18500  0.62736  1.0000
  C   C8        1.0  0.37976  0.81500  0.37264  1.0000
  C   C9        1.0  0.47360  0.12624  0.59924  1.0000
  C   C10       1.0  0.52640  0.87376  0.40076  1.0000
  C   C11       1.0  0.38352  0.14984  0.50054  1.0000
  C   C12       1.0  0.61648  0.85016  0.49945  1.0000
  C   C13       1.0  0.44058  0.22802  0.43420  1.0000
  C   C14       1.0  0.55942  0.77198  0.56580  1.0000
  C   C15       1.0  0.42391  0.04237  0.67189  1.0000
  C   C16       1.0  0.57609  0.95763  0.32811  1.0000
  C   C17       1.0  0.42665  0.92651  0.79806  1.0000
  C   C18       1.0  0.57334  0.07349  0.20194  1.0000
  C   C19       1.0  0.48047  0.86685  0.89256  1.0000
  C   C20       1.0  0.51953  0.13315  0.10744  1.0000
  C   C21       1.0  0.62779  0.88692  0.93486  1.0000
  C   C22       1.0  0.37221  0.11307  0.06514  1.0000
  C   C23       1.0  0.68220  0.83338  0.02596  1.0000
  C   C24       1.0  0.31780  0.16663  0.97404  1.0000
  C   C25       1.0  0.45282  0.74185  0.03803  1.0000
  C   C26       1.0  0.54718  0.25816  0.96197  1.0000
  C   C27       1.0  0.39287  0.79212  0.94615  1.0000
  C   C28       1.0  0.60713  0.20789  0.05385  1.0000
  C   C29       1.0  0.65771  0.70648  0.17426  1.0000
  C   C30       1.0  0.34229  0.29352  0.82574  1.0000
  C   C31       1.0  0.67833  0.57826  0.13081  1.0000
  C   C32       1.0  0.32167  0.42174  0.86919  1.0000
  I   I1        1.0  0.06798  0.71926  0.06954  1.0000
  I   I2        1.0  0.93201  0.28073  0.93046  1.0000
  I   I3        1.0  0.67672  0.54428  0.80287  1.0000
  I   I4        1.0  0.32329  0.45572  0.19713  1.0000
  I   I5        1.0  0.03559  0.56171  0.71210  1.0000
  I   I6        1.0  0.96441  0.43828  0.28791  1.0000
  I   I7        1.0  0.93813  0.93723  0.79233  1.0000
  I   I8        1.0  0.06187  0.06277  0.20768  1.0000
  I   I9        1.0  0.97140  0.78874  0.43604  1.0000
  I   I10       1.0  0.02860  0.21126  0.56397  1.0000
  N   N1        1.0  0.51350  0.00452  0.75327  1.0000
  N   N2        1.0  0.48650  0.99548  0.24673  1.0000
  N   N3        1.0  0.28729  0.91508  0.74622  1.0000
  N   N4        1.0  0.71271  0.08491  0.25378  1.0000
  N   N5        1.0  0.28599  0.99133  0.66686  1.0000
  N   N6        1.0  0.71401  0.00867  0.33314  1.0000
  N   N7        1.0  0.58234  0.28326  0.46366  1.0000
  N   N8        1.0  0.41766  0.71674  0.53634  1.0000
  N   N9        1.0  0.59513  0.76301  0.07695  1.0000
  N   N10       1.0  0.40487  0.23699  0.92305  1.0000
