data_image0
_chemical_formula_structural       CdH12C10N4O4
_chemical_formula_sum              "Cd1 H12 C10 N4 O4"
_cell_length_a       5.10584
_cell_length_b       6.89382
_cell_length_c       10.3913
_cell_angle_alpha    73.947
_cell_angle_beta     83.7933
_cell_angle_gamma    68.8057

_space_group_name_H-M_alt    "P 1"
_space_group_IT_number       1

loop_
  _space_group_symop_operation_xyz
  'x, y, z'

loop_
  _atom_site_type_symbol
  _atom_site_label
  _atom_site_symmetry_multiplicity
  _atom_site_fract_x
  _atom_site_fract_y
  _atom_site_fract_z
  _atom_site_occupancy
  Cd  Cd1       1.0  0.00001  0.00001  0.99998  1.0000
  H   H1        1.0  0.33615  0.20436  0.39481  1.0000
  H   H2        1.0  0.66383  0.79564  0.60520  1.0000
  H   H3        1.0  0.81746  0.85468  0.33817  1.0000
  H   H4        1.0  0.18259  0.14534  0.66181  1.0000
  H   H5        1.0  0.34871  0.17175  0.14795  1.0000
  H   H6        1.0  0.65129  0.82825  0.85206  1.0000
  H   H7        1.0  0.66800  0.46596  0.80768  1.0000
  H   H8        1.0  0.33197  0.53405  0.19230  1.0000
  H   H9        1.0  0.48744  0.39951  0.69668  1.0000
  H   H10       1.0  0.51258  0.60049  0.30334  1.0000
  H   H11       1.0  0.30708  0.62178  0.76460  1.0000
  H   H12       1.0  0.69298  0.37821  0.23538  1.0000
  C   C1        1.0  0.04047  0.01556  0.42976  1.0000
  C   C2        1.0  0.95948  0.98440  0.57019  1.0000
  C   C3        1.0  0.22012  0.12375  0.36095  1.0000
  C   C4        1.0  0.77990  0.87625  0.63904  1.0000
  C   C5        1.0  0.95475  0.94620  0.33078  1.0000
  C   C6        1.0  0.04522  0.05377  0.66922  1.0000
  C   C7        1.0  0.46651  0.45989  0.78608  1.0000
  C   C8        1.0  0.53352  0.54015  0.21390  1.0000
  C   C9        1.0  0.36495  0.31671  0.90306  1.0000
  C   C10       1.0  0.63507  0.68334  0.09691  1.0000
  N   N1        1.0  0.23200  0.11618  0.23212  1.0000
  N   N2        1.0  0.76799  0.88383  0.76789  1.0000
  N   N3        1.0  0.07189  0.00934  0.21225  1.0000
  N   N4        1.0  0.92805  0.99063  0.78783  1.0000
  O   O1        1.0  0.51391  0.22750  0.00986  1.0000
  O   O2        1.0  0.48606  0.77249  0.99014  1.0000
  O   O3        1.0  0.13538  0.29289  0.88929  1.0000
  O   O4        1.0  0.86463  0.70714  0.11073  1.0000
