data_image0
_chemical_formula_structural       Ag4H20C8N24
_chemical_formula_sum              "Ag4 H20 C8 N24"
_cell_length_a       6.99317
_cell_length_b       6.35982
_cell_length_c       14.3945
_cell_angle_alpha    90.0011
_cell_angle_beta     89.9967
_cell_angle_gamma    117.931

_space_group_name_H-M_alt    "P 1"
_space_group_IT_number       1

loop_
  _space_group_symop_operation_xyz
  'x, y, z'

loop_
  _atom_site_type_symbol
  _atom_site_label
  _atom_site_symmetry_multiplicity
  _atom_site_fract_x
  _atom_site_fract_y
  _atom_site_fract_z
  _atom_site_occupancy
  Ag  Ag1       1.0  0.56742  0.96679  0.72634  1.0000
  Ag  Ag2       1.0  0.43255  0.53317  0.22633  1.0000
  Ag  Ag3       1.0  0.43261  0.03320  0.27367  1.0000
  Ag  Ag4       1.0  0.56746  0.46684  0.77366  1.0000
  H   H1        1.0  0.85272  0.19982  0.54841  1.0000
  H   H2        1.0  0.14738  0.30026  0.04838  1.0000
  H   H3        1.0  0.14730  0.80022  0.45161  1.0000
  H   H4        1.0  0.85262  0.69973  0.95162  1.0000
  H   H5        1.0  0.85976  0.94630  0.57163  1.0000
  H   H6        1.0  0.14033  0.55374  0.07161  1.0000
  H   H7        1.0  0.14024  0.05374  0.42837  1.0000
  H   H8        1.0  0.85969  0.44626  0.92837  1.0000
  H   H9        1.0  0.38827  0.48756  0.62590  1.0000
  H   H10       1.0  0.61174  0.01243  0.12587  1.0000
  H   H11       1.0  0.61172  0.51247  0.37410  1.0000
  H   H12       1.0  0.38822  0.98755  0.87412  1.0000
  H   H13       1.0  0.23026  0.37748  0.52379  1.0000
  H   H14       1.0  0.76971  0.12257  0.02377  1.0000
  H   H15       1.0  0.76972  0.62252  0.47623  1.0000
  H   H16       1.0  0.23022  0.87740  0.97621  1.0000
  H   H17       1.0  0.33029  0.19874  0.58317  1.0000
  H   H18       1.0  0.66972  0.30129  0.08318  1.0000
  H   H19       1.0  0.66967  0.80121  0.41683  1.0000
  H   H20       1.0  0.33027  0.69874  0.91681  1.0000
  C   C1        1.0  0.06162  0.21468  0.73999  1.0000
  C   C2        1.0  0.93837  0.28532  0.24002  1.0000
  C   C3        1.0  0.93835  0.78531  0.25997  1.0000
  C   C4        1.0  0.06166  0.71469  0.76001  1.0000
  C   C5        1.0  0.26569  0.32584  0.59179  1.0000
  C   C6        1.0  0.73439  0.17423  0.09180  1.0000
  C   C7        1.0  0.73437  0.67418  0.40820  1.0000
  C   C8        1.0  0.26561  0.82576  0.90820  1.0000
  N   N1        1.0  0.87720  0.11793  0.79030  1.0000
  N   N2        1.0  0.12275  0.38202  0.29030  1.0000
  N   N3        1.0  0.12279  0.88207  0.20971  1.0000
  N   N4        1.0  0.87727  0.61798  0.70972  1.0000
  N   N5        1.0  0.93780  0.14887  0.88087  1.0000
  N   N6        1.0  0.06214  0.35105  0.38089  1.0000
  N   N7        1.0  0.06219  0.85110  0.11914  1.0000
  N   N8        1.0  0.93783  0.64895  0.61913  1.0000
  N   N9        1.0  0.14779  0.25715  0.88636  1.0000
  N   N10       1.0  0.85214  0.24278  0.38637  1.0000
  N   N11       1.0  0.85220  0.74283  0.11363  1.0000
  N   N12       1.0  0.14784  0.75722  0.61364  1.0000
  N   N13       1.0  0.23302  0.30081  0.79864  1.0000
  N   N14       1.0  0.76695  0.19915  0.29867  1.0000
  N   N15       1.0  0.76694  0.69919  0.20135  1.0000
  N   N16       1.0  0.23306  0.80085  0.70133  1.0000
  N   N17       1.0  0.06683  0.22588  0.64587  1.0000
  N   N18       1.0  0.93325  0.27419  0.14588  1.0000
  N   N19       1.0  0.93320  0.77413  0.35412  1.0000
  N   N20       1.0  0.06677  0.72578  0.85413  1.0000
  N   N21       1.0  0.86626  0.09723  0.60038  1.0000
  N   N22       1.0  0.13383  0.40282  0.10038  1.0000
  N   N23       1.0  0.13377  0.90280  0.39962  1.0000
  N   N24       1.0  0.86617  0.59718  0.89963  1.0000
