data_image0
_chemical_formula_structural       Sn4H60C48O8F4
_chemical_formula_sum              "Sn4 H60 C48 O8 F4"
_cell_length_a       9.81763
_cell_length_b       11.628
_cell_length_c       12.2923
_cell_angle_alpha    96.9367
_cell_angle_beta     90
_cell_angle_gamma    90

_space_group_name_H-M_alt    "P 1"
_space_group_IT_number       1

loop_
  _space_group_symop_operation_xyz
  'x, y, z'

loop_
  _atom_site_type_symbol
  _atom_site_label
  _atom_site_symmetry_multiplicity
  _atom_site_fract_x
  _atom_site_fract_y
  _atom_site_fract_z
  _atom_site_occupancy
  Sn  Sn1       1.0  0.57435  0.56465  0.73725  1.0000
  Sn  Sn2       1.0  0.07435  0.43535  0.76275  1.0000
  Sn  Sn3       1.0  0.42565  0.43535  0.26275  1.0000
  Sn  Sn4       1.0  0.92565  0.56465  0.23725  1.0000
  H   H1        1.0  0.07284  0.65956  0.63566  1.0000
  H   H2        1.0  0.57284  0.34044  0.86434  1.0000
  H   H3        1.0  0.92716  0.34044  0.36434  1.0000
  H   H4        1.0  0.42715  0.65956  0.13565  1.0000
  H   H5        1.0  0.86697  0.86025  0.66768  1.0000
  H   H6        1.0  0.36697  0.13975  0.83232  1.0000
  H   H7        1.0  0.13303  0.13975  0.33232  1.0000
  H   H8        1.0  0.63303  0.86024  0.16768  1.0000
  H   H9        1.0  0.19319  0.76155  0.52055  1.0000
  H   H10       1.0  0.69320  0.23845  0.97946  1.0000
  H   H11       1.0  0.80681  0.23845  0.47946  1.0000
  H   H12       1.0  0.30680  0.76155  0.02054  1.0000
  H   H13       1.0  0.37578  0.89686  0.47497  1.0000
  H   H14       1.0  0.87578  0.10314  0.02504  1.0000
  H   H15       1.0  0.62422  0.10314  0.52503  1.0000
  H   H16       1.0  0.12422  0.89686  0.97496  1.0000
  H   H17       1.0  0.16435  0.18198  0.65718  1.0000
  H   H18       1.0  0.66436  0.81802  0.84282  1.0000
  H   H19       1.0  0.83564  0.81802  0.34281  1.0000
  H   H20       1.0  0.33565  0.18198  0.15718  1.0000
  H   H21       1.0  0.97745  0.04795  0.69941  1.0000
  H   H22       1.0  0.47746  0.95205  0.80059  1.0000
  H   H23       1.0  0.02254  0.95206  0.30059  1.0000
  H   H24       1.0  0.52254  0.04794  0.19941  1.0000
  H   H25       1.0  0.57498  0.56124  0.95800  1.0000
  H   H26       1.0  0.07497  0.43875  0.54199  1.0000
  H   H27       1.0  0.42502  0.43875  0.04200  1.0000
  H   H28       1.0  0.92502  0.56125  0.45800  1.0000
  H   H29       1.0  0.71379  0.64903  0.92257  1.0000
  H   H30       1.0  0.21379  0.35096  0.57743  1.0000
  H   H31       1.0  0.28621  0.35096  0.07743  1.0000
  H   H32       1.0  0.78621  0.64904  0.42257  1.0000
  H   H33       1.0  0.72871  0.49572  0.90123  1.0000
  H   H34       1.0  0.22871  0.50428  0.59877  1.0000
  H   H35       1.0  0.27129  0.50428  0.09877  1.0000
  H   H36       1.0  0.77128  0.49572  0.40122  1.0000
  H   H37       1.0  0.47960  0.75522  0.65330  1.0000
  H   H38       1.0  0.97960  0.24478  0.84670  1.0000
  H   H39       1.0  0.52041  0.24478  0.34670  1.0000
  H   H40       1.0  0.02041  0.75522  0.15330  1.0000
  H   H41       1.0  0.40658  0.75049  0.78653  1.0000
  H   H42       1.0  0.90658  0.24951  0.71347  1.0000
  H   H43       1.0  0.59343  0.24951  0.21347  1.0000
  H   H44       1.0  0.09343  0.75049  0.28653  1.0000
  H   H45       1.0  0.33999  0.66003  0.67164  1.0000
  H   H46       1.0  0.83999  0.33997  0.82837  1.0000
  H   H47       1.0  0.66002  0.33997  0.32837  1.0000
  H   H48       1.0  0.16001  0.66003  0.17163  1.0000
  H   H49       1.0  0.50945  0.39419  0.57283  1.0000
  H   H50       1.0  0.00945  0.60580  0.92716  1.0000
  H   H51       1.0  0.49055  0.60580  0.42716  1.0000
  H   H52       1.0  0.99055  0.39420  0.07284  1.0000
  H   H53       1.0  0.65338  0.35052  0.64778  1.0000
  H   H54       1.0  0.15339  0.64948  0.85221  1.0000
  H   H55       1.0  0.34661  0.64948  0.35221  1.0000
  H   H56       1.0  0.84661  0.35052  0.14779  1.0000
  H   H57       1.0  0.67630  0.45071  0.54996  1.0000
  H   H58       1.0  0.17630  0.54929  0.95004  1.0000
  H   H59       1.0  0.32370  0.54929  0.45004  1.0000
  H   H60       1.0  0.82370  0.45071  0.04996  1.0000
  C   C1        1.0  0.86146  0.63430  0.68297  1.0000
  C   C2        1.0  0.36146  0.36570  0.81703  1.0000
  C   C3        1.0  0.13854  0.36570  0.31703  1.0000
  C   C4        1.0  0.63854  0.63430  0.18297  1.0000
  C   C5        1.0  0.97630  0.70482  0.65149  1.0000
  C   C6        1.0  0.47631  0.29518  0.84852  1.0000
  C   C7        1.0  0.02370  0.29518  0.34851  1.0000
  C   C8        1.0  0.52369  0.70482  0.15148  1.0000
  C   C9        1.0  0.96509  0.81942  0.64537  1.0000
  C   C10       1.0  0.46509  0.18058  0.85463  1.0000
  C   C11       1.0  0.03491  0.18058  0.35463  1.0000
  C   C12       1.0  0.53491  0.81941  0.14537  1.0000
  C   C13       1.0  0.07310  0.89513  0.61487  1.0000
  C   C14       1.0  0.57310  0.10487  0.88514  1.0000
  C   C15       1.0  0.92690  0.10487  0.38513  1.0000
  C   C16       1.0  0.42690  0.89513  0.11486  1.0000
  C   C17       1.0  0.18601  0.85338  0.55114  1.0000
  C   C18       1.0  0.68602  0.14662  0.94888  1.0000
  C   C19       1.0  0.81398  0.14662  0.44886  1.0000
  C   C20       1.0  0.31398  0.85338  0.05113  1.0000
  C   C21       1.0  0.28832  0.92800  0.52453  1.0000
  C   C22       1.0  0.78832  0.07200  0.97547  1.0000
  C   C23       1.0  0.71168  0.07200  0.47547  1.0000
  C   C24       1.0  0.21168  0.92800  0.02453  1.0000
  C   C25       1.0  0.27687  0.04508  0.56378  1.0000
  C   C26       1.0  0.77688  0.95492  0.93623  1.0000
  C   C27       1.0  0.72313  0.95492  0.43622  1.0000
  C   C28       1.0  0.22313  0.04508  0.06378  1.0000
  C   C29       1.0  0.16740  0.09023  0.62667  1.0000
  C   C30       1.0  0.66739  0.90977  0.87334  1.0000
  C   C31       1.0  0.83260  0.90977  0.37333  1.0000
  C   C32       1.0  0.33260  0.09023  0.12667  1.0000
  C   C33       1.0  0.06487  0.01458  0.65063  1.0000
  C   C34       1.0  0.56487  0.98543  0.84938  1.0000
  C   C35       1.0  0.93513  0.98542  0.34937  1.0000
  C   C36       1.0  0.43513  0.01458  0.15063  1.0000
  C   C37       1.0  0.65784  0.56819  0.89957  1.0000
  C   C38       1.0  0.15784  0.43181  0.60043  1.0000
  C   C39       1.0  0.34216  0.43181  0.10043  1.0000
  C   C40       1.0  0.84216  0.56819  0.39957  1.0000
  C   C41       1.0  0.43309  0.69918  0.70854  1.0000
  C   C42       1.0  0.93308  0.30082  0.79146  1.0000
  C   C43       1.0  0.56692  0.30082  0.29146  1.0000
  C   C44       1.0  0.06692  0.69918  0.20854  1.0000
  C   C45       1.0  0.60669  0.42227  0.61098  1.0000
  C   C46       1.0  0.10669  0.57773  0.88901  1.0000
  C   C47       1.0  0.39331  0.57773  0.38901  1.0000
  C   C48       1.0  0.89331  0.42227  0.11099  1.0000
  O   O1        1.0  0.74108  0.67814  0.68409  1.0000
  O   O2        1.0  0.24108  0.32186  0.81592  1.0000
  O   O3        1.0  0.25892  0.32186  0.31591  1.0000
  O   O4        1.0  0.75892  0.67814  0.18408  1.0000
  O   O5        1.0  0.88217  0.53209  0.70733  1.0000
  O   O6        1.0  0.38217  0.46790  0.79266  1.0000
  O   O7        1.0  0.11783  0.46790  0.29266  1.0000
  O   O8        1.0  0.61783  0.53210  0.20733  1.0000
  F   F1        1.0  0.37726  0.11937  0.53901  1.0000
  F   F2        1.0  0.87727  0.88062  0.96100  1.0000
  F   F3        1.0  0.62274  0.88062  0.46099  1.0000
  F   F4        1.0  0.12274  0.11938  0.03900  1.0000
