data_image0
_chemical_formula_structural       Cd4H20C20N8O20
_chemical_formula_sum              "Cd4 H20 C20 N8 O20"
_cell_length_a       6.96865
_cell_length_b       9.91118
_cell_length_c       11.118
_cell_angle_alpha    96.4742
_cell_angle_beta     89.9995
_cell_angle_gamma    90

_space_group_name_H-M_alt    "P 1"
_space_group_IT_number       1

loop_
  _space_group_symop_operation_xyz
  'x, y, z'

loop_
  _atom_site_type_symbol
  _atom_site_label
  _atom_site_symmetry_multiplicity
  _atom_site_fract_x
  _atom_site_fract_y
  _atom_site_fract_z
  _atom_site_occupancy
  Cd  Cd1       1.0  0.17235  0.53280  0.32339  1.0000
  Cd  Cd2       1.0  0.67234  0.96719  0.17662  1.0000
  Cd  Cd3       1.0  0.82765  0.46720  0.67662  1.0000
  Cd  Cd4       1.0  0.32765  0.03280  0.82338  1.0000
  H   H1        1.0  0.87428  0.33954  0.36302  1.0000
  H   H2        1.0  0.37427  0.16047  0.13698  1.0000
  H   H3        1.0  0.12573  0.66047  0.63698  1.0000
  H   H4        1.0  0.62573  0.83953  0.86302  1.0000
  H   H5        1.0  0.96552  0.25458  0.24327  1.0000
  H   H6        1.0  0.46553  0.24541  0.25672  1.0000
  H   H7        1.0  0.03448  0.74542  0.75673  1.0000
  H   H8        1.0  0.53447  0.75458  0.74328  1.0000
  H   H9        1.0  0.71359  0.10344  0.65485  1.0000
  H   H10       1.0  0.21358  0.39656  0.84515  1.0000
  H   H11       1.0  0.28640  0.89658  0.34515  1.0000
  H   H12       1.0  0.78641  0.60343  0.15485  1.0000
  H   H13       1.0  0.85361  0.85293  0.62395  1.0000
  H   H14       1.0  0.35360  0.64706  0.87605  1.0000
  H   H15       1.0  0.14639  0.14708  0.37605  1.0000
  H   H16       1.0  0.64639  0.35293  0.12395  1.0000
  H   H17       1.0  0.62886  0.18319  0.45888  1.0000
  H   H18       1.0  0.12886  0.31681  0.04111  1.0000
  H   H19       1.0  0.37114  0.81682  0.54110  1.0000
  H   H20       1.0  0.87115  0.68318  0.95889  1.0000
  C   C1        1.0  0.85764  0.75428  0.35208  1.0000
  C   C2        1.0  0.35764  0.74572  0.14792  1.0000
  C   C3        1.0  0.14236  0.24572  0.64792  1.0000
  C   C4        1.0  0.64236  0.25428  0.85208  1.0000
  C   C5        1.0  0.79595  0.87733  0.42890  1.0000
  C   C6        1.0  0.29595  0.62266  0.07110  1.0000
  C   C7        1.0  0.20405  0.12268  0.57110  1.0000
  C   C8        1.0  0.70405  0.37733  0.92890  1.0000
  C   C9        1.0  0.80432  0.91085  0.55303  1.0000
  C   C10       1.0  0.30431  0.58914  0.94697  1.0000
  C   C11       1.0  0.19569  0.08916  0.44697  1.0000
  C   C12       1.0  0.69568  0.41084  0.05303  1.0000
  C   C13       1.0  0.68596  0.08310  0.46675  1.0000
  C   C14       1.0  0.18595  0.41689  0.03325  1.0000
  C   C15       1.0  0.31405  0.91690  0.53324  1.0000
  C   C16       1.0  0.81405  0.58310  0.96676  1.0000
  C   C17       1.0  0.54444  0.44321  0.45387  1.0000
  C   C18       1.0  0.04443  0.05680  0.04613  1.0000
  C   C19       1.0  0.45557  0.55680  0.54613  1.0000
  C   C20       1.0  0.95556  0.94320  0.95387  1.0000
  N   N1        1.0  0.72169  0.98671  0.37703  1.0000
  N   N2        1.0  0.22169  0.51328  0.12297  1.0000
  N   N3        1.0  0.27831  0.01330  0.62297  1.0000
  N   N4        1.0  0.77831  0.48671  0.87703  1.0000
  N   N5        1.0  0.73478  0.04042  0.57412  1.0000
  N   N6        1.0  0.23477  0.45957  0.92588  1.0000
  N   N7        1.0  0.26522  0.95959  0.42587  1.0000
  N   N8        1.0  0.76522  0.54041  0.07413  1.0000
  O   O1        1.0  0.92815  0.65787  0.40512  1.0000
  O   O2        1.0  0.42814  0.84212  0.09487  1.0000
  O   O3        1.0  0.07186  0.34214  0.59488  1.0000
  O   O4        1.0  0.57186  0.15786  0.90512  1.0000
  O   O5        1.0  0.97868  0.33627  0.30244  1.0000
  O   O6        1.0  0.47867  0.16373  0.19756  1.0000
  O   O7        1.0  0.02133  0.66373  0.69756  1.0000
  O   O8        1.0  0.52133  0.83628  0.80243  1.0000
  O   O9        1.0  0.83814  0.75357  0.23778  1.0000
  O   O10       1.0  0.33813  0.74643  0.26222  1.0000
  O   O11       1.0  0.16185  0.24642  0.76222  1.0000
  O   O12       1.0  0.66186  0.25357  0.73779  1.0000
  O   O13       1.0  0.44985  0.40455  0.35868  1.0000
  O   O14       1.0  0.94983  0.09545  0.14132  1.0000
  O   O15       1.0  0.55015  0.59545  0.64133  1.0000
  O   O16       1.0  0.05015  0.90455  0.85868  1.0000
  O   O17       1.0  0.70567  0.39573  0.48071  1.0000
  O   O18       1.0  0.20565  0.10428  0.01929  1.0000
  O   O19       1.0  0.29435  0.60428  0.51929  1.0000
  O   O20       1.0  0.79434  0.89572  0.98071  1.0000
