data_image0
_chemical_formula_structural       Cu2H64C54I2N8
_chemical_formula_sum              "Cu2 H64 C54 I2 N8"
_cell_length_a       9.95204
_cell_length_b       12.1237
_cell_length_c       12.962
_cell_angle_alpha    103.463
_cell_angle_beta     111.431
_cell_angle_gamma    109.075

_space_group_name_H-M_alt    "P 1"
_space_group_IT_number       1

loop_
  _space_group_symop_operation_xyz
  'x, y, z'

loop_
  _atom_site_type_symbol
  _atom_site_label
  _atom_site_symmetry_multiplicity
  _atom_site_fract_x
  _atom_site_fract_y
  _atom_site_fract_z
  _atom_site_occupancy
  Cu  Cu1       1.0  0.12872  0.11588  0.55957  1.0000
  Cu  Cu2       1.0  0.87128  0.88412  0.44043  1.0000
  H   H1        1.0  0.06713  0.28556  0.43638  1.0000
  H   H2        1.0  0.93287  0.71444  0.56362  1.0000
  H   H3        1.0  0.19700  0.41647  0.34563  1.0000
  H   H4        1.0  0.80300  0.58353  0.65438  1.0000
  H   H5        1.0  0.54856  0.27130  0.42435  1.0000
  H   H6        1.0  0.45144  0.72870  0.57565  1.0000
  H   H7        1.0  0.40529  0.14782  0.51347  1.0000
  H   H8        1.0  0.59471  0.85218  0.48653  1.0000
  H   H9        1.0  0.59232  0.45484  0.36107  1.0000
  H   H10       1.0  0.40768  0.54516  0.63894  1.0000
  H   H11       1.0  0.45089  0.51740  0.33295  1.0000
  H   H12       1.0  0.54910  0.48260  0.66705  1.0000
  H   H13       1.0  0.38864  0.25966  0.16549  1.0000
  H   H14       1.0  0.61136  0.74034  0.83451  1.0000
  H   H15       1.0  0.25449  0.32845  0.13977  1.0000
  H   H16       1.0  0.74551  0.67155  0.86023  1.0000
  H   H17       1.0  0.46140  0.51758  0.14442  1.0000
  H   H18       1.0  0.53860  0.48242  0.85558  1.0000
  H   H19       1.0  0.59643  0.44892  0.16728  1.0000
  H   H20       1.0  0.40357  0.55108  0.83271  1.0000
  H   H21       1.0  0.19254  0.40656  0.94512  1.0000
  H   H22       1.0  0.80746  0.59344  0.05488  1.0000
  H   H23       1.0  0.06377  0.27876  0.72525  1.0000
  H   H24       1.0  0.93623  0.72124  0.27475  1.0000
  H   H25       1.0  0.41864  0.15889  0.77256  1.0000
  H   H26       1.0  0.58136  0.84111  0.22744  1.0000
  H   H27       1.0  0.56424  0.28327  0.99552  1.0000
  H   H28       1.0  0.43576  0.71673  0.00448  1.0000
  H   H29       1.0  0.49909  0.02194  0.62608  1.0000
  H   H30       1.0  0.50091  0.97806  0.37392  1.0000
  H   H31       1.0  0.68648  0.07985  0.63800  1.0000
  H   H32       1.0  0.31352  0.92016  0.36200  1.0000
  H   H33       1.0  0.82380  0.06132  0.19079  1.0000
  H   H34       1.0  0.17620  0.93868  0.80921  1.0000
  H   H35       1.0  0.00992  0.09151  0.18921  1.0000
  H   H36       1.0  0.99008  0.90849  0.81079  1.0000
  H   H37       1.0  0.85570  0.93347  0.12672  1.0000
  H   H38       1.0  0.14430  0.06653  0.87328  1.0000
  H   H39       1.0  0.56049  0.94475  0.97391  1.0000
  H   H40       1.0  0.43951  0.05525  0.02609  1.0000
  H   H41       1.0  0.44735  0.96197  0.77699  1.0000
  H   H42       1.0  0.55265  0.03803  0.22301  1.0000
  H   H43       1.0  0.93040  0.15158  0.82897  1.0000
  H   H44       1.0  0.06960  0.84842  0.17103  1.0000
  H   H45       1.0  0.04189  0.13406  0.02555  1.0000
  H   H46       1.0  0.95811  0.86594  0.97445  1.0000
  H   H47       1.0  0.68626  0.27139  0.76390  1.0000
  H   H48       1.0  0.31373  0.72861  0.23610  1.0000
  H   H49       1.0  0.76765  0.38946  0.90179  1.0000
  H   H50       1.0  0.23234  0.61054  0.09821  1.0000
  H   H51       1.0  0.23001  0.62272  0.64664  1.0000
  H   H52       1.0  0.76999  0.37727  0.35336  1.0000
  H   H53       1.0  0.34651  0.73041  0.80119  1.0000
  H   H54       1.0  0.65349  0.26959  0.19881  1.0000
  H   H55       1.0  0.19070  0.75063  0.69925  1.0000
  H   H56       1.0  0.80930  0.24937  0.30075  1.0000
  H   H57       1.0  0.18468  0.73615  0.92517  1.0000
  H   H58       1.0  0.81532  0.26384  0.07484  1.0000
  H   H59       1.0  0.98035  0.60403  0.96510  1.0000
  H   H60       1.0  0.01965  0.39597  0.03490  1.0000
  H   H61       1.0  0.78225  0.29822  0.62075  1.0000
  H   H62       1.0  0.21775  0.70178  0.37925  1.0000
  H   H63       1.0  0.98888  0.43046  0.58234  1.0000
  H   H64       1.0  0.01112  0.56954  0.41766  1.0000
  C   C1        1.0  0.17472  0.28569  0.43218  1.0000
  C   C2        1.0  0.82528  0.71431  0.56781  1.0000
  C   C3        1.0  0.24721  0.35769  0.38118  1.0000
  C   C4        1.0  0.75279  0.64231  0.61882  1.0000
  C   C5        1.0  0.38459  0.35503  0.37667  1.0000
  C   C6        1.0  0.61541  0.64497  0.62333  1.0000
  C   C7        1.0  0.44178  0.27745  0.42482  1.0000
  C   C8        1.0  0.55822  0.72255  0.57518  1.0000
  C   C9        1.0  0.36284  0.20843  0.47471  1.0000
  C   C10       1.0  0.63716  0.79158  0.52529  1.0000
  C   C11       1.0  0.46221  0.42846  0.31866  1.0000
  C   C12       1.0  0.53779  0.57154  0.68134  1.0000
  C   C13       1.0  0.38369  0.35126  0.18232  1.0000
  C   C14       1.0  0.61631  0.64874  0.81768  1.0000
  C   C15       1.0  0.46754  0.42656  0.12501  1.0000
  C   C16       1.0  0.53246  0.57344  0.87499  1.0000
  C   C17       1.0  0.38981  0.35485  0.99118  1.0000
  C   C18       1.0  0.61020  0.64515  0.00882  1.0000
  C   C19       1.0  0.24722  0.35228  0.91171  1.0000
  C   C20       1.0  0.75279  0.64773  0.08829  1.0000
  C   C21       1.0  0.17449  0.28148  0.78838  1.0000
  C   C22       1.0  0.82551  0.71852  0.21162  1.0000
  C   C23       1.0  0.37284  0.21548  0.81475  1.0000
  C   C24       1.0  0.62716  0.78452  0.18525  1.0000
  C   C25       1.0  0.45247  0.28427  0.93913  1.0000
  C   C26       1.0  0.54753  0.71573  0.06087  1.0000
  C   C27       1.0  0.87850  0.03138  0.13669  1.0000
  C   C28       1.0  0.12150  0.96862  0.86331  1.0000
  C   C29       1.0  0.81027  0.03954  0.01597  1.0000
  C   C30       1.0  0.18973  0.96046  0.98403  1.0000
  C   C31       1.0  0.64280  0.99105  0.94291  1.0000
  C   C32       1.0  0.35720  0.00895  0.05709  1.0000
  C   C33       1.0  0.57833  0.00080  0.83202  1.0000
  C   C34       1.0  0.42167  0.99920  0.16799  1.0000
  C   C35       1.0  0.68127  0.05985  0.78968  1.0000
  C   C36       1.0  0.31873  0.94015  0.21032  1.0000
  C   C37       1.0  0.84885  0.10669  0.86101  1.0000
  C   C38       1.0  0.15115  0.89331  0.13899  1.0000
  C   C39       1.0  0.91110  0.09647  0.97167  1.0000
  C   C40       1.0  0.08890  0.90353  0.02833  1.0000
  C   C41       1.0  0.22386  0.67840  0.72331  1.0000
  C   C42       1.0  0.77614  0.32160  0.27669  1.0000
  C   C43       1.0  0.10394  0.59441  0.75029  1.0000
  C   C44       1.0  0.89606  0.40559  0.24971  1.0000
  C   C45       1.0  0.09874  0.63912  0.85826  1.0000
  C   C46       1.0  0.90126  0.36088  0.14174  1.0000
  C   C47       1.0  0.98217  0.56448  0.88112  1.0000
  C   C48       1.0  0.01783  0.43552  0.11888  1.0000
  C   C49       1.0  0.86386  0.44032  0.79577  1.0000
  C   C50       1.0  0.13614  0.55968  0.20423  1.0000
  C   C51       1.0  0.86997  0.39453  0.68805  1.0000
  C   C52       1.0  0.13003  0.60547  0.31195  1.0000
  C   C53       1.0  0.98787  0.47012  0.66677  1.0000
  C   C54       1.0  0.01213  0.52987  0.33323  1.0000
  I   I1        1.0  0.17364  0.90997  0.52646  1.0000
  I   I2        1.0  0.82636  0.09003  0.47354  1.0000
  N   N1        1.0  0.23023  0.21114  0.47875  1.0000
  N   N2        1.0  0.76977  0.78887  0.52125  1.0000
  N   N3        1.0  0.23467  0.21261  0.73900  1.0000
  N   N4        1.0  0.76534  0.78739  0.26100  1.0000
  N   N5        1.0  0.62046  0.07907  0.68285  1.0000
  N   N6        1.0  0.37954  0.92093  0.31715  1.0000
  N   N7        1.0  0.74150  0.36771  0.81400  1.0000
  N   N8        1.0  0.25850  0.63229  0.18600  1.0000
