data_image0
_chemical_formula_structural       Cu6H8C16N14
_chemical_formula_sum              "Cu6 H8 C16 N14"
_cell_length_a       8.46743
_cell_length_b       8.46748
_cell_length_c       8.62304
_cell_angle_alpha    63.7026
_cell_angle_beta     63.7025
_cell_angle_gamma    88.8011

_space_group_name_H-M_alt    "P 1"
_space_group_IT_number       1

loop_
  _space_group_symop_operation_xyz
  'x, y, z'

loop_
  _atom_site_type_symbol
  _atom_site_label
  _atom_site_symmetry_multiplicity
  _atom_site_fract_x
  _atom_site_fract_y
  _atom_site_fract_z
  _atom_site_occupancy
  Cu  Cu1       1.0  0.71842  0.91456  0.40610  1.0000
  Cu  Cu2       1.0  0.08544  0.28158  0.09390  1.0000
  Cu  Cu3       1.0  0.28158  0.08544  0.59390  1.0000
  Cu  Cu4       1.0  0.91456  0.71842  0.90609  1.0000
  Cu  Cu5       1.0  0.94648  0.05353  0.75000  1.0000
  Cu  Cu6       1.0  0.05352  0.94647  0.25000  1.0000
  H   H1        1.0  0.63756  0.09983  0.05603  1.0000
  H   H2        1.0  0.90017  0.36244  0.44398  1.0000
  H   H3        1.0  0.36244  0.90017  0.94397  1.0000
  H   H4        1.0  0.09983  0.63756  0.55602  1.0000
  H   H5        1.0  0.42047  0.30269  0.06955  1.0000
  H   H6        1.0  0.69731  0.57953  0.43045  1.0000
  H   H7        1.0  0.57954  0.69732  0.93045  1.0000
  H   H8        1.0  0.30269  0.42047  0.56955  1.0000
  C   C1        1.0  0.64537  0.20772  0.92093  1.0000
  C   C2        1.0  0.79228  0.35463  0.57908  1.0000
  C   C3        1.0  0.35463  0.79229  0.07907  1.0000
  C   C4        1.0  0.20772  0.64536  0.42093  1.0000
  C   C5        1.0  0.52528  0.32172  0.92733  1.0000
  C   C6        1.0  0.67828  0.47472  0.57268  1.0000
  C   C7        1.0  0.47472  0.67828  0.07267  1.0000
  C   C8        1.0  0.32172  0.52528  0.42733  1.0000
  C   C9        1.0  0.54097  0.45903  0.75000  1.0000
  C   C10       1.0  0.45903  0.54097  0.25000  1.0000
  C   C11       1.0  0.41758  0.58242  0.75000  1.0000
  C   C12       1.0  0.58242  0.41758  0.25000  1.0000
  C   C13       1.0  0.83604  0.86556  0.03493  1.0000
  C   C14       1.0  0.13444  0.16396  0.46507  1.0000
  C   C15       1.0  0.16397  0.13444  0.96507  1.0000
  C   C16       1.0  0.86556  0.83604  0.53493  1.0000
  N   N1        1.0  0.46664  0.76231  0.62734  1.0000
  N   N2        1.0  0.23768  0.53336  0.87266  1.0000
  N   N3        1.0  0.53336  0.23769  0.37266  1.0000
  N   N4        1.0  0.76232  0.46664  0.12733  1.0000
  N   N5        1.0  0.31407  0.82356  0.67725  1.0000
  N   N6        1.0  0.17643  0.68593  0.82275  1.0000
  N   N7        1.0  0.68593  0.17644  0.32275  1.0000
  N   N8        1.0  0.82357  0.31408  0.17724  1.0000
  N   N9        1.0  0.77750  0.22249  0.75000  1.0000
  N   N10       1.0  0.22249  0.77751  0.25000  1.0000
  N   N11       1.0  0.76796  0.87591  0.18267  1.0000
  N   N12       1.0  0.12408  0.23204  0.31733  1.0000
  N   N13       1.0  0.23205  0.12409  0.81733  1.0000
  N   N14       1.0  0.87592  0.76796  0.68267  1.0000
