data_image0
_chemical_formula_structural       K2H48C40I4Cl2O12F36
_chemical_formula_sum              "K2 H48 C40 I4 Cl2 O12 F36"
_cell_length_a       9.78345
_cell_length_b       12.2102
_cell_length_c       15.2514
_cell_angle_alpha    104.91
_cell_angle_beta     108.698
_cell_angle_gamma    90.0026

_space_group_name_H-M_alt    "P 1"
_space_group_IT_number       1

loop_
  _space_group_symop_operation_xyz
  'x, y, z'

loop_
  _atom_site_type_symbol
  _atom_site_label
  _atom_site_symmetry_multiplicity
  _atom_site_fract_x
  _atom_site_fract_y
  _atom_site_fract_z
  _atom_site_occupancy
  K   K1        1.0  0.50000  0.50000  1.00000  1.0000
  K   K2        1.0  0.50000  0.00000  1.00000  1.0000
  H   H1        1.0  0.67342  0.69477  0.90124  1.0000
  H   H2        1.0  0.77218  0.80523  0.09876  1.0000
  H   H3        1.0  0.32658  0.30523  0.09876  1.0000
  H   H4        1.0  0.22782  0.19477  0.90123  1.0000
  H   H5        1.0  0.74861  0.60834  0.81703  1.0000
  H   H6        1.0  0.93158  0.89166  0.18297  1.0000
  H   H7        1.0  0.25139  0.39166  0.18297  1.0000
  H   H8        1.0  0.06842  0.10834  0.81703  1.0000
  H   H9        1.0  0.50530  0.54321  0.70624  1.0000
  H   H10       1.0  0.79906  0.95679  0.29376  1.0000
  H   H11       1.0  0.49470  0.45679  0.29376  1.0000
  H   H12       1.0  0.20094  0.04321  0.70624  1.0000
  H   H13       1.0  0.43239  0.62961  0.79211  1.0000
  H   H14       1.0  0.64028  0.87037  0.20788  1.0000
  H   H15       1.0  0.56761  0.37039  0.20789  1.0000
  H   H16       1.0  0.35972  0.12963  0.79212  1.0000
  H   H17       1.0  0.90271  0.48672  0.10145  1.0000
  H   H18       1.0  0.80127  0.01326  0.89855  1.0000
  H   H19       1.0  0.09728  0.51328  0.89855  1.0000
  H   H20       1.0  0.19873  0.98674  0.10145  1.0000
  H   H21       1.0  0.99074  0.62810  0.13921  1.0000
  H   H22       1.0  0.85152  0.87188  0.86079  1.0000
  H   H23       1.0  0.00926  0.37190  0.86079  1.0000
  H   H24       1.0  0.14848  0.12812  0.13921  1.0000
  H   H25       1.0  0.92641  0.63708  0.97379  1.0000
  H   H26       1.0  0.95261  0.86291  0.02621  1.0000
  H   H27       1.0  0.07359  0.36292  0.02621  1.0000
  H   H28       1.0  0.04739  0.13709  0.97379  1.0000
  H   H29       1.0  0.84811  0.49287  0.93725  1.0000
  H   H30       1.0  0.91085  0.00713  0.06274  1.0000
  H   H31       1.0  0.15189  0.50713  0.06275  1.0000
  H   H32       1.0  0.08915  0.99287  0.93725  1.0000
  H   H33       1.0  0.38578  0.36850  0.72004  1.0000
  H   H34       1.0  0.66574  0.13149  0.27995  1.0000
  H   H35       1.0  0.61422  0.63150  0.27996  1.0000
  H   H36       1.0  0.33426  0.86851  0.72005  1.0000
  H   H37       1.0  0.26044  0.46515  0.67652  1.0000
  H   H38       1.0  0.58392  0.03484  0.32348  1.0000
  H   H39       1.0  0.73956  0.53485  0.32348  1.0000
  H   H40       1.0  0.41608  0.96516  0.67652  1.0000
  H   H41       1.0  0.91717  0.59055  0.26781  1.0000
  H   H42       1.0  0.64936  0.90944  0.73220  1.0000
  H   H43       1.0  0.08283  0.40945  0.73220  1.0000
  H   H44       1.0  0.35064  0.09056  0.26780  1.0000
  H   H45       1.0  0.81207  0.69700  0.22395  1.0000
  H   H46       1.0  0.58811  0.80299  0.77605  1.0000
  H   H47       1.0  0.18793  0.30300  0.77605  1.0000
  H   H48       1.0  0.41189  0.19701  0.22395  1.0000
  C   C1        1.0  0.26219  0.79876  0.31729  1.0000
  C   C2        1.0  0.94496  0.70126  0.68271  1.0000
  C   C3        1.0  0.73781  0.20124  0.68271  1.0000
  C   C4        1.0  0.05504  0.29874  0.31729  1.0000
  C   C5        1.0  0.30171  0.69804  0.36332  1.0000
  C   C6        1.0  0.93838  0.80197  0.63668  1.0000
  C   C7        1.0  0.69829  0.30196  0.63668  1.0000
  C   C8        1.0  0.06162  0.19803  0.36332  1.0000
  C   C9        1.0  0.25342  0.70261  0.45303  1.0000
  C   C10       1.0  0.80041  0.79738  0.54697  1.0000
  C   C11       1.0  0.74658  0.29739  0.54697  1.0000
  C   C12       1.0  0.19959  0.20262  0.45303  1.0000
  C   C13       1.0  0.33557  0.62666  0.51826  1.0000
  C   C14       1.0  0.81733  0.87332  0.48173  1.0000
  C   C15       1.0  0.66443  0.37334  0.48174  1.0000
  C   C16       1.0  0.18267  0.12668  0.51827  1.0000
  C   C17       1.0  0.70732  0.60923  0.87665  1.0000
  C   C18       1.0  0.83067  0.89076  0.12336  1.0000
  C   C19       1.0  0.29268  0.39077  0.12335  1.0000
  C   C20       1.0  0.16933  0.10924  0.87664  1.0000
  C   C21       1.0  0.47024  0.54513  0.76865  1.0000
  C   C22       1.0  0.70159  0.95484  0.23135  1.0000
  C   C23       1.0  0.52976  0.45487  0.23135  1.0000
  C   C24       1.0  0.29841  0.04516  0.76865  1.0000
  C   C25       1.0  0.88611  0.57818  0.12028  1.0000
  C   C26       1.0  0.76580  0.92180  0.87971  1.0000
  C   C27       1.0  0.11389  0.42182  0.87972  1.0000
  C   C28       1.0  0.23420  0.07820  0.12029  1.0000
  C   C29       1.0  0.82596  0.58297  0.95790  1.0000
  C   C30       1.0  0.86806  0.91702  0.04210  1.0000
  C   C31       1.0  0.17404  0.41703  0.04210  1.0000
  C   C32       1.0  0.13194  0.08298  0.95790  1.0000
  C   C33       1.0  0.34801  0.45383  0.73967  1.0000
  C   C34       1.0  0.60834  0.04616  0.26032  1.0000
  C   C35       1.0  0.65199  0.54617  0.26033  1.0000
  C   C36       1.0  0.39166  0.95384  0.73968  1.0000
  C   C37       1.0  0.83282  0.60630  0.20523  1.0000
  C   C38       1.0  0.62761  0.89367  0.79478  1.0000
  C   C39       1.0  0.16718  0.39370  0.79477  1.0000
  C   C40       1.0  0.37239  0.10633  0.20522  1.0000
  I   I1        1.0  0.30304  0.77266  0.17984  1.0000
  I   I2        1.0  0.12326  0.72738  0.82016  1.0000
  I   I3        1.0  0.69696  0.22734  0.82016  1.0000
  I   I4        1.0  0.87674  0.27261  0.17985  1.0000
  Cl  Cl1       1.0  0.63156  0.24999  0.00000  1.0000
  Cl  Cl2       1.0  0.36844  0.75001  1.00000  1.0000
  O   O1        1.0  0.58769  0.52502  0.84528  1.0000
  O   O2        1.0  0.74242  0.97498  0.15472  1.0000
  O   O3        1.0  0.41231  0.47498  0.15472  1.0000
  O   O4        1.0  0.25758  0.02502  0.84528  1.0000
  O   O5        1.0  0.78081  0.60463  0.04061  1.0000
  O   O6        1.0  0.74020  0.89538  0.95941  1.0000
  O   O7        1.0  0.21919  0.39537  0.95939  1.0000
  O   O8        1.0  0.25980  0.10463  0.04059  1.0000
  O   O9        1.0  0.29641  0.46482  0.81870  1.0000
  O   O10       1.0  0.47772  0.03518  0.18131  1.0000
  O   O11       1.0  0.70359  0.53518  0.18130  1.0000
  O   O12       1.0  0.52228  0.96482  0.81870  1.0000
  F   F1        1.0  0.11784  0.81309  0.30476  1.0000
  F   F2        1.0  0.81312  0.68692  0.69525  1.0000
  F   F3        1.0  0.88216  0.18691  0.69524  1.0000
  F   F4        1.0  0.18688  0.31307  0.30475  1.0000
  F   F5        1.0  0.34118  0.89619  0.38106  1.0000
  F   F6        1.0  0.96014  0.60382  0.61894  1.0000
  F   F7        1.0  0.65882  0.10381  0.61894  1.0000
  F   F8        1.0  0.03986  0.39618  0.38106  1.0000
  F   F9        1.0  0.23756  0.59859  0.29547  1.0000
  F   F10       1.0  0.94201  0.90141  0.70452  1.0000
  F   F11       1.0  0.76244  0.40141  0.70453  1.0000
  F   F12       1.0  0.05799  0.09859  0.29548  1.0000
  F   F13       1.0  0.44892  0.69402  0.39042  1.0000
  F   F14       1.0  0.05854  0.80604  0.60961  1.0000
  F   F15       1.0  0.55108  0.30598  0.60958  1.0000
  F   F16       1.0  0.94146  0.19396  0.39039  1.0000
  F   F17       1.0  0.27384  0.81168  0.51027  1.0000
  F   F18       1.0  0.76358  0.68830  0.48974  1.0000
  F   F19       1.0  0.72616  0.18832  0.48973  1.0000
  F   F20       1.0  0.23642  0.31170  0.51026  1.0000
  F   F21       1.0  0.10965  0.66658  0.42152  1.0000
  F   F22       1.0  0.68816  0.83342  0.57849  1.0000
  F   F23       1.0  0.89035  0.33342  0.57848  1.0000
  F   F24       1.0  0.31184  0.16658  0.42151  1.0000
  F   F25       1.0  0.34154  0.52102  0.46460  1.0000
  F   F26       1.0  0.87705  0.97894  0.53538  1.0000
  F   F27       1.0  0.65846  0.47898  0.53540  1.0000
  F   F28       1.0  0.12295  0.02106  0.46462  1.0000
  F   F29       1.0  0.47180  0.67317  0.57141  1.0000
  F   F30       1.0  0.90034  0.82674  0.42855  1.0000
  F   F31       1.0  0.52820  0.32683  0.42859  1.0000
  F   F32       1.0  0.09966  0.17326  0.57145  1.0000
  F   F33       1.0  0.26375  0.61834  0.57927  1.0000
  F   F34       1.0  0.68451  0.88170  0.42078  1.0000
  F   F35       1.0  0.73626  0.38166  0.42073  1.0000
  F   F36       1.0  0.31548  0.11830  0.57922  1.0000
