data_image0
_chemical_formula_structural       K2H48C36I6O12F28
_chemical_formula_sum              "K2 H48 C36 I6 O12 F28"
_cell_length_a       9.61278
_cell_length_b       12.1761
_cell_length_c       14.6649
_cell_angle_alpha    101.159
_cell_angle_beta     109.182
_cell_angle_gamma    89.9897

_space_group_name_H-M_alt    "P 1"
_space_group_IT_number       1

loop_
  _space_group_symop_operation_xyz
  'x, y, z'

loop_
  _atom_site_type_symbol
  _atom_site_label
  _atom_site_symmetry_multiplicity
  _atom_site_fract_x
  _atom_site_fract_y
  _atom_site_fract_z
  _atom_site_occupancy
  K   K1        1.0  0.50000  0.00000  0.00000  1.0000
  K   K2        1.0  0.50000  0.50000  1.00000  1.0000
  H   H1        1.0  0.20241  0.98386  0.11583  1.0000
  H   H2        1.0  0.08661  0.51617  0.88412  1.0000
  H   H3        1.0  0.79759  0.01614  0.88417  1.0000
  H   H4        1.0  0.91339  0.48383  0.11588  1.0000
  H   H5        1.0  0.15741  0.12464  0.15399  1.0000
  H   H6        1.0  0.00331  0.37543  0.84584  1.0000
  H   H7        1.0  0.84258  0.87536  0.84601  1.0000
  H   H8        1.0  0.99669  0.62457  0.15416  1.0000
  H   H9        1.0  0.42961  0.18172  0.23223  1.0000
  H   H10       1.0  0.19716  0.31824  0.76777  1.0000
  H   H11       1.0  0.57039  0.81828  0.76777  1.0000
  H   H12       1.0  0.80283  0.68176  0.23223  1.0000
  H   H13       1.0  0.36727  0.07790  0.28389  1.0000
  H   H14       1.0  0.08307  0.42207  0.71605  1.0000
  H   H15       1.0  0.63272  0.92209  0.71611  1.0000
  H   H16       1.0  0.91693  0.57793  0.28395  1.0000
  H   H17       1.0  0.60554  0.00945  0.33586  1.0000
  H   H18       1.0  0.26933  0.49048  0.66409  1.0000
  H   H19       1.0  0.39446  0.99055  0.66414  1.0000
  H   H20       1.0  0.73067  0.50952  0.33591  1.0000
  H   H21       1.0  0.68213  0.10807  0.28602  1.0000
  H   H22       1.0  0.39593  0.39186  0.71395  1.0000
  H   H23       1.0  0.31787  0.89193  0.71399  1.0000
  H   H24       1.0  0.60407  0.60814  0.28605  1.0000
  H   H25       1.0  0.81832  0.93175  0.29728  1.0000
  H   H26       1.0  0.52084  0.56811  0.70277  1.0000
  H   H27       1.0  0.18168  0.06825  0.70272  1.0000
  H   H28       1.0  0.47916  0.43189  0.29723  1.0000
  H   H29       1.0  0.65335  0.85235  0.21313  1.0000
  H   H30       1.0  0.44006  0.64760  0.78680  1.0000
  H   H31       1.0  0.34665  0.14765  0.78687  1.0000
  H   H32       1.0  0.55993  0.35240  0.21320  1.0000
  H   H33       1.0  0.78978  0.79802  0.09986  1.0000
  H   H34       1.0  0.68983  0.70205  0.90020  1.0000
  H   H35       1.0  0.21022  0.20198  0.90014  1.0000
  H   H36       1.0  0.31017  0.29795  0.09980  1.0000
  H   H37       1.0  0.94931  0.88500  0.18162  1.0000
  H   H38       1.0  0.76760  0.61506  0.81854  1.0000
  H   H39       1.0  0.05069  0.11500  0.81838  1.0000
  H   H40       1.0  0.23240  0.38494  0.18146  1.0000
  H   H41       1.0  0.09014  0.99339  0.94579  1.0000
  H   H42       1.0  0.14438  0.50656  0.05406  1.0000
  H   H43       1.0  0.90986  0.00661  0.05421  1.0000
  H   H44       1.0  0.85562  0.49344  0.94594  1.0000
  H   H45       1.0  0.04092  0.13342  0.98183  1.0000
  H   H46       1.0  0.05896  0.36659  0.01792  1.0000
  H   H47       1.0  0.95908  0.86658  0.01817  1.0000
  H   H48       1.0  0.94104  0.63341  0.98208  1.0000
  C   C1        1.0  0.24089  0.07332  0.13267  1.0000
  C   C2        1.0  0.10816  0.42669  0.86724  1.0000
  C   C3        1.0  0.75911  0.92668  0.86733  1.0000
  C   C4        1.0  0.89184  0.57331  0.13276  1.0000
  C   C5        1.0  0.38551  0.09367  0.21680  1.0000
  C   C6        1.0  0.16855  0.40630  0.78316  1.0000
  C   C7        1.0  0.61449  0.90633  0.78320  1.0000
  C   C8        1.0  0.83145  0.59370  0.21684  1.0000
  C   C9        1.0  0.62400  0.02445  0.26865  1.0000
  C   C10       1.0  0.35514  0.47546  0.73132  1.0000
  C   C11       1.0  0.37600  0.97555  0.73135  1.0000
  C   C12       1.0  0.64486  0.52454  0.26868  1.0000
  C   C13       1.0  0.71582  0.93510  0.23564  1.0000
  C   C14       1.0  0.48001  0.56483  0.76437  1.0000
  C   C15       1.0  0.28418  0.06490  0.76436  1.0000
  C   C16       1.0  0.51999  0.43517  0.23563  1.0000
  C   C17       1.0  0.84280  0.88392  0.12175  1.0000
  C   C18       1.0  0.72101  0.61615  0.87836  1.0000
  C   C19       1.0  0.15719  0.11608  0.87825  1.0000
  C   C20       1.0  0.27899  0.38385  0.12164  1.0000
  C   C21       1.0  0.12836  0.08310  0.96457  1.0000
  C   C22       1.0  0.16373  0.41683  0.03526  1.0000
  C   C23       1.0  0.87164  0.91690  0.03543  1.0000
  C   C24       1.0  0.83627  0.58317  0.96474  1.0000
  C   C25       1.0  0.26133  0.76722  0.36516  1.0000
  C   C26       1.0  0.89628  0.73265  0.63478  1.0000
  C   C27       1.0  0.73867  0.23278  0.63484  1.0000
  C   C28       1.0  0.10372  0.26735  0.36522  1.0000
  C   C29       1.0  0.31216  0.65643  0.39944  1.0000
  C   C30       1.0  0.91277  0.84343  0.60049  1.0000
  C   C31       1.0  0.68784  0.34357  0.60056  1.0000
  C   C32       1.0  0.08723  0.15657  0.39952  1.0000
  C   C33       1.0  0.29272  0.63865  0.49735  1.0000
  C   C34       1.0  0.79529  0.86126  0.50256  1.0000
  C   C35       1.0  0.70728  0.36135  0.50265  1.0000
  C   C36       1.0  0.20471  0.13874  0.49744  1.0000
  I   I1        1.0  0.30990  0.75002  0.00012  1.0000
  I   I2        1.0  0.69010  0.24998  0.99988  1.0000
  I   I3        1.0  0.28737  0.76813  0.22047  1.0000
  I   I4        1.0  0.06721  0.73173  0.77955  1.0000
  I   I5        1.0  0.71263  0.23187  0.77953  1.0000
  I   I6        1.0  0.93279  0.26826  0.22045  1.0000
  O   O1        1.0  0.26164  0.10242  0.04777  1.0000
  O   O2        1.0  0.21387  0.39749  0.95217  1.0000
  O   O3        1.0  0.73836  0.89758  0.95223  1.0000
  O   O4        1.0  0.78614  0.60251  0.04783  1.0000
  O   O5        1.0  0.48665  0.01898  0.19073  1.0000
  O   O6        1.0  0.29583  0.48092  0.80921  1.0000
  O   O7        1.0  0.51335  0.98102  0.80927  1.0000
  O   O8        1.0  0.70417  0.51908  0.19079  1.0000
  O   O9        1.0  0.74973  0.96203  0.15450  1.0000
  O   O10       1.0  0.59518  0.53798  0.84558  1.0000
  O   O11       1.0  0.25027  0.03797  0.84550  1.0000
  O   O12       1.0  0.40482  0.46202  0.15442  1.0000
  F   F1        1.0  0.34105  0.85596  0.43578  1.0000
  F   F2        1.0  0.90516  0.64389  0.56413  1.0000
  F   F3        1.0  0.65895  0.14404  0.56422  1.0000
  F   F4        1.0  0.09484  0.35610  0.43587  1.0000
  F   F5        1.0  0.11557  0.77657  0.35779  1.0000
  F   F6        1.0  0.75786  0.72338  0.64211  1.0000
  F   F7        1.0  0.88443  0.22343  0.64221  1.0000
  F   F8        1.0  0.24214  0.27662  0.35789  1.0000
  F   F9        1.0  0.45906  0.65011  0.41165  1.0000
  F   F10       1.0  0.04755  0.84974  0.58840  1.0000
  F   F11       1.0  0.54094  0.34989  0.58835  1.0000
  F   F12       1.0  0.95245  0.15026  0.41159  1.0000
  F   F13       1.0  0.23438  0.56760  0.32745  1.0000
  F   F14       1.0  0.90707  0.93226  0.67246  1.0000
  F   F15       1.0  0.76562  0.43240  0.67255  1.0000
  F   F16       1.0  0.09293  0.06774  0.32754  1.0000
  F   F17       1.0  0.34874  0.54032  0.51731  1.0000
  F   F18       1.0  0.83138  0.95962  0.48269  1.0000
  F   F19       1.0  0.65126  0.45968  0.48269  1.0000
  F   F20       1.0  0.16862  0.04038  0.51731  1.0000
  F   F21       1.0  0.14887  0.63382  0.48954  1.0000
  F   F22       1.0  0.65920  0.86615  0.51028  1.0000
  F   F23       1.0  0.85113  0.36618  0.51046  1.0000
  F   F24       1.0  0.34080  0.13385  0.48972  1.0000
  F   F25       1.0  0.36605  0.72229  0.57413  1.0000
  F   F26       1.0  0.79162  0.77768  0.42570  1.0000
  F   F27       1.0  0.63395  0.27772  0.42587  1.0000
  F   F28       1.0  0.20838  0.22232  0.57430  1.0000
