data_image0
_chemical_formula_structural       Li8H56C32O40
_chemical_formula_sum              "Li8 H56 C32 O40"
_cell_length_a       9.48691
_cell_length_b       10.4139
_cell_length_c       13.2344
_cell_angle_alpha    107.648
_cell_angle_beta     90
_cell_angle_gamma    90

_space_group_name_H-M_alt    "P 1"
_space_group_IT_number       1

loop_
  _space_group_symop_operation_xyz
  'x, y, z'

loop_
  _atom_site_type_symbol
  _atom_site_label
  _atom_site_symmetry_multiplicity
  _atom_site_fract_x
  _atom_site_fract_y
  _atom_site_fract_z
  _atom_site_occupancy
  Li  Li1       1.0  0.14315  0.44000  0.63403  1.0000
  Li  Li2       1.0  0.64315  0.06000  0.86597  1.0000
  Li  Li3       1.0  0.85685  0.56000  0.36597  1.0000
  Li  Li4       1.0  0.35685  0.94000  0.13403  1.0000
  Li  Li5       1.0  0.64099  0.54287  0.84640  1.0000
  Li  Li6       1.0  0.14099  0.95713  0.65360  1.0000
  Li  Li7       1.0  0.35901  0.45713  0.15360  1.0000
  Li  Li8       1.0  0.85901  0.04287  0.34640  1.0000
  H   H1        1.0  0.25379  0.67688  0.76891  1.0000
  H   H2        1.0  0.75379  0.82312  0.73109  1.0000
  H   H3        1.0  0.74621  0.32312  0.23109  1.0000
  H   H4        1.0  0.24621  0.17688  0.26891  1.0000
  H   H5        1.0  0.25762  0.71792  0.90984  1.0000
  H   H6        1.0  0.75762  0.78208  0.59016  1.0000
  H   H7        1.0  0.74238  0.28208  0.09016  1.0000
  H   H8        1.0  0.24238  0.21792  0.40984  1.0000
  H   H9        1.0  0.09736  0.73939  0.84424  1.0000
  H   H10       1.0  0.59737  0.76061  0.65576  1.0000
  H   H11       1.0  0.90264  0.26061  0.15576  1.0000
  H   H12       1.0  0.40263  0.23938  0.34424  1.0000
  H   H13       1.0  0.39159  0.74887  0.35748  1.0000
  H   H14       1.0  0.89159  0.75113  0.14252  1.0000
  H   H15       1.0  0.60841  0.25113  0.64252  1.0000
  H   H16       1.0  0.10841  0.24887  0.85748  1.0000
  H   H17       1.0  0.23912  0.71257  0.42529  1.0000
  H   H18       1.0  0.73912  0.78743  0.07471  1.0000
  H   H19       1.0  0.76088  0.28743  0.57471  1.0000
  H   H20       1.0  0.26088  0.21257  0.92529  1.0000
  H   H21       1.0  0.23316  0.68736  0.28488  1.0000
  H   H22       1.0  0.73316  0.81264  0.21512  1.0000
  H   H23       1.0  0.76684  0.31264  0.71512  1.0000
  H   H24       1.0  0.26684  0.18736  0.78488  1.0000
  H   H25       1.0  0.93215  0.55929  0.72305  1.0000
  H   H26       1.0  0.43215  0.94071  0.77695  1.0000
  H   H27       1.0  0.06785  0.44071  0.27695  1.0000
  H   H28       1.0  0.56785  0.05929  0.22305  1.0000
  H   H29       1.0  0.89872  0.53604  0.60080  1.0000
  H   H30       1.0  0.39872  0.96396  0.89920  1.0000
  H   H31       1.0  0.10128  0.46396  0.39920  1.0000
  H   H32       1.0  0.60128  0.03604  0.10080  1.0000
  H   H33       1.0  0.54658  0.79684  0.87321  1.0000
  H   H34       1.0  0.04658  0.70316  0.62679  1.0000
  H   H35       1.0  0.45342  0.20316  0.12678  1.0000
  H   H36       1.0  0.95342  0.29684  0.37321  1.0000
  H   H37       1.0  0.52491  0.74183  0.97036  1.0000
  H   H38       1.0  0.02491  0.75817  0.52964  1.0000
  H   H39       1.0  0.47509  0.25817  0.02964  1.0000
  H   H40       1.0  0.97509  0.24183  0.47036  1.0000
  H   H41       1.0  0.41884  0.42635  0.76828  1.0000
  H   H42       1.0  0.91884  0.07365  0.73172  1.0000
  H   H43       1.0  0.58116  0.57365  0.23172  1.0000
  H   H44       1.0  0.08116  0.92635  0.26828  1.0000
  H   H45       1.0  0.39000  0.46596  0.89370  1.0000
  H   H46       1.0  0.89000  0.03404  0.60630  1.0000
  H   H47       1.0  0.61000  0.53404  0.10630  1.0000
  H   H48       1.0  0.11000  0.96596  0.39370  1.0000
  H   H49       1.0  0.02090  0.20523  0.62974  1.0000
  H   H50       1.0  0.52090  0.29477  0.87026  1.0000
  H   H51       1.0  0.97910  0.79477  0.37026  1.0000
  H   H52       1.0  0.47910  0.70523  0.12974  1.0000
  H   H53       1.0  0.14633  0.18183  0.55490  1.0000
  H   H54       1.0  0.64633  0.31817  0.94510  1.0000
  H   H55       1.0  0.85367  0.81817  0.44510  1.0000
  H   H56       1.0  0.35367  0.68183  0.05490  1.0000
  C   C1        1.0  0.84826  0.49396  0.00067  1.0000
  C   C2        1.0  0.34826  0.00604  0.49933  1.0000
  C   C3        1.0  0.15174  0.50604  0.99933  1.0000
  C   C4        1.0  0.65174  0.99396  0.50067  1.0000
  C   C5        1.0  0.07930  0.52314  0.91220  1.0000
  C   C6        1.0  0.57930  0.97686  0.58780  1.0000
  C   C7        1.0  0.92070  0.47686  0.08780  1.0000
  C   C8        1.0  0.42070  0.02314  0.41220  1.0000
  C   C9        1.0  0.93047  0.52165  0.90988  1.0000
  C   C10       1.0  0.43047  0.97834  0.59012  1.0000
  C   C11       1.0  0.06953  0.47835  0.09012  1.0000
  C   C12       1.0  0.56953  0.02165  0.40988  1.0000
  C   C13       1.0  0.19227  0.67715  0.83899  1.0000
  C   C14       1.0  0.69227  0.82286  0.66101  1.0000
  C   C15       1.0  0.80773  0.32285  0.16100  1.0000
  C   C16       1.0  0.30773  0.17714  0.33900  1.0000
  C   C17       1.0  0.34866  0.49097  0.49377  1.0000
  C   C18       1.0  0.84866  0.00903  0.00623  1.0000
  C   C19       1.0  0.65134  0.50903  0.50623  1.0000
  C   C20       1.0  0.15134  0.99097  0.99377  1.0000
  C   C21       1.0  0.42158  0.52344  0.41194  1.0000
  C   C22       1.0  0.92158  0.97656  0.08806  1.0000
  C   C23       1.0  0.57842  0.47656  0.58806  1.0000
  C   C24       1.0  0.07842  0.02344  0.91194  1.0000
  C   C25       1.0  0.43110  0.46483  0.58523  1.0000
  C   C26       1.0  0.93110  0.03517  0.91477  1.0000
  C   C27       1.0  0.56890  0.53517  0.41477  1.0000
  C   C28       1.0  0.06889  0.96483  0.08523  1.0000
  C   C29       1.0  0.29987  0.68241  0.35115  1.0000
  C   C30       1.0  0.79987  0.81759  0.14885  1.0000
  C   C31       1.0  0.70013  0.31759  0.64885  1.0000
  C   C32       1.0  0.20013  0.18241  0.85114  1.0000
  O   O1        1.0  0.71400  0.48885  0.99015  1.0000
  O   O2        1.0  0.21400  0.01115  0.50985  1.0000
  O   O3        1.0  0.28600  0.51115  0.00985  1.0000
  O   O4        1.0  0.78600  0.98885  0.49015  1.0000
  O   O5        1.0  0.15382  0.53883  0.82651  1.0000
  O   O6        1.0  0.65382  0.96117  0.67349  1.0000
  O   O7        1.0  0.84618  0.46117  0.17349  1.0000
  O   O8        1.0  0.34618  0.03883  0.32651  1.0000
  O   O9        1.0  0.85687  0.54165  0.83620  1.0000
  O   O10       1.0  0.35687  0.95835  0.66380  1.0000
  O   O11       1.0  0.14313  0.45835  0.16380  1.0000
  O   O12       1.0  0.64313  0.04165  0.33620  1.0000
  O   O13       1.0  0.21598  0.47916  0.49850  1.0000
  O   O14       1.0  0.71598  0.02083  0.00150  1.0000
  O   O15       1.0  0.78402  0.52083  0.50150  1.0000
  O   O16       1.0  0.28402  0.97917  0.99850  1.0000
  O   O17       1.0  0.34603  0.54383  0.32808  1.0000
  O   O18       1.0  0.84603  0.95617  0.17192  1.0000
  O   O19       1.0  0.65397  0.45617  0.67192  1.0000
  O   O20       1.0  0.15397  0.04383  0.82808  1.0000
  O   O21       1.0  0.35592  0.43330  0.65397  1.0000
  O   O22       1.0  0.85592  0.06670  0.84603  1.0000
  O   O23       1.0  0.64408  0.56670  0.34603  1.0000
  O   O24       1.0  0.14408  0.93330  0.15397  1.0000
  O   O25       1.0  0.97645  0.55798  0.65440  1.0000
  O   O26       1.0  0.47644  0.94202  0.84560  1.0000
  O   O27       1.0  0.02356  0.44202  0.34560  1.0000
  O   O28       1.0  0.52356  0.05798  0.15440  1.0000
  O   O29       1.0  0.57663  0.72422  0.90258  1.0000
  O   O30       1.0  0.07663  0.77578  0.59742  1.0000
  O   O31       1.0  0.42337  0.27578  0.09742  1.0000
  O   O32       1.0  0.92337  0.22422  0.40258  1.0000
  O   O33       1.0  0.46182  0.42766  0.83799  1.0000
  O   O34       1.0  0.96182  0.07234  0.66201  1.0000
  O   O35       1.0  0.53818  0.57234  0.16201  1.0000
  O   O36       1.0  0.03818  0.92766  0.33799  1.0000
  O   O37       1.0  0.07818  0.25374  0.58867  1.0000
  O   O38       1.0  0.57818  0.24626  0.91132  1.0000
  O   O39       1.0  0.92182  0.74626  0.41132  1.0000
  O   O40       1.0  0.42182  0.75374  0.08868  1.0000
