data_image0
_chemical_formula_structural       Pr4H32C32N4O36
_chemical_formula_sum              "Pr4 H32 C32 N4 O36"
_cell_length_a       7.26512
_cell_length_b       12.1259
_cell_length_c       13.672
_cell_angle_alpha    96.3906
_cell_angle_beta     90
_cell_angle_gamma    90

_space_group_name_H-M_alt    "P 1"
_space_group_IT_number       1

loop_
  _space_group_symop_operation_xyz
  'x, y, z'

loop_
  _atom_site_type_symbol
  _atom_site_label
  _atom_site_symmetry_multiplicity
  _atom_site_fract_x
  _atom_site_fract_y
  _atom_site_fract_z
  _atom_site_occupancy
  Pr  Pr1       1.0  0.76354  0.77956  0.70327  1.0000
  Pr  Pr2       1.0  0.26354  0.22043  0.79673  1.0000
  Pr  Pr3       1.0  0.23646  0.22043  0.29673  1.0000
  Pr  Pr4       1.0  0.73646  0.77956  0.20327  1.0000
  H   H1        1.0  0.27745  0.97464  0.97365  1.0000
  H   H2        1.0  0.77744  0.02536  0.52635  1.0000
  H   H3        1.0  0.72255  0.02536  0.02635  1.0000
  H   H4        1.0  0.22255  0.97464  0.47364  1.0000
  H   H5        1.0  0.19866  0.62439  0.99681  1.0000
  H   H6        1.0  0.69866  0.37561  0.50319  1.0000
  H   H7        1.0  0.80134  0.37561  0.00319  1.0000
  H   H8        1.0  0.30134  0.62439  0.49681  1.0000
  H   H9        1.0  0.44005  0.61754  0.68886  1.0000
  H   H10       1.0  0.94005  0.38246  0.81114  1.0000
  H   H11       1.0  0.55995  0.38246  0.31114  1.0000
  H   H12       1.0  0.05995  0.61754  0.18886  1.0000
  H   H13       1.0  0.32979  0.72909  0.69125  1.0000
  H   H14       1.0  0.82979  0.27091  0.80875  1.0000
  H   H15       1.0  0.67020  0.27090  0.30875  1.0000
  H   H16       1.0  0.17021  0.72909  0.19125  1.0000
  H   H17       1.0  0.65972  0.55745  0.57777  1.0000
  H   H18       1.0  0.15971  0.44255  0.92224  1.0000
  H   H19       1.0  0.34028  0.44254  0.42223  1.0000
  H   H20       1.0  0.84028  0.55746  0.07777  1.0000
  H   H21       1.0  0.78776  0.61034  0.50091  1.0000
  H   H22       1.0  0.28776  0.38966  0.99909  1.0000
  H   H23       1.0  0.21223  0.38966  0.49909  1.0000
  H   H24       1.0  0.71224  0.61034  0.00091  1.0000
  H   H25       1.0  0.59394  0.86677  0.92081  1.0000
  H   H26       1.0  0.09394  0.13323  0.57919  1.0000
  H   H27       1.0  0.40606  0.13323  0.07919  1.0000
  H   H28       1.0  0.90606  0.86677  0.42081  1.0000
  H   H29       1.0  0.52677  0.93925  0.83420  1.0000
  H   H30       1.0  0.02677  0.06075  0.66580  1.0000
  H   H31       1.0  0.47323  0.06075  0.16580  1.0000
  H   H32       1.0  0.97323  0.93925  0.33420  1.0000
  C   C1        1.0  0.07409  0.88745  0.88005  1.0000
  C   C2        1.0  0.57409  0.11255  0.61995  1.0000
  C   C3        1.0  0.92591  0.11255  0.11995  1.0000
  C   C4        1.0  0.42591  0.88745  0.38005  1.0000
  C   C5        1.0  0.21083  0.89515  0.95211  1.0000
  C   C6        1.0  0.71083  0.10485  0.54789  1.0000
  C   C7        1.0  0.78917  0.10485  0.04790  1.0000
  C   C8        1.0  0.28917  0.89515  0.45210  1.0000
  C   C9        1.0  0.25875  0.79902  0.99394  1.0000
  C   C10       1.0  0.75874  0.20098  0.50606  1.0000
  C   C11       1.0  0.74125  0.20098  0.00606  1.0000
  C   C12       1.0  0.24126  0.79902  0.49394  1.0000
  C   C13       1.0  0.16623  0.70001  0.96440  1.0000
  C   C14       1.0  0.66623  0.29999  0.53561  1.0000
  C   C15       1.0  0.83376  0.29999  0.03560  1.0000
  C   C16       1.0  0.33377  0.70001  0.46439  1.0000
  C   C17       1.0  0.03356  0.69942  0.89081  1.0000
  C   C18       1.0  0.53356  0.30058  0.60919  1.0000
  C   C19       1.0  0.96644  0.30058  0.10919  1.0000
  C   C20       1.0  0.46644  0.69942  0.39081  1.0000
  C   C21       1.0  0.02194  0.98407  0.82510  1.0000
  C   C22       1.0  0.52194  0.01593  0.67490  1.0000
  C   C23       1.0  0.97806  0.01593  0.17490  1.0000
  C   C24       1.0  0.47807  0.98407  0.32510  1.0000
  C   C25       1.0  0.41524  0.79675  0.06492  1.0000
  C   C26       1.0  0.91524  0.20325  0.43508  1.0000
  C   C27       1.0  0.58476  0.20325  0.93508  1.0000
  C   C28       1.0  0.08476  0.79675  0.56492  1.0000
  C   C29       1.0  0.93029  0.59633  0.84934  1.0000
  C   C30       1.0  0.43030  0.40367  0.65066  1.0000
  C   C31       1.0  0.06971  0.40367  0.15066  1.0000
  C   C32       1.0  0.56970  0.59633  0.34934  1.0000
  N   N1        1.0  0.99012  0.79132  0.84992  1.0000
  N   N2        1.0  0.49012  0.20868  0.65008  1.0000
  N   N3        1.0  0.00988  0.20868  0.15008  1.0000
  N   N4        1.0  0.50988  0.79131  0.34992  1.0000
  O   O1        1.0  0.93311  0.96225  0.74488  1.0000
  O   O2        1.0  0.43311  0.03775  0.75512  1.0000
  O   O3        1.0  0.06689  0.03775  0.25512  1.0000
  O   O4        1.0  0.56690  0.96225  0.24488  1.0000
  O   O5        1.0  0.07480  0.07975  0.86028  1.0000
  O   O6        1.0  0.57480  0.92025  0.63972  1.0000
  O   O7        1.0  0.92521  0.92025  0.13972  1.0000
  O   O8        1.0  0.42521  0.07975  0.36027  1.0000
  O   O9        1.0  0.57100  0.83431  0.04044  1.0000
  O   O10       1.0  0.07101  0.16570  0.45957  1.0000
  O   O11       1.0  0.42899  0.16570  0.95957  1.0000
  O   O12       1.0  0.92899  0.83431  0.54043  1.0000
  O   O13       1.0  0.39199  0.75338  0.14437  1.0000
  O   O14       1.0  0.89199  0.24662  0.35563  1.0000
  O   O15       1.0  0.60801  0.24662  0.85563  1.0000
  O   O16       1.0  0.10801  0.75338  0.64437  1.0000
  O   O17       1.0  0.97110  0.50498  0.88101  1.0000
  O   O18       1.0  0.47111  0.49502  0.61900  1.0000
  O   O19       1.0  0.02889  0.49502  0.11900  1.0000
  O   O20       1.0  0.52889  0.50498  0.38100  1.0000
  O   O21       1.0  0.80593  0.60956  0.78651  1.0000
  O   O22       1.0  0.30594  0.39043  0.71350  1.0000
  O   O23       1.0  0.19407  0.39044  0.21349  1.0000
  O   O24       1.0  0.69407  0.60956  0.28650  1.0000
  O   O25       1.0  0.44738  0.69821  0.71324  1.0000
  O   O26       1.0  0.94738  0.30179  0.78676  1.0000
  O   O27       1.0  0.55262  0.30179  0.28676  1.0000
  O   O28       1.0  0.05262  0.69821  0.21324  1.0000
  O   O29       1.0  0.75820  0.61360  0.57040  1.0000
  O   O30       1.0  0.25820  0.38640  0.92960  1.0000
  O   O31       1.0  0.24180  0.38640  0.42960  1.0000
  O   O32       1.0  0.74179  0.61360  0.07040  1.0000
  O   O33       1.0  0.62075  0.88682  0.85364  1.0000
  O   O34       1.0  0.12076  0.11318  0.64636  1.0000
  O   O35       1.0  0.37924  0.11317  0.14636  1.0000
  O   O36       1.0  0.87925  0.88682  0.35364  1.0000
