data_image0
_chemical_formula_structural       H12Pb4C32N4O24
_chemical_formula_sum              "H12 Pb4 C32 N4 O24"
_cell_length_a       8.18958
_cell_length_b       10.0146
_cell_length_c       10.4305
_cell_angle_alpha    90.0004
_cell_angle_beta     90.0001
_cell_angle_gamma    92.3071

_space_group_name_H-M_alt    "P 1"
_space_group_IT_number       1

loop_
  _space_group_symop_operation_xyz
  'x, y, z'

loop_
  _atom_site_type_symbol
  _atom_site_label
  _atom_site_symmetry_multiplicity
  _atom_site_fract_x
  _atom_site_fract_y
  _atom_site_fract_z
  _atom_site_occupancy
  H   H1        1.0  0.95379  0.43853  0.77256  1.0000
  H   H2        1.0  0.54620  0.56147  0.27256  1.0000
  H   H3        1.0  0.04621  0.56147  0.22744  1.0000
  H   H4        1.0  0.45379  0.43853  0.72744  1.0000
  H   H5        1.0  0.30633  0.65309  0.00904  1.0000
  H   H6        1.0  0.19367  0.34691  0.50903  1.0000
  H   H7        1.0  0.69367  0.34691  0.99096  1.0000
  H   H8        1.0  0.80633  0.65309  0.49096  1.0000
  H   H9        1.0  0.41058  0.43740  0.08521  1.0000
  H   H10       1.0  0.08942  0.56260  0.58521  1.0000
  H   H11       1.0  0.58942  0.56260  0.91478  1.0000
  H   H12       1.0  0.91058  0.43740  0.41479  1.0000
  Pb  Pb1       1.0  0.59445  0.08367  0.19123  1.0000
  Pb  Pb2       1.0  0.90555  0.91633  0.69123  1.0000
  Pb  Pb3       1.0  0.40555  0.91633  0.80877  1.0000
  Pb  Pb4       1.0  0.09446  0.08368  0.30877  1.0000
  C   C1        1.0  0.24620  0.31563  0.97095  1.0000
  C   C2        1.0  0.25381  0.68437  0.47095  1.0000
  C   C3        1.0  0.75381  0.68436  0.02905  1.0000
  C   C4        1.0  0.74619  0.31564  0.52905  1.0000
  C   C5        1.0  0.11277  0.31986  0.88685  1.0000
  C   C6        1.0  0.38722  0.68014  0.38685  1.0000
  C   C7        1.0  0.88723  0.68014  0.11315  1.0000
  C   C8        1.0  0.61277  0.31986  0.61315  1.0000
  C   C9        1.0  0.05485  0.43988  0.84023  1.0000
  C   C10       1.0  0.44515  0.56012  0.34023  1.0000
  C   C11       1.0  0.94515  0.56012  0.15977  1.0000
  C   C12       1.0  0.55485  0.43988  0.65977  1.0000
  C   C13       1.0  0.12787  0.56053  0.88095  1.0000
  C   C14       1.0  0.37213  0.43947  0.38095  1.0000
  C   C15       1.0  0.87213  0.43947  0.11905  1.0000
  C   C16       1.0  0.62787  0.56053  0.61905  1.0000
  C   C17       1.0  0.25293  0.55897  0.97286  1.0000
  C   C18       1.0  0.24707  0.44103  0.47286  1.0000
  C   C19       1.0  0.74706  0.44103  0.02714  1.0000
  C   C20       1.0  0.75293  0.55897  0.52714  1.0000
  C   C21       1.0  0.31134  0.43847  0.01584  1.0000
  C   C22       1.0  0.18866  0.56153  0.51584  1.0000
  C   C23       1.0  0.68866  0.56153  0.98415  1.0000
  C   C24       1.0  0.81134  0.43847  0.48416  1.0000
  C   C25       1.0  0.33009  0.19222  0.01593  1.0000
  C   C26       1.0  0.16991  0.80777  0.51594  1.0000
  C   C27       1.0  0.66992  0.80778  0.98407  1.0000
  C   C28       1.0  0.83009  0.19223  0.48406  1.0000
  C   C29       1.0  0.07149  0.68984  0.82849  1.0000
  C   C30       1.0  0.42851  0.31016  0.32848  1.0000
  C   C31       1.0  0.92851  0.31016  0.17151  1.0000
  C   C32       1.0  0.57149  0.68984  0.67151  1.0000
  N   N1        1.0  0.02690  0.19751  0.84677  1.0000
  N   N2        1.0  0.47310  0.80249  0.34678  1.0000
  N   N3        1.0  0.97311  0.80249  0.15322  1.0000
  N   N4        1.0  0.52690  0.19751  0.65323  1.0000
  O   O1        1.0  0.10099  0.09064  0.85196  1.0000
  O   O2        1.0  0.39902  0.90937  0.35196  1.0000
  O   O3        1.0  0.89901  0.90936  0.14804  1.0000
  O   O4        1.0  0.60098  0.09063  0.64804  1.0000
  O   O5        1.0  0.88349  0.20308  0.81014  1.0000
  O   O6        1.0  0.61651  0.79692  0.31015  1.0000
  O   O7        1.0  0.11651  0.79692  0.18986  1.0000
  O   O8        1.0  0.38349  0.20308  0.68986  1.0000
  O   O9        1.0  0.46884  0.17462  0.96564  1.0000
  O   O10       1.0  0.03116  0.82538  0.46565  1.0000
  O   O11       1.0  0.53116  0.82538  0.03436  1.0000
  O   O12       1.0  0.96884  0.17462  0.53435  1.0000
  O   O13       1.0  0.27043  0.12065  0.10640  1.0000
  O   O14       1.0  0.22957  0.87935  0.60641  1.0000
  O   O15       1.0  0.72957  0.87935  0.89360  1.0000
  O   O16       1.0  0.77042  0.12065  0.39359  1.0000
  O   O17       1.0  0.13188  0.79983  0.87254  1.0000
  O   O18       1.0  0.36812  0.20017  0.37254  1.0000
  O   O19       1.0  0.86812  0.20017  0.12746  1.0000
  O   O20       1.0  0.63188  0.79983  0.62746  1.0000
  O   O21       1.0  0.96214  0.68370  0.74094  1.0000
  O   O22       1.0  0.53786  0.31629  0.24094  1.0000
  O   O23       1.0  0.03786  0.31630  0.25906  1.0000
  O   O24       1.0  0.46214  0.68371  0.75906  1.0000
