data_image0
_chemical_formula_structural       Mn2H38C46N6O14
_chemical_formula_sum              "Mn2 H38 C46 N6 O14"
_cell_length_a       7.20323
_cell_length_b       10.0201
_cell_length_c       15.5357
_cell_angle_alpha    95.2253
_cell_angle_beta     92.0965
_cell_angle_gamma    110.586

_space_group_name_H-M_alt    "P 1"
_space_group_IT_number       1

loop_
  _space_group_symop_operation_xyz
  'x, y, z'

loop_
  _atom_site_type_symbol
  _atom_site_label
  _atom_site_symmetry_multiplicity
  _atom_site_fract_x
  _atom_site_fract_y
  _atom_site_fract_z
  _atom_site_occupancy
  Mn  Mn1       1.0  0.28445  0.64514  0.31279  1.0000
  Mn  Mn2       1.0  0.71555  0.35486  0.68720  1.0000
  H   H1        1.0  0.65817  0.56124  0.07200  1.0000
  H   H2        1.0  0.34182  0.43875  0.92799  1.0000
  H   H3        1.0  0.79555  0.26384  0.90755  1.0000
  H   H4        1.0  0.20447  0.73616  0.09246  1.0000
  H   H5        1.0  0.01632  0.33933  0.17615  1.0000
  H   H6        1.0  0.98369  0.66068  0.82385  1.0000
  H   H7        1.0  0.37784  0.22248  0.01749  1.0000
  H   H8        1.0  0.62218  0.77753  0.98252  1.0000
  H   H9        1.0  0.54433  0.09923  0.11092  1.0000
  H   H10       1.0  0.45568  0.90078  0.88909  1.0000
  H   H11       1.0  0.99520  0.90963  0.22908  1.0000
  H   H12       1.0  0.00481  0.09037  0.77092  1.0000
  H   H13       1.0  0.83360  0.03928  0.14211  1.0000
  H   H14       1.0  0.16641  0.96073  0.85790  1.0000
  H   H15       1.0  0.27002  0.91560  0.40907  1.0000
  H   H16       1.0  0.72996  0.08439  0.59093  1.0000
  H   H17       1.0  0.27703  0.00156  0.56643  1.0000
  H   H18       1.0  0.72296  0.99845  0.43356  1.0000
  H   H19       1.0  0.24968  0.83034  0.67703  1.0000
  H   H20       1.0  0.75033  0.16968  0.32297  1.0000
  H   H21       1.0  0.22839  0.58009  0.62612  1.0000
  H   H22       1.0  0.77162  0.41993  0.37387  1.0000
  H   H23       1.0  0.20953  0.37361  0.57098  1.0000
  H   H24       1.0  0.79045  0.62639  0.42902  1.0000
  H   H25       1.0  0.22262  0.14796  0.49493  1.0000
  H   H26       1.0  0.77735  0.85204  0.50507  1.0000
  H   H27       1.0  0.27297  0.13802  0.33410  1.0000
  H   H28       1.0  0.72702  0.86198  0.66590  1.0000
  H   H29       1.0  0.31312  0.35398  0.25921  1.0000
  H   H30       1.0  0.68686  0.64602  0.74079  1.0000
  H   H31       1.0  0.59141  0.84068  0.29045  1.0000
  H   H32       1.0  0.40859  0.15931  0.70954  1.0000
  H   H33       1.0  0.66196  0.70859  0.30897  1.0000
  H   H34       1.0  0.33804  0.29140  0.69103  1.0000
  H   H35       1.0  0.33979  0.56940  0.12885  1.0000
  H   H36       1.0  0.66021  0.43058  0.87115  1.0000
  H   H37       1.0  0.50909  0.57070  0.19873  1.0000
  H   H38       1.0  0.49090  0.42929  0.80127  1.0000
  C   C1        1.0  0.86200  0.54258  0.22220  1.0000
  C   C2        1.0  0.13799  0.45742  0.77780  1.0000
  C   C3        1.0  0.83388  0.45612  0.13545  1.0000
  C   C4        1.0  0.16611  0.54389  0.86455  1.0000
  C   C5        1.0  0.72831  0.48105  0.06480  1.0000
  C   C6        1.0  0.27169  0.51895  0.93520  1.0000
  C   C7        1.0  0.80396  0.31633  0.97298  1.0000
  C   C8        1.0  0.19605  0.68367  0.02703  1.0000
  C   C9        1.0  0.91351  0.28602  0.03991  1.0000
  C   C10       1.0  0.08649  0.71399  0.96010  1.0000
  C   C11       1.0  0.92807  0.35605  0.12274  1.0000
  C   C12       1.0  0.07194  0.64395  0.87727  1.0000
  C   C13       1.0  0.09960  0.13838  0.07504  1.0000
  C   C14       1.0  0.90042  0.86163  0.92496  1.0000
  C   C15       1.0  0.29850  0.15646  0.06584  1.0000
  C   C16       1.0  0.70152  0.84355  0.93417  1.0000
  C   C17       1.0  0.38941  0.08709  0.11734  1.0000
  C   C18       1.0  0.61060  0.91291  0.88266  1.0000
  C   C19       1.0  0.28030  0.99714  0.17609  1.0000
  C   C20       1.0  0.71971  0.00286  0.82392  1.0000
  C   C21       1.0  0.37219  0.91244  0.22530  1.0000
  C   C22       1.0  0.62782  0.08756  0.77470  1.0000
  C   C23       1.0  0.08032  0.98165  0.18453  1.0000
  C   C24       1.0  0.91969  0.01836  0.81547  1.0000
  C   C25       1.0  0.98932  0.05357  0.13518  1.0000
  C   C26       1.0  0.01068  0.94643  0.86482  1.0000
  C   C27       1.0  0.26269  0.84549  0.45936  1.0000
  C   C28       1.0  0.73728  0.15450  0.54063  1.0000
  C   C29       1.0  0.26387  0.89138  0.54638  1.0000
  C   C30       1.0  0.73612  0.10862  0.45361  1.0000
  C   C31       1.0  0.24937  0.79555  0.60846  1.0000
  C   C32       1.0  0.75063  0.20446  0.39154  1.0000
  C   C33       1.0  0.23984  0.65788  0.58033  1.0000
  C   C34       1.0  0.76016  0.34213  0.41967  1.0000
  C   C35       1.0  0.24769  0.61860  0.49217  1.0000
  C   C36       1.0  0.75230  0.38141  0.50783  1.0000
  C   C37       1.0  0.25592  0.48323  0.45610  1.0000
  C   C38       1.0  0.74408  0.51677  0.54390  1.0000
  C   C39       1.0  0.23471  0.36597  0.50235  1.0000
  C   C40       1.0  0.76527  0.63404  0.49765  1.0000
  C   C41       1.0  0.24037  0.24006  0.45966  1.0000
  C   C42       1.0  0.75962  0.75995  0.54034  1.0000
  C   C43       1.0  0.26812  0.23441  0.37075  1.0000
  C   C44       1.0  0.73187  0.76559  0.62925  1.0000
  C   C45       1.0  0.29062  0.35404  0.32813  1.0000
  C   C46       1.0  0.70937  0.64595  0.67187  1.0000
  N   N1        1.0  0.71474  0.41243  0.98488  1.0000
  N   N2        1.0  0.28526  0.58757  0.01512  1.0000
  N   N3        1.0  0.28563  0.47854  0.36892  1.0000
  N   N4        1.0  0.71436  0.52145  0.63109  1.0000
  N   N5        1.0  0.25476  0.71118  0.43104  1.0000
  N   N6        1.0  0.74524  0.28882  0.56896  1.0000
  O   O1        1.0  0.00214  0.54162  0.27470  1.0000
  O   O2        1.0  0.99785  0.45838  0.72529  1.0000
  O   O3        1.0  0.74329  0.60790  0.23928  1.0000
  O   O4        1.0  0.25669  0.39210  0.76072  1.0000
  O   O5        1.0  0.01181  0.19672  0.01487  1.0000
  O   O6        1.0  0.98821  0.80330  0.98514  1.0000
  O   O7        1.0  0.24849  0.80572  0.25824  1.0000
  O   O8        1.0  0.75152  0.19427  0.74177  1.0000
  O   O9        1.0  0.56038  0.94563  0.23134  1.0000
  O   O10       1.0  0.43962  0.05435  0.76866  1.0000
  O   O11       1.0  0.58030  0.76378  0.33268  1.0000
  O   O12       1.0  0.41970  0.23621  0.66732  1.0000
  O   O13       1.0  0.36522  0.55762  0.19088  1.0000
  O   O14       1.0  0.63477  0.44235  0.80911  1.0000
