data_image0
_chemical_formula_structural       Zn8H56C52N16Cl16
_chemical_formula_sum              "Zn8 H56 C52 N16 Cl16"
_cell_length_a       6.95747
_cell_length_b       8.81663
_cell_length_c       29.053
_cell_angle_alpha    96.8485
_cell_angle_beta     90
_cell_angle_gamma    90

_space_group_name_H-M_alt    "P 1"
_space_group_IT_number       1

loop_
  _space_group_symop_operation_xyz
  'x, y, z'

loop_
  _atom_site_type_symbol
  _atom_site_label
  _atom_site_symmetry_multiplicity
  _atom_site_fract_x
  _atom_site_fract_y
  _atom_site_fract_z
  _atom_site_occupancy
  Zn  Zn1       1.0  0.83666  0.58744  0.83955  1.0000
  Zn  Zn2       1.0  0.33666  0.91256  0.66045  1.0000
  Zn  Zn3       1.0  0.16334  0.41256  0.16045  1.0000
  Zn  Zn4       1.0  0.66335  0.08744  0.33955  1.0000
  Zn  Zn5       1.0  0.33036  0.74227  0.87087  1.0000
  Zn  Zn6       1.0  0.83036  0.75773  0.62913  1.0000
  Zn  Zn7       1.0  0.66964  0.25773  0.12913  1.0000
  Zn  Zn8       1.0  0.16964  0.24227  0.37087  1.0000
  H   H1        1.0  0.86499  0.88148  0.90884  1.0000
  H   H2        1.0  0.36501  0.61853  0.59116  1.0000
  H   H3        1.0  0.13500  0.11852  0.09115  1.0000
  H   H4        1.0  0.63501  0.38148  0.40884  1.0000
  H   H5        1.0  0.83019  0.94908  0.99535  1.0000
  H   H6        1.0  0.33018  0.55092  0.50465  1.0000
  H   H7        1.0  0.16982  0.05092  0.00465  1.0000
  H   H8        1.0  0.66980  0.44908  0.49535  1.0000
  H   H9        1.0  0.77957  0.73604  0.04398  1.0000
  H   H10       1.0  0.27956  0.76395  0.45602  1.0000
  H   H11       1.0  0.22045  0.26396  0.95602  1.0000
  H   H12       1.0  0.72041  0.23604  0.54398  1.0000
  H   H13       1.0  0.75605  0.47073  0.00613  1.0000
  H   H14       1.0  0.25604  0.02927  0.49387  1.0000
  H   H15       1.0  0.24396  0.52928  0.99387  1.0000
  H   H16       1.0  0.74394  0.97072  0.50613  1.0000
  H   H17       1.0  0.63639  0.16195  0.91541  1.0000
  H   H18       1.0  0.13639  0.33805  0.58459  1.0000
  H   H19       1.0  0.36362  0.83805  0.08459  1.0000
  H   H20       1.0  0.86361  0.66195  0.41541  1.0000
  H   H21       1.0  0.59987  0.30108  0.96327  1.0000
  H   H22       1.0  0.09987  0.19892  0.53673  1.0000
  H   H23       1.0  0.40014  0.69892  0.03673  1.0000
  H   H24       1.0  0.90013  0.80109  0.46327  1.0000
  H   H25       1.0  0.82193  0.20440  0.95747  1.0000
  H   H26       1.0  0.32193  0.29559  0.54253  1.0000
  H   H27       1.0  0.17808  0.79559  0.04253  1.0000
  H   H28       1.0  0.67807  0.70441  0.45747  1.0000
  H   H29       1.0  0.94778  0.10881  0.88123  1.0000
  H   H30       1.0  0.44778  0.39118  0.61877  1.0000
  H   H31       1.0  0.05222  0.89118  0.11877  1.0000
  H   H32       1.0  0.55222  0.60881  0.38123  1.0000
  H   H33       1.0  0.96099  0.03721  0.82217  1.0000
  H   H34       1.0  0.46099  0.46278  0.67782  1.0000
  H   H35       1.0  0.03901  0.96279  0.17782  1.0000
  H   H36       1.0  0.53902  0.53721  0.32218  1.0000
  H   H37       1.0  0.73817  0.02499  0.85159  1.0000
  H   H38       1.0  0.23818  0.47501  0.64841  1.0000
  H   H39       1.0  0.26182  0.97501  0.14841  1.0000
  H   H40       1.0  0.76183  0.52499  0.35159  1.0000
  H   H41       1.0  0.81940  0.03599  0.75975  1.0000
  H   H42       1.0  0.31941  0.46402  0.74025  1.0000
  H   H43       1.0  0.18060  0.96402  0.24025  1.0000
  H   H44       1.0  0.68059  0.53599  0.25975  1.0000
  H   H45       1.0  0.83103  0.10115  0.67925  1.0000
  H   H46       1.0  0.33103  0.39885  0.82075  1.0000
  H   H47       1.0  0.16897  0.89886  0.32075  1.0000
  H   H48       1.0  0.66897  0.60115  0.17925  1.0000
  H   H49       1.0  0.84084  0.37762  0.66490  1.0000
  H   H50       1.0  0.34084  0.12239  0.83510  1.0000
  H   H51       1.0  0.15916  0.62239  0.33510  1.0000
  H   H52       1.0  0.65916  0.87761  0.16490  1.0000
  H   H53       1.0  0.83764  0.57791  0.73400  1.0000
  H   H54       1.0  0.33763  0.92209  0.76600  1.0000
  H   H55       1.0  0.16236  0.42209  0.26600  1.0000
  H   H56       1.0  0.66236  0.07791  0.23400  1.0000
  C   C1        1.0  0.83971  0.79431  0.93169  1.0000
  C   C2        1.0  0.33973  0.70569  0.56831  1.0000
  C   C3        1.0  0.16028  0.20569  0.06831  1.0000
  C   C4        1.0  0.66028  0.29431  0.43169  1.0000
  C   C5        1.0  0.82299  0.83095  0.97950  1.0000
  C   C6        1.0  0.32300  0.66905  0.52050  1.0000
  C   C7        1.0  0.17701  0.16905  0.02050  1.0000
  C   C8        1.0  0.67700  0.33095  0.47950  1.0000
  C   C9        1.0  0.79351  0.71250  0.00643  1.0000
  C   C10       1.0  0.29350  0.78750  0.49358  1.0000
  C   C11       1.0  0.20651  0.28750  0.99357  1.0000
  C   C12       1.0  0.70648  0.21251  0.50643  1.0000
  C   C13       1.0  0.77949  0.56289  0.98497  1.0000
  C   C14       1.0  0.27948  0.93711  0.51503  1.0000
  C   C15       1.0  0.22052  0.43711  0.01503  1.0000
  C   C16       1.0  0.72050  0.06289  0.48497  1.0000
  C   C17       1.0  0.79510  0.53473  0.93674  1.0000
  C   C18       1.0  0.29510  0.96527  0.56326  1.0000
  C   C19       1.0  0.20490  0.46528  0.06326  1.0000
  C   C20       1.0  0.70490  0.03472  0.43674  1.0000
  C   C21       1.0  0.77792  0.37887  0.91167  1.0000
  C   C22       1.0  0.27792  0.12113  0.58833  1.0000
  C   C23       1.0  0.22209  0.62113  0.08833  1.0000
  C   C24       1.0  0.72208  0.87888  0.41168  1.0000
  C   C25       1.0  0.70704  0.25361  0.93785  1.0000
  C   C26       1.0  0.20704  0.24639  0.56215  1.0000
  C   C27       1.0  0.29297  0.74638  0.06215  1.0000
  C   C28       1.0  0.79296  0.75362  0.43785  1.0000
  C   C29       1.0  0.86663  0.09558  0.84873  1.0000
  C   C30       1.0  0.36663  0.40442  0.65127  1.0000
  C   C31       1.0  0.13337  0.90442  0.15127  1.0000
  C   C32       1.0  0.63339  0.59558  0.34873  1.0000
  C   C33       1.0  0.82691  0.27492  0.78995  1.0000
  C   C34       1.0  0.32691  0.22508  0.71005  1.0000
  C   C35       1.0  0.17309  0.72508  0.21005  1.0000
  C   C36       1.0  0.67309  0.77492  0.28995  1.0000
  C   C37       1.0  0.82686  0.15496  0.75339  1.0000
  C   C38       1.0  0.32686  0.34504  0.74661  1.0000
  C   C39       1.0  0.17314  0.84504  0.24661  1.0000
  C   C40       1.0  0.67314  0.65496  0.25339  1.0000
  C   C41       1.0  0.83213  0.19190  0.70828  1.0000
  C   C42       1.0  0.33214  0.30810  0.79172  1.0000
  C   C43       1.0  0.16787  0.80810  0.29172  1.0000
  C   C44       1.0  0.66786  0.69190  0.20828  1.0000
  C   C45       1.0  0.83735  0.34508  0.69993  1.0000
  C   C46       1.0  0.33735  0.15492  0.80007  1.0000
  C   C47       1.0  0.16265  0.65493  0.30007  1.0000
  C   C48       1.0  0.66265  0.84508  0.19993  1.0000
  C   C49       1.0  0.83498  0.45645  0.73787  1.0000
  C   C50       1.0  0.33497  0.04355  0.76213  1.0000
  C   C51       1.0  0.16503  0.54356  0.26213  1.0000
  C   C52       1.0  0.66502  0.95645  0.23787  1.0000
  N   N1        1.0  0.82658  0.65082  0.91105  1.0000
  N   N2        1.0  0.32660  0.84918  0.58895  1.0000
  N   N3        1.0  0.17341  0.34918  0.08895  1.0000
  N   N4        1.0  0.67342  0.15082  0.41105  1.0000
  N   N5        1.0  0.81614  0.37291  0.86767  1.0000
  N   N6        1.0  0.31614  0.12708  0.63233  1.0000
  N   N7        1.0  0.18386  0.62709  0.13233  1.0000
  N   N8        1.0  0.68386  0.87291  0.36767  1.0000
  N   N9        1.0  0.82051  0.24740  0.83641  1.0000
  N   N10       1.0  0.32050  0.25261  0.66359  1.0000
  N   N11       1.0  0.17949  0.75261  0.16359  1.0000
  N   N12       1.0  0.67950  0.74740  0.33641  1.0000
  N   N13       1.0  0.82866  0.42207  0.78175  1.0000
  N   N14       1.0  0.32865  0.07794  0.71825  1.0000
  N   N15       1.0  0.17134  0.57794  0.21825  1.0000
  N   N16       1.0  0.67134  0.92206  0.28175  1.0000
  Cl  Cl1       1.0  0.08683  0.73222  0.81425  1.0000
  Cl  Cl2       1.0  0.58682  0.76777  0.68575  1.0000
  Cl  Cl3       1.0  0.91317  0.26777  0.18575  1.0000
  Cl  Cl4       1.0  0.41317  0.23222  0.31425  1.0000
  Cl  Cl5       1.0  0.58150  0.73897  0.81729  1.0000
  Cl  Cl6       1.0  0.08150  0.76103  0.68271  1.0000
  Cl  Cl7       1.0  0.41850  0.26103  0.18271  1.0000
  Cl  Cl8       1.0  0.91850  0.23897  0.31729  1.0000
  Cl  Cl9       1.0  0.31597  0.52791  0.90432  1.0000
  Cl  Cl10      1.0  0.81597  0.97209  0.59568  1.0000
  Cl  Cl11      1.0  0.68403  0.47209  0.09568  1.0000
  Cl  Cl12      1.0  0.18403  0.02791  0.40432  1.0000
  Cl  Cl13      1.0  0.32154  0.96921  0.91374  1.0000
  Cl  Cl14      1.0  0.82155  0.53078  0.58626  1.0000
  Cl  Cl15      1.0  0.67845  0.03078  0.08626  1.0000
  Cl  Cl16      1.0  0.17846  0.46921  0.41374  1.0000
