data_image0
_chemical_formula_structural       Zn4H24C32O20
_chemical_formula_sum              "Zn4 H24 C32 O20"
_cell_length_a       6.61693
_cell_length_b       12.1305
_cell_length_c       16.5735
_cell_angle_alpha    90.0006
_cell_angle_beta     90.0004
_cell_angle_gamma    98.1653

_space_group_name_H-M_alt    "P 1"
_space_group_IT_number       1

loop_
  _space_group_symop_operation_xyz
  'x, y, z'

loop_
  _atom_site_type_symbol
  _atom_site_label
  _atom_site_symmetry_multiplicity
  _atom_site_fract_x
  _atom_site_fract_y
  _atom_site_fract_z
  _atom_site_occupancy
  Zn  Zn1       1.0  0.30920  0.92856  0.99763  1.0000
  Zn  Zn2       1.0  0.19080  0.57144  0.49763  1.0000
  Zn  Zn3       1.0  0.69081  0.07144  0.00236  1.0000
  Zn  Zn4       1.0  0.80919  0.42856  0.50236  1.0000
  H   H1        1.0  0.98327  0.88432  0.17599  1.0000
  H   H2        1.0  0.51674  0.61567  0.67599  1.0000
  H   H3        1.0  0.01672  0.11569  0.82401  1.0000
  H   H4        1.0  0.48327  0.38431  0.32402  1.0000
  H   H5        1.0  0.10133  0.77753  0.29127  1.0000
  H   H6        1.0  0.39866  0.72246  0.79127  1.0000
  H   H7        1.0  0.89862  0.22248  0.70874  1.0000
  H   H8        1.0  0.60137  0.27751  0.20875  1.0000
  H   H9        1.0  0.50994  0.57707  0.30207  1.0000
  H   H10       1.0  0.99004  0.92294  0.80207  1.0000
  H   H11       1.0  0.49004  0.42295  0.69794  1.0000
  H   H12       1.0  0.01000  0.07704  0.19794  1.0000
  H   H13       1.0  0.39122  0.68446  0.18710  1.0000
  H   H14       1.0  0.10876  0.81556  0.68710  1.0000
  H   H15       1.0  0.60877  0.31556  0.81290  1.0000
  H   H16       1.0  0.89125  0.18443  0.31290  1.0000
  H   H17       1.0  0.93347  0.87708  0.03320  1.0000
  H   H18       1.0  0.56651  0.62293  0.53320  1.0000
  H   H19       1.0  0.06653  0.12292  0.96680  1.0000
  H   H20       1.0  0.43349  0.37708  0.46680  1.0000
  H   H21       1.0  0.95013  0.89084  0.94194  1.0000
  H   H22       1.0  0.54985  0.60917  0.44195  1.0000
  H   H23       1.0  0.04987  0.10917  0.05806  1.0000
  H   H24       1.0  0.45013  0.39083  0.55805  1.0000
  C   C1        1.0  0.67932  0.79090  0.17480  1.0000
  C   C2        1.0  0.82071  0.70911  0.67479  1.0000
  C   C3        1.0  0.32069  0.20911  0.82521  1.0000
  C   C4        1.0  0.17931  0.29088  0.32520  1.0000
  C   C5        1.0  0.88012  0.81680  0.20364  1.0000
  C   C6        1.0  0.61988  0.68319  0.70364  1.0000
  C   C7        1.0  0.11987  0.18320  0.79636  1.0000
  C   C8        1.0  0.38015  0.31680  0.29636  1.0000
  C   C9        1.0  0.94664  0.75747  0.26782  1.0000
  C   C10       1.0  0.55337  0.74252  0.76780  1.0000
  C   C11       1.0  0.05337  0.24254  0.73219  1.0000
  C   C12       1.0  0.44666  0.25747  0.23220  1.0000
  C   C13       1.0  0.81317  0.67137  0.30389  1.0000
  C   C14       1.0  0.68684  0.82865  0.80389  1.0000
  C   C15       1.0  0.18681  0.32865  0.69610  1.0000
  C   C16       1.0  0.31318  0.17136  0.19611  1.0000
  C   C17       1.0  0.61311  0.64456  0.27437  1.0000
  C   C18       1.0  0.88686  0.85545  0.77437  1.0000
  C   C19       1.0  0.38684  0.35544  0.72563  1.0000
  C   C20       1.0  0.11316  0.14455  0.22562  1.0000
  C   C21       1.0  0.54636  0.70401  0.21025  1.0000
  C   C22       1.0  0.95362  0.79600  0.71024  1.0000
  C   C23       1.0  0.45361  0.29599  0.78976  1.0000
  C   C24       1.0  0.04637  0.20399  0.28975  1.0000
  C   C25       1.0  0.60704  0.85764  0.10759  1.0000
  C   C26       1.0  0.89296  0.64237  0.60759  1.0000
  C   C27       1.0  0.39294  0.14237  0.89240  1.0000
  C   C28       1.0  0.10705  0.35764  0.39240  1.0000
  C   C29       1.0  0.88263  0.60976  0.37458  1.0000
  C   C30       1.0  0.61733  0.89022  0.87458  1.0000
  C   C31       1.0  0.11735  0.39023  0.62543  1.0000
  C   C32       1.0  0.38268  0.10977  0.12543  1.0000
  O   O1        1.0  0.42326  0.83520  0.08414  1.0000
  O   O2        1.0  0.07675  0.66479  0.58415  1.0000
  O   O3        1.0  0.57674  0.16479  0.91585  1.0000
  O   O4        1.0  0.92326  0.33520  0.41586  1.0000
  O   O5        1.0  0.73863  0.93505  0.07766  1.0000
  O   O6        1.0  0.76138  0.56497  0.57765  1.0000
  O   O7        1.0  0.26137  0.06496  0.92234  1.0000
  O   O8        1.0  0.23865  0.43505  0.42233  1.0000
  O   O9        1.0  0.74970  0.53530  0.40681  1.0000
  O   O10       1.0  0.75025  0.96470  0.90682  1.0000
  O   O11       1.0  0.25025  0.46469  0.59318  1.0000
  O   O12       1.0  0.24976  0.03529  0.09318  1.0000
  O   O13       1.0  0.06513  0.63549  0.39899  1.0000
  O   O14       1.0  0.43484  0.86450  0.89898  1.0000
  O   O15       1.0  0.93486  0.36452  0.60102  1.0000
  O   O16       1.0  0.56520  0.13550  0.10102  1.0000
  O   O17       1.0  0.01777  0.85668  0.98711  1.0000
  O   O18       1.0  0.48221  0.64333  0.48712  1.0000
  O   O19       1.0  0.98223  0.14332  0.01289  1.0000
  O   O20       1.0  0.51778  0.35667  0.51288  1.0000
