data_image0
_chemical_formula_structural       Ca4H48C40O32
_chemical_formula_sum              "Ca4 H48 C40 O32"
_cell_length_a       6.93071
_cell_length_b       7.60473
_cell_length_c       23.24
_cell_angle_alpha    93.3156
_cell_angle_beta     90
_cell_angle_gamma    90

_space_group_name_H-M_alt    "P 1"
_space_group_IT_number       1

loop_
  _space_group_symop_operation_xyz
  'x, y, z'

loop_
  _atom_site_type_symbol
  _atom_site_label
  _atom_site_symmetry_multiplicity
  _atom_site_fract_x
  _atom_site_fract_y
  _atom_site_fract_z
  _atom_site_occupancy
  Ca  Ca1       1.0  0.41369  0.66758  0.31637  1.0000
  Ca  Ca2       1.0  0.91369  0.83243  0.18363  1.0000
  Ca  Ca3       1.0  0.58631  0.33242  0.68363  1.0000
  Ca  Ca4       1.0  0.08631  0.16758  0.81637  1.0000
  H   H1        1.0  0.31916  0.63787  0.54235  1.0000
  H   H2        1.0  0.81916  0.86212  0.95766  1.0000
  H   H3        1.0  0.68084  0.36212  0.45765  1.0000
  H   H4        1.0  0.18085  0.13789  0.04234  1.0000
  H   H5        1.0  0.55292  0.77049  0.61268  1.0000
  H   H6        1.0  0.05290  0.72952  0.88732  1.0000
  H   H7        1.0  0.44708  0.22951  0.38732  1.0000
  H   H8        1.0  0.94709  0.27050  0.11268  1.0000
  H   H9        1.0  0.83287  0.93988  0.57909  1.0000
  H   H10       1.0  0.33287  0.56014  0.92091  1.0000
  H   H11       1.0  0.16713  0.06011  0.42091  1.0000
  H   H12       1.0  0.66713  0.43988  0.07909  1.0000
  H   H13       1.0  0.87984  0.97576  0.47396  1.0000
  H   H14       1.0  0.37986  0.52427  0.02604  1.0000
  H   H15       1.0  0.12016  0.02422  0.52604  1.0000
  H   H16       1.0  0.62014  0.47575  0.97396  1.0000
  H   H17       1.0  0.79013  0.06960  0.38407  1.0000
  H   H18       1.0  0.29014  0.43040  0.11592  1.0000
  H   H19       1.0  0.20988  0.93038  0.61593  1.0000
  H   H20       1.0  0.70987  0.56961  0.88407  1.0000
  H   H21       1.0  0.94108  0.87890  0.38506  1.0000
  H   H22       1.0  0.44110  0.62111  0.11494  1.0000
  H   H23       1.0  0.05893  0.12109  0.61494  1.0000
  H   H24       1.0  0.55891  0.37889  0.88506  1.0000
  H   H25       1.0  0.20515  0.46700  0.46930  1.0000
  H   H26       1.0  0.70514  0.03300  0.03070  1.0000
  H   H27       1.0  0.79484  0.53299  0.53070  1.0000
  H   H28       1.0  0.29485  0.96701  0.96930  1.0000
  H   H29       1.0  0.08822  0.67584  0.47102  1.0000
  H   H30       1.0  0.58823  0.82416  0.02899  1.0000
  H   H31       1.0  0.91178  0.32416  0.52898  1.0000
  H   H32       1.0  0.41178  0.17585  0.97101  1.0000
  H   H33       1.0  0.64539  0.34045  0.29592  1.0000
  H   H34       1.0  0.14538  0.15956  0.20408  1.0000
  H   H35       1.0  0.35461  0.65954  0.70408  1.0000
  H   H36       1.0  0.85461  0.84045  0.79593  1.0000
  H   H37       1.0  0.74452  0.42583  0.35387  1.0000
  H   H38       1.0  0.24452  0.07417  0.14613  1.0000
  H   H39       1.0  0.25548  0.57416  0.64613  1.0000
  H   H40       1.0  0.75547  0.92584  0.85387  1.0000
  H   H41       1.0  0.17889  0.99223  0.29783  1.0000
  H   H42       1.0  0.67889  0.50777  0.20217  1.0000
  H   H43       1.0  0.82111  0.00776  0.70217  1.0000
  H   H44       1.0  0.32112  0.49223  0.79783  1.0000
  H   H45       1.0  0.38060  0.99208  0.26743  1.0000
  H   H46       1.0  0.88061  0.50793  0.23256  1.0000
  H   H47       1.0  0.61940  0.00791  0.73257  1.0000
  H   H48       1.0  0.11939  0.49208  0.76744  1.0000
  C   C1        1.0  0.63241  0.81920  0.44899  1.0000
  C   C2        1.0  0.13242  0.68082  0.05101  1.0000
  C   C3        1.0  0.36760  0.18078  0.55101  1.0000
  C   C4        1.0  0.86759  0.31921  0.94899  1.0000
  C   C5        1.0  0.47141  0.72646  0.46835  1.0000
  C   C6        1.0  0.97141  0.77355  0.03166  1.0000
  C   C7        1.0  0.52859  0.27352  0.53166  1.0000
  C   C8        1.0  0.02859  0.22647  0.96834  1.0000
  C   C9        1.0  0.44347  0.70911  0.52704  1.0000
  C   C10       1.0  0.94346  0.79089  0.97297  1.0000
  C   C11       1.0  0.55653  0.29089  0.47296  1.0000
  C   C12       1.0  0.05653  0.20911  0.02704  1.0000
  C   C13       1.0  0.57502  0.78554  0.56684  1.0000
  C   C14       1.0  0.07500  0.71445  0.93316  1.0000
  C   C15       1.0  0.42498  0.21446  0.43316  1.0000
  C   C16       1.0  0.92498  0.28555  0.06684  1.0000
  C   C17       1.0  0.73265  0.87902  0.54784  1.0000
  C   C18       1.0  0.23264  0.62100  0.95216  1.0000
  C   C19       1.0  0.26735  0.12097  0.45216  1.0000
  C   C20       1.0  0.76735  0.37902  0.04783  1.0000
  C   C21       1.0  0.76155  0.89628  0.48880  1.0000
  C   C22       1.0  0.26155  0.60374  0.01120  1.0000
  C   C23       1.0  0.23846  0.10370  0.51120  1.0000
  C   C24       1.0  0.73845  0.39628  0.98880  1.0000
  C   C25       1.0  0.80307  0.92972  0.36934  1.0000
  C   C26       1.0  0.30309  0.57028  0.13066  1.0000
  C   C27       1.0  0.19693  0.07026  0.63066  1.0000
  C   C28       1.0  0.69692  0.42972  0.86934  1.0000
  C   C29       1.0  0.80804  0.91154  0.30406  1.0000
  C   C30       1.0  0.30804  0.58845  0.19594  1.0000
  C   C31       1.0  0.19197  0.08844  0.69594  1.0000
  C   C32       1.0  0.69196  0.41155  0.80406  1.0000
  C   C33       1.0  0.17288  0.58063  0.44386  1.0000
  C   C34       1.0  0.67288  0.91937  0.05615  1.0000
  C   C35       1.0  0.82712  0.41936  0.55614  1.0000
  C   C36       1.0  0.32713  0.08063  0.94385  1.0000
  C   C37       1.0  0.05497  0.51974  0.39102  1.0000
  C   C38       1.0  0.55496  0.98027  0.10898  1.0000
  C   C39       1.0  0.94503  0.48026  0.60898  1.0000
  C   C40       1.0  0.44504  0.01973  0.89102  1.0000
  O   O1        1.0  0.62633  0.42776  0.32753  1.0000
  O   O2        1.0  0.12634  0.07225  0.17248  1.0000
  O   O3        1.0  0.37367  0.57223  0.67247  1.0000
  O   O4        1.0  0.87366  0.92776  0.82753  1.0000
  O   O5        1.0  0.31984  0.97585  0.30466  1.0000
  O   O6        1.0  0.81984  0.52416  0.19534  1.0000
  O   O7        1.0  0.68016  0.02415  0.69534  1.0000
  O   O8        1.0  0.18017  0.47585  0.80466  1.0000
  O   O9        1.0  0.64619  0.82915  0.39007  1.0000
  O   O10       1.0  0.14620  0.67084  0.10993  1.0000
  O   O11       1.0  0.35381  0.17084  0.60993  1.0000
  O   O12       1.0  0.85380  0.32915  0.89007  1.0000
  O   O13       1.0  0.68688  0.81420  0.27679  1.0000
  O   O14       1.0  0.18688  0.68579  0.22321  1.0000
  O   O15       1.0  0.31312  0.18579  0.72321  1.0000
  O   O16       1.0  0.81312  0.31421  0.77679  1.0000
  O   O17       1.0  0.94095  0.99482  0.27928  1.0000
  O   O18       1.0  0.44095  0.50517  0.22072  1.0000
  O   O19       1.0  0.05905  0.00517  0.72072  1.0000
  O   O20       1.0  0.55906  0.49483  0.77928  1.0000
  O   O21       1.0  0.34842  0.66179  0.42555  1.0000
  O   O22       1.0  0.84842  0.83821  0.07445  1.0000
  O   O23       1.0  0.65158  0.33821  0.57445  1.0000
  O   O24       1.0  0.15158  0.16179  0.92555  1.0000
  O   O25       1.0  0.11328  0.55711  0.34144  1.0000
  O   O26       1.0  0.61329  0.94290  0.15856  1.0000
  O   O27       1.0  0.88672  0.44289  0.65856  1.0000
  O   O28       1.0  0.38671  0.05710  0.84144  1.0000
  O   O29       1.0  0.90201  0.43735  0.40207  1.0000
  O   O30       1.0  0.40200  0.06266  0.09794  1.0000
  O   O31       1.0  0.09800  0.56264  0.59794  1.0000
  O   O32       1.0  0.59800  0.93735  0.90206  1.0000
