data_image0
_chemical_formula_structural       Na2H24C22O10F6
_chemical_formula_sum              "Na2 H24 C22 O10 F6"
_cell_length_a       7.10123
_cell_length_b       8.8905
_cell_length_c       11.4717
_cell_angle_alpha    91.9585
_cell_angle_beta     103.951
_cell_angle_gamma    110.012

_space_group_name_H-M_alt    "P 1"
_space_group_IT_number       1

loop_
  _space_group_symop_operation_xyz
  'x, y, z'

loop_
  _atom_site_type_symbol
  _atom_site_label
  _atom_site_symmetry_multiplicity
  _atom_site_fract_x
  _atom_site_fract_y
  _atom_site_fract_z
  _atom_site_occupancy
  Na  Na1       1.0  0.22820  0.48711  0.96521  1.0000
  Na  Na2       1.0  0.77180  0.51289  0.03479  1.0000
  H   H1        1.0  0.32927  0.06429  0.69510  1.0000
  H   H2        1.0  0.67074  0.93571  0.30491  1.0000
  H   H3        1.0  0.32703  0.13508  0.95994  1.0000
  H   H4        1.0  0.67297  0.86491  0.04006  1.0000
  H   H5        1.0  0.91552  0.59920  0.56680  1.0000
  H   H6        1.0  0.08448  0.40080  0.43320  1.0000
  H   H7        1.0  0.05028  0.68896  0.38787  1.0000
  H   H8        1.0  0.94973  0.31104  0.61214  1.0000
  H   H9        1.0  0.26155  0.84824  0.24088  1.0000
  H   H10       1.0  0.73845  0.15177  0.75912  1.0000
  H   H11       1.0  0.47046  0.14026  0.30649  1.0000
  H   H12       1.0  0.52953  0.85975  0.69351  1.0000
  H   H13       1.0  0.18303  0.62395  0.59840  1.0000
  H   H14       1.0  0.81697  0.37605  0.40161  1.0000
  H   H15       1.0  0.25033  0.86036  0.48098  1.0000
  H   H16       1.0  0.74967  0.13964  0.51902  1.0000
  H   H17       1.0  0.02787  0.88994  0.19785  1.0000
  H   H18       1.0  0.97213  0.11006  0.80215  1.0000
  H   H19       1.0  0.24704  0.19125  0.24815  1.0000
  H   H20       1.0  0.75294  0.80875  0.75184  1.0000
  H   H21       1.0  0.98478  0.84302  0.45177  1.0000
  H   H22       1.0  0.01522  0.15699  0.54823  1.0000
  H   H23       1.0  0.26193  0.08603  0.37619  1.0000
  H   H24       1.0  0.73807  0.91398  0.62381  1.0000
  C   C1        1.0  0.50722  0.38069  0.68698  1.0000
  C   C2        1.0  0.49277  0.61931  0.31302  1.0000
  C   C3        1.0  0.43222  0.30065  0.79315  1.0000
  C   C4        1.0  0.56778  0.69936  0.20684  1.0000
  C   C5        1.0  0.34861  0.13150  0.78047  1.0000
  C   C6        1.0  0.65140  0.86849  0.21952  1.0000
  C   C7        1.0  0.29445  0.05364  0.87807  1.0000
  C   C8        1.0  0.70556  0.94636  0.12193  1.0000
  C   C9        1.0  0.21235  0.89015  0.88965  1.0000
  C   C10       1.0  0.78767  0.10986  0.11035  1.0000
  C   C11       1.0  0.16400  0.75990  0.79210  1.0000
  C   C12       1.0  0.83602  0.24011  0.20790  1.0000
  C   C13       1.0  0.07307  0.68709  0.57766  1.0000
  C   C14       1.0  0.92694  0.31292  0.42234  1.0000
  C   C15       1.0  0.09059  0.77576  0.46850  1.0000
  C   C16       1.0  0.90942  0.22424  0.53150  1.0000
  C   C17       1.0  0.17275  0.84279  0.00507  1.0000
  C   C18       1.0  0.82725  0.15721  0.99493  1.0000
  C   C19       1.0  0.19629  0.93918  0.20811  1.0000
  C   C20       1.0  0.80371  0.06082  0.79189  1.0000
  C   C21       1.0  0.30074  0.09853  0.28927  1.0000
  C   C22       1.0  0.69925  0.90147  0.71073  1.0000
  O   O1        1.0  0.45777  0.39964  0.88309  1.0000
  O   O2        1.0  0.54223  0.60035  0.11691  1.0000
  O   O3        1.0  0.16398  0.62279  0.80541  1.0000
  O   O4        1.0  0.83603  0.37721  0.19460  1.0000
  O   O5        1.0  0.11929  0.80648  0.68061  1.0000
  O   O6        1.0  0.88071  0.19352  0.31939  1.0000
  O   O7        1.0  0.09038  0.70186  0.02611  1.0000
  O   O8        1.0  0.90963  0.29814  0.97389  1.0000
  O   O9        1.0  0.23075  0.97057  0.09011  1.0000
  O   O10       1.0  0.76923  0.02943  0.90988  1.0000
  F   F1        1.0  0.71083  0.48139  0.72654  1.0000
  F   F2        1.0  0.28919  0.51858  0.27345  1.0000
  F   F3        1.0  0.39636  0.47283  0.63782  1.0000
  F   F4        1.0  0.60366  0.52718  0.36219  1.0000
  F   F5        1.0  0.49420  0.27390  0.59374  1.0000
  F   F6        1.0  0.50576  0.72608  0.40625  1.0000
