data_image0
_chemical_formula_structural       Cd2H32C40N12O8
_chemical_formula_sum              "Cd2 H32 C40 N12 O8"
_cell_length_a       7.08616
_cell_length_b       9.9703
_cell_length_c       15.5098
_cell_angle_alpha    85.3175
_cell_angle_beta     76.7901
_cell_angle_gamma    69.2193

_space_group_name_H-M_alt    "P 1"
_space_group_IT_number       1

loop_
  _space_group_symop_operation_xyz
  'x, y, z'

loop_
  _atom_site_type_symbol
  _atom_site_label
  _atom_site_symmetry_multiplicity
  _atom_site_fract_x
  _atom_site_fract_y
  _atom_site_fract_z
  _atom_site_occupancy
  Cd  Cd1       1.0  0.04617  0.00008  0.00001  1.0000
  Cd  Cd2       1.0  0.79566  0.50021  0.50015  1.0000
  H   H1        1.0  0.44515  0.89843  0.69991  1.0000
  H   H2        1.0  0.04340  0.10189  0.30028  1.0000
  H   H3        1.0  0.09338  0.60162  0.20008  1.0000
  H   H4        1.0  0.89556  0.39826  0.79975  1.0000
  H   H5        1.0  0.77914  0.84277  0.58649  1.0000
  H   H6        1.0  0.20854  0.15778  0.41359  1.0000
  H   H7        1.0  0.37178  0.65711  0.08662  1.0000
  H   H8        1.0  0.11585  0.34252  0.91335  1.0000
  H   H9        1.0  0.11517  0.69612  0.79550  1.0000
  H   H10       1.0  0.60711  0.30403  0.20436  1.0000
  H   H11       1.0  0.56162  0.80382  0.29547  1.0000
  H   H12       1.0  0.66114  0.19598  0.70457  1.0000
  H   H13       1.0  0.78219  0.73767  0.90568  1.0000
  H   H14       1.0  0.42570  0.26232  0.09429  1.0000
  H   H15       1.0  0.27002  0.76247  0.40565  1.0000
  H   H16       1.0  0.43868  0.23762  0.59424  1.0000
  H   H17       1.0  0.20151  0.08004  0.57274  1.0000
  H   H18       1.0  0.85362  0.92008  0.42737  1.0000
  H   H19       1.0  0.03112  0.41987  0.07260  1.0000
  H   H20       1.0  0.52398  0.57988  0.92735  1.0000
  H   H21       1.0  0.04748  0.03988  0.67217  1.0000
  H   H22       1.0  0.75888  0.96026  0.32797  1.0000
  H   H23       1.0  0.83708  0.45980  0.17200  1.0000
  H   H24       1.0  0.46904  0.54003  0.82796  1.0000
  H   H25       1.0  0.96706  0.05700  0.56911  1.0000
  H   H26       1.0  0.59245  0.94330  0.43105  1.0000
  H   H27       1.0  0.77369  0.44296  0.06890  1.0000
  H   H28       1.0  0.28597  0.55662  0.93109  1.0000
  H   H29       1.0  0.30900  0.52384  0.61533  1.0000
  H   H30       1.0  0.44931  0.47637  0.38455  1.0000
  H   H31       1.0  0.58386  0.97605  0.11530  1.0000
  H   H32       1.0  0.67463  0.02366  0.88492  1.0000
  C   C1        1.0  0.39525  0.86817  0.87714  1.0000
  C   C2        1.0  0.14059  0.13185  0.12295  1.0000
  C   C3        1.0  0.01318  0.63196  0.37731  1.0000
  C   C4        1.0  0.02350  0.36802  0.62244  1.0000
  C   C5        1.0  0.59410  0.82201  0.80911  1.0000
  C   C6        1.0  0.22532  0.17806  0.19097  1.0000
  C   C7        1.0  0.16618  0.67791  0.30923  1.0000
  C   C8        1.0  0.15393  0.32199  0.69066  1.0000
  C   C9        1.0  0.59311  0.85092  0.71928  1.0000
  C   C10       1.0  0.16337  0.14934  0.28083  1.0000
  C   C11       1.0  0.19413  0.64895  0.21942  1.0000
  C   C12       1.0  0.06291  0.35085  0.78047  1.0000
  C   C13       1.0  0.77772  0.82329  0.65672  1.0000
  C   C14       1.0  0.25797  0.17701  0.34333  1.0000
  C   C15       1.0  0.35122  0.67650  0.15683  1.0000
  C   C16       1.0  0.18478  0.32319  0.84313  1.0000
  C   C17       1.0  0.96354  0.76935  0.68560  1.0000
  C   C18       1.0  0.41882  0.23090  0.31437  1.0000
  C   C19       1.0  0.48325  0.73047  0.18558  1.0000
  C   C20       1.0  0.39947  0.26922  0.81438  1.0000
  C   C21       1.0  0.96838  0.73587  0.77446  1.0000
  C   C22       1.0  0.47900  0.26426  0.22548  1.0000
  C   C23       1.0  0.45456  0.76402  0.27442  1.0000
  C   C24       1.0  0.49330  0.23582  0.72555  1.0000
  C   C25       1.0  0.78263  0.76071  0.83589  1.0000
  C   C26       1.0  0.37944  0.23933  0.16410  1.0000
  C   C27       1.0  0.29352  0.73928  0.33590  1.0000
  C   C28       1.0  0.36922  0.26068  0.66401  1.0000
  C   C29       1.0  0.10111  0.01837  0.60062  1.0000
  C   C30       1.0  0.71953  0.98184  0.39951  1.0000
  C   C31       1.0  0.86916  0.48151  0.10047  1.0000
  C   C32       1.0  0.45149  0.51820  0.89948  1.0000
  C   C33       1.0  0.22017  0.86402  0.58506  1.0000
  C   C34       1.0  0.66922  0.13618  0.41499  1.0000
  C   C35       1.0  0.83426  0.63589  0.08496  1.0000
  C   C36       1.0  0.55528  0.36385  0.91499  1.0000
  C   C37       1.0  0.31243  0.63033  0.59670  1.0000
  C   C38       1.0  0.54026  0.36987  0.40323  1.0000
  C   C39       1.0  0.69346  0.86958  0.09662  1.0000
  C   C40       1.0  0.65929  0.13017  0.90350  1.0000
  N   N1        1.0  0.46602  0.66157  0.54413  1.0000
  N   N2        1.0  0.67222  0.33855  0.45592  1.0000
  N   N3        1.0  0.87818  0.83836  0.04404  1.0000
  N   N4        1.0  0.76020  0.16146  0.95608  1.0000
  N   N5        1.0  0.40953  0.80873  0.53653  1.0000
  N   N6        1.0  0.75480  0.19140  0.46358  1.0000
  N   N7        1.0  0.96844  0.69121  0.03641  1.0000
  N   N8        1.0  0.69603  0.30862  0.96359  1.0000
  N   N9        1.0  0.15400  0.75415  0.62400  1.0000
  N   N10       1.0  0.53263  0.24610  0.37593  1.0000
  N   N11       1.0  0.65850  0.74574  0.12393  1.0000
  N   N12       1.0  0.52820  0.25397  0.87608  1.0000
  O   O1        1.0  0.22808  0.93658  0.85114  1.0000
  O   O2        1.0  0.01575  0.06343  0.14896  1.0000
  O   O3        1.0  0.91411  0.56370  0.35136  1.0000
  O   O4        1.0  0.83032  0.43664  0.64833  1.0000
  O   O5        1.0  0.40238  0.84337  0.95865  1.0000
  O   O6        1.0  0.20449  0.15665  0.04144  1.0000
  O   O7        1.0  0.99555  0.65679  0.45880  1.0000
  O   O8        1.0  0.11223  0.34289  0.54102  1.0000
