data_image0
_chemical_formula_structural       Cd2H44C60N16O8
_chemical_formula_sum              "Cd2 H44 C60 N16 O8"
_cell_length_a       7.35005
_cell_length_b       14.1579
_cell_length_c       14.615
_cell_angle_alpha    90
_cell_angle_beta     90
_cell_angle_gamma    99.4876

_space_group_name_H-M_alt    "P 1"
_space_group_IT_number       1

loop_
  _space_group_symop_operation_xyz
  'x, y, z'

loop_
  _atom_site_type_symbol
  _atom_site_label
  _atom_site_symmetry_multiplicity
  _atom_site_fract_x
  _atom_site_fract_y
  _atom_site_fract_z
  _atom_site_occupancy
  Cd  Cd1       1.0  0.49625  0.49851  0.21142  1.0000
  Cd  Cd2       1.0  0.49625  0.99851  0.78858  1.0000
  H   H1        1.0  0.62779  0.63254  0.52132  1.0000
  H   H2        1.0  0.62779  0.13254  0.47868  1.0000
  H   H3        1.0  0.84906  0.69851  0.64554  1.0000
  H   H4        1.0  0.84906  0.19851  0.35446  1.0000
  H   H5        1.0  0.29871  0.72063  0.45255  1.0000
  H   H6        1.0  0.29871  0.22063  0.54745  1.0000
  H   H7        1.0  0.07799  0.64591  0.33178  1.0000
  H   H8        1.0  0.07799  0.14590  0.66822  1.0000
  H   H9        1.0  0.03545  0.93128  0.61262  1.0000
  H   H10       1.0  0.03544  0.43128  0.38738  1.0000
  H   H11       1.0  0.26429  0.99589  0.60410  1.0000
  H   H12       1.0  0.26429  0.49589  0.39590  1.0000
  H   H13       1.0  0.17611  0.91205  0.51653  1.0000
  H   H14       1.0  0.17611  0.41205  0.48347  1.0000
  H   H15       1.0  0.27278  0.56636  0.56054  1.0000
  H   H16       1.0  0.27278  0.06636  0.43946  1.0000
  H   H17       1.0  0.26920  0.33696  0.73594  1.0000
  H   H18       1.0  0.26920  0.83696  0.26406  1.0000
  H   H19       1.0  0.30572  0.44404  0.87342  1.0000
  H   H20       1.0  0.30572  0.94404  0.12658  1.0000
  H   H21       1.0  0.31351  0.62066  0.85112  1.0000
  H   H22       1.0  0.31351  0.12066  0.14888  1.0000
  H   H23       1.0  0.92244  0.56640  0.10510  1.0000
  H   H24       1.0  0.92244  0.06640  0.89490  1.0000
  H   H25       1.0  0.70885  0.67325  0.04693  1.0000
  H   H26       1.0  0.70885  0.17325  0.95307  1.0000
  H   H27       1.0  0.17849  0.88441  0.97063  1.0000
  H   H28       1.0  0.17849  0.38441  0.02936  1.0000
  H   H29       1.0  0.39005  0.77487  0.02816  1.0000
  H   H30       1.0  0.39005  0.27487  0.97183  1.0000
  H   H31       1.0  0.75694  0.84548  0.75206  1.0000
  H   H32       1.0  0.75694  0.34548  0.24794  1.0000
  H   H33       1.0  0.97989  0.85759  0.80399  1.0000
  H   H34       1.0  0.97989  0.35759  0.19601  1.0000
  H   H35       1.0  0.81986  0.74856  0.81603  1.0000
  H   H36       1.0  0.81986  0.24856  0.18397  1.0000
  H   H37       1.0  0.68315  0.76455  0.17885  1.0000
  H   H38       1.0  0.68315  0.26455  0.82115  1.0000
  H   H39       1.0  0.72679  0.80353  0.34520  1.0000
  H   H40       1.0  0.72679  0.30353  0.65481  1.0000
  H   H41       1.0  0.79820  0.97523  0.39330  1.0000
  H   H42       1.0  0.79820  0.47523  0.60670  1.0000
  H   H43       1.0  0.79851  0.06820  0.12444  1.0000
  H   H44       1.0  0.79851  0.56820  0.87556  1.0000
  C   C1        1.0  0.71006  0.59005  0.34812  1.0000
  C   C2        1.0  0.71005  0.09005  0.65188  1.0000
  C   C3        1.0  0.84085  0.63589  0.41994  1.0000
  C   C4        1.0  0.84085  0.13589  0.58006  1.0000
  C   C5        1.0  0.77494  0.65200  0.50749  1.0000
  C   C6        1.0  0.77494  0.15200  0.49251  1.0000
  C   C7        1.0  0.89691  0.69019  0.57596  1.0000
  C   C8        1.0  0.89691  0.19020  0.42404  1.0000
  C   C9        1.0  0.08401  0.71398  0.55486  1.0000
  C   C10       1.0  0.08401  0.21398  0.44514  1.0000
  C   C11       1.0  0.15186  0.70083  0.46728  1.0000
  C   C12       1.0  0.15187  0.20083  0.53272  1.0000
  C   C13       1.0  0.02942  0.66013  0.40006  1.0000
  C   C14       1.0  0.02942  0.16013  0.59994  1.0000
  C   C15       1.0  0.17704  0.92679  0.59048  1.0000
  C   C16       1.0  0.17704  0.42679  0.40952  1.0000
  C   C17       1.0  0.25071  0.85150  0.64211  1.0000
  C   C18       1.0  0.25071  0.35150  0.35789  1.0000
  C   C19       1.0  0.29859  0.71015  0.69124  1.0000
  C   C20       1.0  0.29859  0.21015  0.30876  1.0000
  C   C21       1.0  0.29064  0.60724  0.70395  1.0000
  C   C22       1.0  0.29064  0.10724  0.29605  1.0000
  C   C23       1.0  0.27666  0.54164  0.63118  1.0000
  C   C24       1.0  0.27666  0.04164  0.36882  1.0000
  C   C25       1.0  0.27711  0.41433  0.72831  1.0000
  C   C26       1.0  0.27711  0.91433  0.27169  1.0000
  C   C27       1.0  0.29608  0.47384  0.80525  1.0000
  C   C28       1.0  0.29608  0.97384  0.19475  1.0000
  C   C29       1.0  0.30194  0.57160  0.79308  1.0000
  C   C30       1.0  0.30194  0.07160  0.20692  1.0000
  C   C31       1.0  0.28953  0.60312  0.11354  1.0000
  C   C32       1.0  0.28954  0.10312  0.88646  1.0000
  C   C33       1.0  0.16739  0.66450  0.06981  1.0000
  C   C34       1.0  0.16739  0.16450  0.93019  1.0000
  C   C35       1.0  0.97631  0.63487  0.07360  1.0000
  C   C36       1.0  0.97631  0.13487  0.92640  1.0000
  C   C37       1.0  0.85807  0.69480  0.04204  1.0000
  C   C38       1.0  0.85807  0.19480  0.95797  1.0000
  C   C39       1.0  0.93411  0.78479  0.00802  1.0000
  C   C40       1.0  0.93412  0.28479  0.99198  1.0000
  C   C41       1.0  0.12437  0.81435  0.99973  1.0000
  C   C42       1.0  0.12437  0.31435  0.00027  1.0000
  C   C43       1.0  0.24101  0.75324  0.03120  1.0000
  C   C44       1.0  0.24101  0.25324  0.96880  1.0000
  C   C45       1.0  0.83321  0.82691  0.81187  1.0000
  C   C46       1.0  0.83321  0.32691  0.18813  1.0000
  C   C47       1.0  0.75916  0.86658  0.89512  1.0000
  C   C48       1.0  0.75916  0.36658  0.10488  1.0000
  C   C49       1.0  0.71878  0.90289  0.03965  1.0000
  C   C50       1.0  0.71878  0.40289  0.96035  1.0000
  C   C51       1.0  0.74249  0.91436  0.13868  1.0000
  C   C52       1.0  0.74249  0.41436  0.86132  1.0000
  C   C53       1.0  0.72199  0.83847  0.20137  1.0000
  C   C54       1.0  0.72200  0.33847  0.79863  1.0000
  C   C55       1.0  0.74336  0.86037  0.29412  1.0000
  C   C56       1.0  0.74336  0.36037  0.70588  1.0000
  C   C57       1.0  0.78232  0.95619  0.32091  1.0000
  C   C58       1.0  0.78232  0.45619  0.67909  1.0000
  C   C59       1.0  0.78188  0.00842  0.17276  1.0000
  C   C60       1.0  0.78188  0.50842  0.82724  1.0000
  N   N1        1.0  0.36201  0.86328  0.71413  1.0000
  N   N2        1.0  0.36201  0.36328  0.28587  1.0000
  N   N3        1.0  0.39231  0.77583  0.74536  1.0000
  N   N4        1.0  0.39231  0.27583  0.25464  1.0000
  N   N5        1.0  0.20884  0.75519  0.62485  1.0000
  N   N6        1.0  0.20884  0.25519  0.37515  1.0000
  N   N7        1.0  0.26867  0.44719  0.64249  1.0000
  N   N8        1.0  0.26867  0.94719  0.35751  1.0000
  N   N9        1.0  0.63933  0.92689  0.90007  1.0000
  N   N10       1.0  0.63933  0.42689  0.09993  1.0000
  N   N11       1.0  0.61388  0.95049  0.98975  1.0000
  N   N12       1.0  0.61388  0.45049  0.01025  1.0000
  N   N13       1.0  0.81113  0.84873  0.98245  1.0000
  N   N14       1.0  0.81113  0.34873  0.01755  1.0000
  N   N15       1.0  0.80118  0.02978  0.26168  1.0000
  N   N16       1.0  0.80118  0.52978  0.73832  1.0000
  O   O1        1.0  0.77940  0.54996  0.28116  1.0000
  O   O2        1.0  0.77940  0.04996  0.71884  1.0000
  O   O3        1.0  0.53835  0.59196  0.35694  1.0000
  O   O4        1.0  0.53835  0.09196  0.64306  1.0000
  O   O5        1.0  0.21945  0.51811  0.13756  1.0000
  O   O6        1.0  0.21946  0.01812  0.86244  1.0000
  O   O7        1.0  0.45763  0.63919  0.12911  1.0000
  O   O8        1.0  0.45763  0.13919  0.87089  1.0000
