data_image0
_chemical_formula_structural       CdH26C30N8O6
_chemical_formula_sum              "Cd1 H26 C30 N8 O6"
_cell_length_a       7.62588
_cell_length_b       9.27209
_cell_length_c       11.6207
_cell_angle_alpha    78.1624
_cell_angle_beta     70.5508
_cell_angle_gamma    75.4144

_space_group_name_H-M_alt    "P 1"
_space_group_IT_number       1

loop_
  _space_group_symop_operation_xyz
  'x, y, z'

loop_
  _atom_site_type_symbol
  _atom_site_label
  _atom_site_symmetry_multiplicity
  _atom_site_fract_x
  _atom_site_fract_y
  _atom_site_fract_z
  _atom_site_occupancy
  Cd  Cd1       1.0  0.50000  0.00000  1.00000  1.0000
  H   H1        1.0  0.92759  0.46368  0.09073  1.0000
  H   H2        1.0  0.07241  0.53632  0.90927  1.0000
  H   H3        1.0  0.96141  0.24788  0.25333  1.0000
  H   H4        1.0  0.03858  0.75212  0.74668  1.0000
  H   H5        1.0  0.35322  0.29632  0.39239  1.0000
  H   H6        1.0  0.64678  0.70369  0.60761  1.0000
  H   H7        1.0  0.31921  0.51788  0.23108  1.0000
  H   H8        1.0  0.68078  0.48212  0.76892  1.0000
  H   H9        1.0  0.56516  0.23718  0.70540  1.0000
  H   H10       1.0  0.43484  0.76281  0.29460  1.0000
  H   H11       1.0  0.41087  0.29912  0.61113  1.0000
  H   H12       1.0  0.58913  0.70088  0.38887  1.0000
  H   H13       1.0  0.62973  0.35911  0.56428  1.0000
  H   H14       1.0  0.37027  0.64089  0.43572  1.0000
  H   H15       1.0  0.10174  0.79165  0.28608  1.0000
  H   H16       1.0  0.89826  0.20834  0.71392  1.0000
  H   H17       1.0  0.16941  0.70575  0.08157  1.0000
  H   H18       1.0  0.83058  0.29425  0.91843  1.0000
  H   H19       1.0  0.93520  0.81038  0.96198  1.0000
  H   H20       1.0  0.06480  0.18961  0.03803  1.0000
  H   H21       1.0  0.58135  0.06882  0.23151  1.0000
  H   H22       1.0  0.41866  0.93118  0.76849  1.0000
  H   H23       1.0  0.27625  0.06998  0.25881  1.0000
  H   H24       1.0  0.72375  0.93002  0.74119  1.0000
  H   H25       1.0  0.27680  0.20898  0.14132  1.0000
  H   H26       1.0  0.72319  0.79102  0.85868  1.0000
  C   C1        1.0  0.60437  0.63774  0.05216  1.0000
  C   C2        1.0  0.39563  0.36226  0.94784  1.0000
  C   C3        1.0  0.62045  0.50457  0.14995  1.0000
  C   C4        1.0  0.37955  0.49543  0.85005  1.0000
  C   C5        1.0  0.80116  0.42829  0.15630  1.0000
  C   C6        1.0  0.19884  0.57171  0.84370  1.0000
  C   C7        1.0  0.82131  0.30817  0.24793  1.0000
  C   C8        1.0  0.17868  0.69183  0.75207  1.0000
  C   C9        1.0  0.65961  0.26190  0.33159  1.0000
  C   C10       1.0  0.34038  0.73810  0.66841  1.0000
  C   C11       1.0  0.47756  0.33633  0.32741  1.0000
  C   C12       1.0  0.52244  0.66367  0.67259  1.0000
  C   C13       1.0  0.45951  0.45880  0.23669  1.0000
  C   C14       1.0  0.54049  0.54121  0.76331  1.0000
  C   C15       1.0  0.56029  0.26325  0.60996  1.0000
  C   C16       1.0  0.43971  0.73675  0.39004  1.0000
  C   C17       1.0  0.65511  0.13083  0.54389  1.0000
  C   C18       1.0  0.34489  0.86917  0.45611  1.0000
  C   C19       1.0  0.78338  0.98889  0.39513  1.0000
  C   C20       1.0  0.21663  0.01111  0.60487  1.0000
  C   C21       1.0  0.83596  0.93770  0.27513  1.0000
  C   C22       1.0  0.16405  0.06230  0.72486  1.0000
  C   C23       1.0  0.00224  0.83244  0.23223  1.0000
  C   C24       1.0  0.99776  0.16756  0.76777  1.0000
  C   C25       1.0  0.03960  0.78471  0.11888  1.0000
  C   C26       1.0  0.96040  0.21529  0.88112  1.0000
  C   C27       1.0  0.91076  0.84277  0.05167  1.0000
  C   C28       1.0  0.08924  0.15723  0.94833  1.0000
  C   C29       1.0  0.71410  0.98944  0.20139  1.0000
  C   C30       1.0  0.28591  0.01056  0.79861  1.0000
  N   N1        1.0  0.68727  0.13233  0.42019  1.0000
  N   N2        1.0  0.31273  0.86767  0.57981  1.0000
  N   N3        1.0  0.72652  0.99432  0.59060  1.0000
  N   N4        1.0  0.27348  0.00568  0.40940  1.0000
  N   N5        1.0  0.80689  0.90469  0.49785  1.0000
  N   N6        1.0  0.19311  0.09531  0.50215  1.0000
  N   N7        1.0  0.74963  0.94266  0.09287  1.0000
  N   N8        1.0  0.25037  0.05734  0.90714  1.0000
  O   O1        1.0  0.47054  0.74998  0.08493  1.0000
  O   O2        1.0  0.52946  0.25003  0.91507  1.0000
  O   O3        1.0  0.72691  0.62959  0.94728  1.0000
  O   O4        1.0  0.27309  0.37040  0.05272  1.0000
  O   O5        1.0  0.27487  0.09868  0.17069  1.0000
  O   O6        1.0  0.72513  0.90132  0.82931  1.0000
