data_image0
_chemical_formula_structural       Zn2H32C40N12O8
_chemical_formula_sum              "Zn2 H32 C40 N12 O8"
_cell_length_a       6.54216
_cell_length_b       10.0101
_cell_length_c       15.5974
_cell_angle_alpha    87.2366
_cell_angle_beta     81.6037
_cell_angle_gamma    70.9444

_space_group_name_H-M_alt    "P 1"
_space_group_IT_number       1

loop_
  _space_group_symop_operation_xyz
  'x, y, z'

loop_
  _atom_site_type_symbol
  _atom_site_label
  _atom_site_symmetry_multiplicity
  _atom_site_fract_x
  _atom_site_fract_y
  _atom_site_fract_z
  _atom_site_occupancy
  Zn  Zn1       1.0  0.34795  0.30437  0.50012  1.0000
  Zn  Zn2       1.0  0.65263  0.69562  0.00011  1.0000
  H   H1        1.0  0.98373  0.05537  0.39655  1.0000
  H   H2        1.0  0.03987  0.94471  0.89642  1.0000
  H   H3        1.0  0.80847  0.96653  0.29116  1.0000
  H   H4        1.0  0.77546  0.03357  0.79110  1.0000
  H   H5        1.0  0.29347  0.01498  0.08378  1.0000
  H   H6        1.0  0.30840  0.98452  0.58350  1.0000
  H   H7        1.0  0.46041  0.11205  0.19068  1.0000
  H   H8        1.0  0.57266  0.88746  0.69036  1.0000
  H   H9        1.0  0.90742  0.22998  0.03452  1.0000
  H   H10       1.0  0.13649  0.76990  0.53457  1.0000
  H   H11       1.0  0.73616  0.23918  0.13491  1.0000
  H   H12       1.0  0.97426  0.76074  0.63494  1.0000
  H   H13       1.0  0.62499  0.26061  0.03606  1.0000
  H   H14       1.0  0.88445  0.73953  0.53606  1.0000
  H   H15       1.0  0.97420  0.72773  0.13728  1.0000
  H   H16       1.0  0.70241  0.27224  0.63706  1.0000
  H   H17       1.0  0.98793  0.36052  0.76189  1.0000
  H   H18       1.0  0.34873  0.63930  0.26167  1.0000
  H   H19       1.0  0.67553  0.38045  0.88014  1.0000
  H   H20       1.0  0.05604  0.61977  0.37999  1.0000
  H   H21       1.0  0.22668  0.60518  0.70531  1.0000
  H   H22       1.0  0.83091  0.39522  0.20548  1.0000
  H   H23       1.0  0.54044  0.59740  0.59085  1.0000
  H   H24       1.0  0.13702  0.40270  0.09093  1.0000
  H   H25       1.0  0.48874  0.19319  0.91698  1.0000
  H   H26       1.0  0.68186  0.80706  0.41691  1.0000
  H   H27       1.0  0.40033  0.20583  0.81334  1.0000
  H   H28       1.0  0.60578  0.79460  0.31331  1.0000
  H   H29       1.0  0.24731  0.15592  0.90573  1.0000
  H   H30       1.0  0.40314  0.84419  0.40577  1.0000
  H   H31       1.0  0.06329  0.71198  0.87021  1.0000
  H   H32       1.0  0.77510  0.28823  0.37042  1.0000
  C   C1        1.0  0.32665  0.16251  0.35868  1.0000
  C   C2        1.0  0.48956  0.83746  0.85855  1.0000
  C   C3        1.0  0.23194  0.09121  0.29931  1.0000
  C   C4        1.0  0.32359  0.90858  0.79911  1.0000
  C   C5        1.0  0.05297  0.04538  0.32834  1.0000
  C   C6        1.0  0.09889  0.95452  0.82818  1.0000
  C   C7        1.0  0.95665  0.99265  0.26976  1.0000
  C   C8        1.0  0.94971  0.00725  0.76961  1.0000
  C   C9        1.0  0.04160  0.98551  0.18209  1.0000
  C   C10       1.0  0.02733  0.01428  0.68192  1.0000
  C   C11       1.0  0.22648  0.02407  0.15229  1.0000
  C   C12       1.0  0.25070  0.97554  0.65205  1.0000
  C   C13       1.0  0.32057  0.07659  0.21155  1.0000
  C   C14       1.0  0.39741  0.92300  0.71130  1.0000
  C   C15       1.0  0.76680  0.20196  0.06761  1.0000
  C   C16       1.0  0.96785  0.79803  0.56761  1.0000
  C   C17       1.0  0.79859  0.04897  0.06681  1.0000
  C   C18       1.0  0.84718  0.95109  0.56675  1.0000
  C   C19       1.0  0.89742  0.82616  0.10527  1.0000
  C   C20       1.0  0.72377  0.17387  0.60512  1.0000
  C   C21       1.0  0.96640  0.45225  0.59502  1.0000
  C   C22       1.0  0.41866  0.54738  0.09497  1.0000
  C   C23       1.0  0.78357  0.47811  0.66951  1.0000
  C   C24       1.0  0.26139  0.52179  0.16943  1.0000
  C   C25       1.0  0.82085  0.41691  0.75099  1.0000
  C   C26       1.0  0.23774  0.58304  0.25086  1.0000
  C   C27       1.0  0.64727  0.42408  0.81599  1.0000
  C   C28       1.0  0.07128  0.57606  0.31589  1.0000
  C   C29       1.0  0.43444  0.49078  0.79785  1.0000
  C   C30       1.0  0.92484  0.50951  0.29785  1.0000
  C   C31       1.0  0.39428  0.55610  0.71804  1.0000
  C   C32       1.0  0.94974  0.44412  0.21813  1.0000
  C   C33       1.0  0.56921  0.55134  0.65445  1.0000
  C   C34       1.0  0.11991  0.44874  0.15449  1.0000
  C   C35       1.0  0.34462  0.22443  0.88299  1.0000
  C   C36       1.0  0.56890  0.77581  0.38297  1.0000
  C   C37       1.0  0.20708  0.37344  0.89924  1.0000
  C   C38       1.0  0.58033  0.62677  0.39924  1.0000
  C   C39       1.0  0.08012  0.60390  0.88915  1.0000
  C   C40       1.0  0.68381  0.39630  0.38927  1.0000
  N   N1        1.0  0.76692  0.84454  0.04557  1.0000
  N   N2        1.0  0.61142  0.15559  0.54547  1.0000
  N   N3        1.0  0.70313  0.98477  0.02104  1.0000
  N   N4        1.0  0.68751  0.01540  0.52100  1.0000
  N   N5        1.0  0.92400  0.95168  0.12028  1.0000
  N   N6        1.0  0.87572  0.04825  0.62015  1.0000
  N   N7        1.0  0.93817  0.56098  0.94257  1.0000
  N   N8        1.0  0.49898  0.43914  0.44265  1.0000
  N   N9        1.0  0.01636  0.41582  0.94915  1.0000
  N   N10       1.0  0.43205  0.58429  0.44917  1.0000
  N   N11       1.0  0.25223  0.48960  0.86016  1.0000
  N   N12       1.0  0.74161  0.51066  0.36021  1.0000
  O   O1        1.0  0.21325  0.19812  0.43467  1.0000
  O   O2        1.0  0.41180  0.80176  0.93454  1.0000
  O   O3        1.0  0.50122  0.18629  0.33224  1.0000
  O   O4        1.0  0.68786  0.81394  0.83216  1.0000
  O   O5        1.0  0.15436  0.36661  0.61107  1.0000
  O   O6        1.0  0.52094  0.63312  0.11090  1.0000
  O   O7        1.0  0.92940  0.50623  0.52253  1.0000
  O   O8        1.0  0.43595  0.49314  0.02257  1.0000
