data_image0
_chemical_formula_structural       Cu2H16C12N4Cl4
_chemical_formula_sum              "Cu2 H16 C12 N4 Cl4"
_cell_length_a       6.86887
_cell_length_b       7.30633
_cell_length_c       9.28395
_cell_angle_alpha    103.2
_cell_angle_beta     89.9937
_cell_angle_gamma    117.993

_space_group_name_H-M_alt    "P 1"
_space_group_IT_number       1

loop_
  _space_group_symop_operation_xyz
  'x, y, z'

loop_
  _atom_site_type_symbol
  _atom_site_label
  _atom_site_symmetry_multiplicity
  _atom_site_fract_x
  _atom_site_fract_y
  _atom_site_fract_z
  _atom_site_occupancy
  Cu  Cu1       1.0  0.54053  0.08171  0.33012  1.0000
  Cu  Cu2       1.0  0.45946  0.91829  0.66988  1.0000
  H   H1        1.0  0.34489  0.32640  0.51015  1.0000
  H   H2        1.0  0.01975  0.67355  0.49009  1.0000
  H   H3        1.0  0.65510  0.67360  0.48985  1.0000
  H   H4        1.0  0.98024  0.32644  0.50989  1.0000
  H   H5        1.0  0.28622  0.85078  0.07522  1.0000
  H   H6        1.0  0.43523  0.14887  0.92526  1.0000
  H   H7        1.0  0.71379  0.14923  0.92478  1.0000
  H   H8        1.0  0.56477  0.85112  0.07474  1.0000
  H   H9        1.0  0.02026  0.75208  0.97844  1.0000
  H   H10       1.0  0.26766  0.24757  0.02180  1.0000
  H   H11       1.0  0.97975  0.24794  0.02157  1.0000
  H   H12       1.0  0.73235  0.75243  0.97820  1.0000
  H   H13       1.0  0.05049  0.63506  0.11868  1.0000
  H   H14       1.0  0.41520  0.36476  0.88179  1.0000
  H   H15       1.0  0.94952  0.36494  0.88132  1.0000
  H   H16       1.0  0.58481  0.63524  0.11821  1.0000
  C   C1        1.0  0.07310  0.93997  0.20516  1.0000
  C   C2        1.0  0.13337  0.05994  0.79498  1.0000
  C   C3        1.0  0.92692  0.06004  0.79485  1.0000
  C   C4        1.0  0.86663  0.94006  0.20502  1.0000
  C   C5        1.0  0.20862  0.21648  0.42216  1.0000
  C   C6        1.0  0.99298  0.78344  0.57797  1.0000
  C   C7        1.0  0.79140  0.78351  0.57784  1.0000
  C   C8        1.0  0.00699  0.21656  0.42203  1.0000
  C   C9        1.0  0.10959  0.78718  0.08728  1.0000
  C   C10       1.0  0.32221  0.21254  0.91304  1.0000
  C   C11       1.0  0.89042  0.21283  0.91272  1.0000
  C   C12       1.0  0.67780  0.78746  0.08696  1.0000
  N   N1        1.0  0.23933  0.07677  0.31586  1.0000
  N   N2        1.0  0.16312  0.92308  0.68437  1.0000
  N   N3        1.0  0.76067  0.92322  0.68414  1.0000
  N   N4        1.0  0.83688  0.07691  0.31562  1.0000
  Cl  Cl1       1.0  0.62745  0.25553  0.62602  1.0000
  Cl  Cl2       1.0  0.37254  0.74447  0.37398  1.0000
  Cl  Cl3       1.0  0.68872  0.37857  0.24255  1.0000
  Cl  Cl4       1.0  0.31128  0.62143  0.75745  1.0000
