data_image0
_chemical_formula_structural       Ag4H16C24N12
_chemical_formula_sum              "Ag4 H16 C24 N12"
_cell_length_a       3.65121
_cell_length_b       12.4297
_cell_length_c       14.5178
_cell_angle_alpha    114.455
_cell_angle_beta     90.0002
_cell_angle_gamma    89.9994

_space_group_name_H-M_alt    "P 1"
_space_group_IT_number       1

loop_
  _space_group_symop_operation_xyz
  'x, y, z'

loop_
  _atom_site_type_symbol
  _atom_site_label
  _atom_site_symmetry_multiplicity
  _atom_site_fract_x
  _atom_site_fract_y
  _atom_site_fract_z
  _atom_site_occupancy
  Ag  Ag1       1.0  0.39680  0.67130  0.07416  1.0000
  Ag  Ag2       1.0  0.89677  0.82869  0.92584  1.0000
  Ag  Ag3       1.0  0.60320  0.32869  0.92583  1.0000
  Ag  Ag4       1.0  0.10322  0.17131  0.07416  1.0000
  H   H1        1.0  0.62726  0.85181  0.31227  1.0000
  H   H2        1.0  0.12726  0.64819  0.68774  1.0000
  H   H3        1.0  0.37272  0.14819  0.68774  1.0000
  H   H4        1.0  0.87276  0.35181  0.31226  1.0000
  H   H5        1.0  0.78894  0.03981  0.45962  1.0000
  H   H6        1.0  0.28895  0.46019  0.54038  1.0000
  H   H7        1.0  0.21102  0.96019  0.54039  1.0000
  H   H8        1.0  0.71106  0.53981  0.45961  1.0000
  H   H9        1.0  0.70082  0.23336  0.45259  1.0000
  H   H10       1.0  0.20082  0.26664  0.54741  1.0000
  H   H11       1.0  0.29918  0.76664  0.54741  1.0000
  H   H12       1.0  0.79919  0.73336  0.45259  1.0000
  H   H13       1.0  0.42600  0.24763  0.29999  1.0000
  H   H14       1.0  0.92598  0.25237  0.70000  1.0000
  H   H15       1.0  0.57401  0.75237  0.70001  1.0000
  H   H16       1.0  0.07398  0.74763  0.30000  1.0000
  C   C1        1.0  0.44678  0.94564  0.22284  1.0000
  C   C2        1.0  0.94676  0.55436  0.77716  1.0000
  C   C3        1.0  0.55325  0.05436  0.77716  1.0000
  C   C4        1.0  0.05324  0.44564  0.22284  1.0000
  C   C5        1.0  0.58757  0.93741  0.30980  1.0000
  C   C6        1.0  0.08756  0.56259  0.69020  1.0000
  C   C7        1.0  0.41245  0.06259  0.69020  1.0000
  C   C8        1.0  0.91245  0.43741  0.30980  1.0000
  C   C9        1.0  0.67477  0.04235  0.39109  1.0000
  C   C10       1.0  0.17476  0.45765  0.60891  1.0000
  C   C11       1.0  0.32524  0.95765  0.60891  1.0000
  C   C12       1.0  0.82526  0.54235  0.39109  1.0000
  C   C13       1.0  0.62178  0.15356  0.38735  1.0000
  C   C14       1.0  0.12177  0.34644  0.61264  1.0000
  C   C15       1.0  0.37823  0.84645  0.61265  1.0000
  C   C16       1.0  0.87823  0.65355  0.38735  1.0000
  C   C17       1.0  0.47383  0.16263  0.30307  1.0000
  C   C18       1.0  0.97381  0.33737  0.69693  1.0000
  C   C19       1.0  0.52620  0.83737  0.69694  1.0000
  C   C20       1.0  0.02616  0.66263  0.30306  1.0000
  C   C21       1.0  0.38818  0.05681  0.22006  1.0000
  C   C22       1.0  0.88817  0.44319  0.77993  1.0000
  C   C23       1.0  0.61184  0.94319  0.77994  1.0000
  C   C24       1.0  0.11182  0.55681  0.22006  1.0000
  N   N1        1.0  0.33996  0.86174  0.13099  1.0000
  N   N2        1.0  0.83994  0.63825  0.86901  1.0000
  N   N3        1.0  0.66005  0.13826  0.86901  1.0000
  N   N4        1.0  0.16006  0.36174  0.13099  1.0000
  N   N5        1.0  0.22284  0.91842  0.07551  1.0000
  N   N6        1.0  0.72282  0.58157  0.92449  1.0000
  N   N7        1.0  0.77715  0.08158  0.92449  1.0000
  N   N8        1.0  0.27715  0.41842  0.07551  1.0000
  N   N9        1.0  0.24712  0.03566  0.12712  1.0000
  N   N10       1.0  0.74710  0.46434  0.87287  1.0000
  N   N11       1.0  0.75288  0.96434  0.87288  1.0000
  N   N12       1.0  0.25287  0.53566  0.12712  1.0000
