data_image0
_chemical_formula_structural       Ag4H88C40N8Cl4
_chemical_formula_sum              "Ag4 H88 C40 N8 Cl4"
_cell_length_a       6.09717
_cell_length_b       10.7437
_cell_length_c       20.7529
_cell_angle_alpha    95.2522
_cell_angle_beta     89.9127
_cell_angle_gamma    106.788

_space_group_name_H-M_alt    "P 1"
_space_group_IT_number       1

loop_
  _space_group_symop_operation_xyz
  'x, y, z'

loop_
  _atom_site_type_symbol
  _atom_site_label
  _atom_site_symmetry_multiplicity
  _atom_site_fract_x
  _atom_site_fract_y
  _atom_site_fract_z
  _atom_site_occupancy
  Ag  Ag1       1.0  0.18235  0.44877  0.69485  1.0000
  Ag  Ag2       1.0  0.73368  0.55290  0.80542  1.0000
  Ag  Ag3       1.0  0.81765  0.55124  0.30514  1.0000
  Ag  Ag4       1.0  0.26633  0.44710  0.19457  1.0000
  H   H1        1.0  0.77368  0.26983  0.67909  1.0000
  H   H2        1.0  0.50609  0.73191  0.82081  1.0000
  H   H3        1.0  0.22631  0.73017  0.32091  1.0000
  H   H4        1.0  0.49390  0.26808  0.17919  1.0000
  H   H5        1.0  0.85276  0.29141  0.57020  1.0000
  H   H6        1.0  0.56005  0.70977  0.92969  1.0000
  H   H7        1.0  0.14718  0.70861  0.42979  1.0000
  H   H8        1.0  0.43993  0.29021  0.07030  1.0000
  H   H9        1.0  0.73341  0.12293  0.58066  1.0000
  H   H10       1.0  0.61512  0.87851  0.91956  1.0000
  H   H11       1.0  0.26655  0.87706  0.41934  1.0000
  H   H12       1.0  0.38484  0.12146  0.08044  1.0000
  H   H13       1.0  0.07376  0.15219  0.51208  1.0000
  H   H14       1.0  0.92294  0.84738  0.98822  1.0000
  H   H15       1.0  0.92617  0.84780  0.48790  1.0000
  H   H16       1.0  0.07702  0.15259  0.01179  1.0000
  H   H17       1.0  0.24635  0.26513  0.57299  1.0000
  H   H18       1.0  0.97918  0.73353  0.92745  1.0000
  H   H19       1.0  0.75361  0.73488  0.42699  1.0000
  H   H20       1.0  0.02079  0.26645  0.07255  1.0000
  H   H21       1.0  0.30162  0.04580  0.58054  1.0000
  H   H22       1.0  0.26167  0.95157  0.91999  1.0000
  H   H23       1.0  0.69837  0.95422  0.41945  1.0000
  H   H24       1.0  0.73829  0.04840  0.08002  1.0000
  H   H25       1.0  0.00208  0.97499  0.58474  1.0000
  H   H26       1.0  0.03719  0.02440  0.91559  1.0000
  H   H27       1.0  0.99789  0.02501  0.41525  1.0000
  H   H28       1.0  0.96280  0.97559  0.08442  1.0000
  H   H29       1.0  0.17289  0.01342  0.69584  1.0000
  H   H30       1.0  0.17025  0.98489  0.80461  1.0000
  H   H31       1.0  0.82715  0.98661  0.30414  1.0000
  H   H32       1.0  0.82974  0.01511  0.19541  1.0000
  H   H33       1.0  0.30760  0.18010  0.68449  1.0000
  H   H34       1.0  0.12972  0.81756  0.81589  1.0000
  H   H35       1.0  0.69241  0.81991  0.31550  1.0000
  H   H36       1.0  0.87028  0.18244  0.18412  1.0000
  H   H37       1.0  0.95790  0.16167  0.74783  1.0000
  H   H38       1.0  0.80226  0.83998  0.75250  1.0000
  H   H39       1.0  0.04214  0.83834  0.25217  1.0000
  H   H40       1.0  0.19774  0.16003  0.24751  1.0000
  H   H41       1.0  0.79033  0.04688  0.68660  1.0000
  H   H42       1.0  0.75414  0.95528  0.81401  1.0000
  H   H43       1.0  0.20968  0.95312  0.31340  1.0000
  H   H44       1.0  0.24584  0.04471  0.18600  1.0000
  H   H45       1.0  0.90812  0.57915  0.65051  1.0000
  H   H46       1.0  0.32777  0.42173  0.84955  1.0000
  H   H47       1.0  0.09189  0.42089  0.34950  1.0000
  H   H48       1.0  0.67225  0.57827  0.15045  1.0000
  H   H49       1.0  0.11346  0.81103  0.64391  1.0000
  H   H50       1.0  0.29199  0.19018  0.85563  1.0000
  H   H51       1.0  0.88663  0.18901  0.35612  1.0000
  H   H52       1.0  0.70802  0.80982  0.14438  1.0000
  H   H53       1.0  0.15751  0.74877  0.71836  1.0000
  H   H54       1.0  0.40398  0.25201  0.78147  1.0000
  H   H55       1.0  0.84257  0.25123  0.28166  1.0000
  H   H56       1.0  0.59602  0.74799  0.21852  1.0000
  H   H57       1.0  0.52764  0.87980  0.67345  1.0000
  H   H58       1.0  0.63339  0.11776  0.82703  1.0000
  H   H59       1.0  0.47246  0.12017  0.32656  1.0000
  H   H60       1.0  0.36661  0.88223  0.17297  1.0000
  H   H61       1.0  0.51906  0.71432  0.68004  1.0000
  H   H62       1.0  0.79770  0.28230  0.82020  1.0000
  H   H63       1.0  0.48098  0.28565  0.31996  1.0000
  H   H64       1.0  0.20231  0.71771  0.17979  1.0000
  H   H65       1.0  0.43719  0.83218  0.55601  1.0000
  H   H66       1.0  0.59168  0.16695  0.94444  1.0000
  H   H67       1.0  0.56284  0.16783  0.44400  1.0000
  H   H68       1.0  0.40832  0.83305  0.05556  1.0000
  H   H69       1.0  0.67500  0.77698  0.57359  1.0000
  H   H70       1.0  0.88600  0.21964  0.92674  1.0000
  H   H71       1.0  0.32502  0.22299  0.42641  1.0000
  H   H72       1.0  0.11402  0.78035  0.07326  1.0000
  H   H73       1.0  0.37547  0.61093  0.49985  1.0000
  H   H74       1.0  0.75971  0.38814  0.00012  1.0000
  H   H75       1.0  0.62447  0.38909  0.50014  1.0000
  H   H76       1.0  0.24030  0.61185  0.99987  1.0000
  H   H77       1.0  0.42696  0.54927  0.57313  1.0000
  H   H78       1.0  0.87514  0.44847  0.92665  1.0000
  H   H79       1.0  0.57297  0.45071  0.42686  1.0000
  H   H80       1.0  0.12489  0.55152  0.07335  1.0000
  H   H81       1.0  0.02590  0.65720  0.54476  1.0000
  H   H82       1.0  0.36365  0.34354  0.95510  1.0000
  H   H83       1.0  0.97410  0.34286  0.45526  1.0000
  H   H84       1.0  0.63638  0.65646  0.04490  1.0000
  H   H85       1.0  0.00977  0.49092  0.55194  1.0000
  H   H86       1.0  0.51936  0.50953  0.94807  1.0000
  H   H87       1.0  0.99015  0.50911  0.44807  1.0000
  H   H88       1.0  0.48070  0.49049  0.05192  1.0000
  C   C1        1.0  0.88548  0.20901  0.59209  1.0000
  C   C2        1.0  0.67824  0.79196  0.90804  1.0000
  C   C3        1.0  0.11447  0.79099  0.40790  1.0000
  C   C4        1.0  0.32173  0.20802  0.09197  1.0000
  C   C5        1.0  0.09760  0.17746  0.56467  1.0000
  C   C6        1.0  0.92168  0.82195  0.93564  1.0000
  C   C7        1.0  0.90236  0.82254  0.43531  1.0000
  C   C8        1.0  0.07830  0.17803  0.06437  1.0000
  C   C9        1.0  0.14265  0.06523  0.59782  1.0000
  C   C10       1.0  0.08370  0.93339  0.90255  1.0000
  C   C11       1.0  0.85734  0.93477  0.40217  1.0000
  C   C12       1.0  0.91629  0.06659  0.09747  1.0000
  C   C13       1.0  0.15526  0.09675  0.67139  1.0000
  C   C14       1.0  0.06518  0.90210  0.82898  1.0000
  C   C15       1.0  0.84475  0.90327  0.32860  1.0000
  C   C16       1.0  0.93482  0.09790  0.17104  1.0000
  C   C17       1.0  0.94323  0.13309  0.69550  1.0000
  C   C18       1.0  0.81669  0.86812  0.80485  1.0000
  C   C19       1.0  0.05677  0.86692  0.30449  1.0000
  C   C20       1.0  0.18329  0.13188  0.19516  1.0000
  C   C21       1.0  0.18907  0.74235  0.66626  1.0000
  C   C22       1.0  0.44004  0.25790  0.83364  1.0000
  C   C23       1.0  0.81097  0.25766  0.33376  1.0000
  C   C24       1.0  0.55996  0.74210  0.16635  1.0000
  C   C25       1.0  0.44530  0.77822  0.65383  1.0000
  C   C26       1.0  0.65706  0.21974  0.84648  1.0000
  C   C27       1.0  0.55475  0.22176  0.34618  1.0000
  C   C28       1.0  0.34295  0.78026  0.15352  1.0000
  C   C29       1.0  0.49036  0.75926  0.58147  1.0000
  C   C30       1.0  0.72069  0.23885  0.91884  1.0000
  C   C31       1.0  0.50966  0.24073  0.41853  1.0000
  C   C32       1.0  0.27932  0.76114  0.08116  1.0000
  C   C33       1.0  0.35717  0.62162  0.55270  1.0000
  C   C34       1.0  0.73058  0.37714  0.94729  1.0000
  C   C35       1.0  0.64280  0.37840  0.44730  1.0000
  C   C36       1.0  0.26945  0.62285  0.05270  1.0000
  C   C37       1.0  0.10417  0.59177  0.56916  1.0000
  C   C38       1.0  0.50960  0.40848  0.93080  1.0000
  C   C39       1.0  0.89580  0.40827  0.43084  1.0000
  C   C40       1.0  0.49044  0.59153  0.06920  1.0000
  N   N1        1.0  0.91389  0.24300  0.66256  1.0000
  N   N2        1.0  0.67319  0.75841  0.83752  1.0000
  N   N3        1.0  0.08609  0.75700  0.33743  1.0000
  N   N4        1.0  0.32679  0.24157  0.16248  1.0000
  N   N5        1.0  0.07872  0.60773  0.63939  1.0000
  N   N6        1.0  0.46893  0.39283  0.86054  1.0000
  N   N7        1.0  0.92129  0.39230  0.36061  1.0000
  N   N8        1.0  0.53110  0.60717  0.13946  1.0000
  Cl  Cl1       1.0  0.59265  0.43776  0.68682  1.0000
  Cl  Cl2       1.0  0.15456  0.56223  0.81350  1.0000
  Cl  Cl3       1.0  0.40734  0.56224  0.31318  1.0000
  Cl  Cl4       1.0  0.84544  0.43776  0.18650  1.0000
