data_image0
_chemical_formula_structural       Cd4H44C52N20O20
_chemical_formula_sum              "Cd4 H44 C52 N20 O20"
_cell_length_a       10.3561
_cell_length_b       12.6367
_cell_length_c       13.5936
_cell_angle_alpha    116.244
_cell_angle_beta     90
_cell_angle_gamma    114.19

_space_group_name_H-M_alt    "P 1"
_space_group_IT_number       1

loop_
  _space_group_symop_operation_xyz
  'x, y, z'

loop_
  _atom_site_type_symbol
  _atom_site_label
  _atom_site_symmetry_multiplicity
  _atom_site_fract_x
  _atom_site_fract_y
  _atom_site_fract_z
  _atom_site_occupancy
  Cd  Cd1       1.0  0.20848  0.24241  0.39951  1.0000
  Cd  Cd2       1.0  0.96610  0.75765  0.10044  1.0000
  Cd  Cd3       1.0  0.79152  0.75759  0.60049  1.0000
  Cd  Cd4       1.0  0.03390  0.24235  0.89956  1.0000
  H   H1        1.0  0.99606  0.47582  0.07713  1.0000
  H   H2        1.0  0.52031  0.52428  0.42296  1.0000
  H   H3        1.0  0.00394  0.52417  0.92286  1.0000
  H   H4        1.0  0.47969  0.47572  0.57704  1.0000
  H   H5        1.0  0.66186  0.19138  0.38634  1.0000
  H   H6        1.0  0.47053  0.80869  0.11370  1.0000
  H   H7        1.0  0.33814  0.80862  0.61366  1.0000
  H   H8        1.0  0.52947  0.19131  0.88629  1.0000
  H   H9        1.0  0.86556  0.13316  0.10308  1.0000
  H   H10       1.0  0.73230  0.86664  0.39688  1.0000
  H   H11       1.0  0.13444  0.86684  0.89692  1.0000
  H   H12       1.0  0.26770  0.13336  0.60312  1.0000
  H   H13       1.0  0.46195  0.15562  0.08893  1.0000
  H   H14       1.0  0.30626  0.84425  0.41106  1.0000
  H   H15       1.0  0.53805  0.84438  0.91107  1.0000
  H   H16       1.0  0.69374  0.15575  0.58894  1.0000
  H   H17       1.0  0.66778  0.13430  0.00056  1.0000
  H   H18       1.0  0.53339  0.86549  0.49941  1.0000
  H   H19       1.0  0.33221  0.86570  0.99944  1.0000
  H   H20       1.0  0.46662  0.13451  0.50059  1.0000
  H   H21       1.0  0.23155  0.54434  0.55173  1.0000
  H   H22       1.0  0.68740  0.45569  0.94836  1.0000
  H   H23       1.0  0.76844  0.45566  0.44827  1.0000
  H   H24       1.0  0.31260  0.54430  0.05164  1.0000
  H   H25       1.0  0.12078  0.65480  0.48587  1.0000
  H   H26       1.0  0.46613  0.34526  0.01421  1.0000
  H   H27       1.0  0.87922  0.34520  0.51413  1.0000
  H   H28       1.0  0.53387  0.65474  0.98579  1.0000
  H   H29       1.0  0.25881  0.24009  0.17448  1.0000
  H   H30       1.0  0.01879  0.75997  0.32556  1.0000
  H   H31       1.0  0.74119  0.75991  0.82551  1.0000
  H   H32       1.0  0.98121  0.24003  0.67444  1.0000
  H   H33       1.0  0.20909  0.21624  0.04045  1.0000
  H   H34       1.0  0.99300  0.78385  0.45962  1.0000
  H   H35       1.0  0.79091  0.78376  0.95955  1.0000
  H   H36       1.0  0.00700  0.21615  0.54038  1.0000
  H   H37       1.0  0.14986  0.98624  0.36429  1.0000
  H   H38       1.0  0.16362  0.01387  0.13568  1.0000
  H   H39       1.0  0.85014  0.01376  0.63571  1.0000
  H   H40       1.0  0.83638  0.98613  0.86432  1.0000
  H   H41       1.0  0.00428  0.99206  0.36260  1.0000
  H   H42       1.0  0.01219  0.00799  0.13736  1.0000
  H   H43       1.0  0.99572  0.00794  0.63740  1.0000
  H   H44       1.0  0.98781  0.99201  0.86264  1.0000
  C   C1        1.0  0.04810  0.46427  0.13890  1.0000
  C   C2        1.0  0.58390  0.53583  0.36120  1.0000
  C   C3        1.0  0.95190  0.53573  0.86110  1.0000
  C   C4        1.0  0.41610  0.46417  0.63880  1.0000
  C   C5        1.0  0.15641  0.34460  0.16619  1.0000
  C   C6        1.0  0.81192  0.65549  0.33392  1.0000
  C   C7        1.0  0.84359  0.65540  0.83381  1.0000
  C   C8        1.0  0.18808  0.34451  0.66608  1.0000
  C   C9        1.0  0.66351  0.17831  0.30169  1.0000
  C   C10       1.0  0.48517  0.82166  0.19833  1.0000
  C   C11       1.0  0.33649  0.82169  0.69831  1.0000
  C   C12       1.0  0.51483  0.17834  0.80168  1.0000
  C   C13       1.0  0.77723  0.16315  0.25166  1.0000
  C   C14       1.0  0.61401  0.83673  0.24834  1.0000
  C   C15       1.0  0.22277  0.83685  0.74834  1.0000
  C   C16       1.0  0.38598  0.16327  0.75166  1.0000
  C   C17       1.0  0.54979  0.17523  0.24320  1.0000
  C   C18       1.0  0.37449  0.82470  0.25680  1.0000
  C   C19       1.0  0.45021  0.82476  0.75680  1.0000
  C   C20       1.0  0.62551  0.17530  0.74321  1.0000
  C   C21       1.0  0.43172  0.19603  0.29896  1.0000
  C   C22       1.0  0.23568  0.80403  0.20105  1.0000
  C   C23       1.0  0.56829  0.80396  0.70105  1.0000
  C   C24       1.0  0.76432  0.19597  0.79895  1.0000
  C   C25       1.0  0.16712  0.42033  0.28308  1.0000
  C   C26       1.0  0.74688  0.57975  0.21702  1.0000
  C   C27       1.0  0.83288  0.57967  0.71692  1.0000
  C   C28       1.0  0.25312  0.42025  0.78298  1.0000
  C   C29       1.0  0.77691  0.14504  0.14200  1.0000
  C   C30       1.0  0.63175  0.85475  0.35797  1.0000
  C   C31       1.0  0.22309  0.85496  0.85800  1.0000
  C   C32       1.0  0.36824  0.14525  0.64203  1.0000
  C   C33       1.0  0.55077  0.15760  0.13386  1.0000
  C   C34       1.0  0.39306  0.84222  0.36610  1.0000
  C   C35       1.0  0.44923  0.84239  0.86614  1.0000
  C   C36       1.0  0.60694  0.15778  0.63390  1.0000
  C   C37       1.0  0.11830  0.51678  0.31548  1.0000
  C   C38       1.0  0.60162  0.48331  0.18460  1.0000
  C   C39       1.0  0.88170  0.48322  0.68452  1.0000
  C   C40       1.0  0.39838  0.51669  0.81540  1.0000
  C   C41       1.0  0.66480  0.14395  0.08413  1.0000
  C   C42       1.0  0.52072  0.85584  0.41584  1.0000
  C   C43       1.0  0.33520  0.85605  0.91588  1.0000
  C   C44       1.0  0.47928  0.14416  0.58416  1.0000
  C   C45       1.0  0.20261  0.51699  0.46423  1.0000
  C   C46       1.0  0.68576  0.48308  0.03585  1.0000
  C   C47       1.0  0.79740  0.48301  0.53577  1.0000
  C   C48       1.0  0.31424  0.51692  0.96415  1.0000
  C   C49       1.0  0.90324  0.17474  0.31689  1.0000
  C   C50       1.0  0.72852  0.82526  0.18315  1.0000
  C   C51       1.0  0.09677  0.82525  0.68311  1.0000
  C   C52       1.0  0.27148  0.17474  0.81685  1.0000
  N   N1        1.0  0.20112  0.25231  0.12281  1.0000
  N   N2        1.0  0.94891  0.74778  0.37727  1.0000
  N   N3        1.0  0.79888  0.74770  0.87719  1.0000
  N   N4        1.0  0.05109  0.25222  0.62273  1.0000
  N   N5        1.0  0.21939  0.42181  0.37820  1.0000
  N   N6        1.0  0.79771  0.57826  0.12190  1.0000
  N   N7        1.0  0.78061  0.57819  0.62180  1.0000
  N   N8        1.0  0.20229  0.42174  0.87810  1.0000
  N   N9        1.0  0.14299  0.57736  0.43127  1.0000
  N   N10       1.0  0.56574  0.42273  0.06881  1.0000
  N   N11       1.0  0.85701  0.42264  0.56873  1.0000
  N   N12       1.0  0.43426  0.57727  0.93119  1.0000
  N   N13       1.0  0.09370  0.36994  0.09587  1.0000
  N   N14       1.0  0.72384  0.63014  0.40423  1.0000
  N   N15       1.0  0.90630  0.63005  0.90413  1.0000
  N   N16       1.0  0.27616  0.36986  0.59578  1.0000
  N   N17       1.0  0.05820  0.54256  0.24632  1.0000
  N   N18       1.0  0.51572  0.45755  0.25376  1.0000
  N   N19       1.0  0.94180  0.45744  0.75368  1.0000
  N   N20       1.0  0.48428  0.54245  0.74624  1.0000
  O   O1        1.0  0.45340  0.25478  0.40529  1.0000
  O   O2        1.0  0.19870  0.74530  0.09471  1.0000
  O   O3        1.0  0.54660  0.74522  0.59471  1.0000
  O   O4        1.0  0.80130  0.25470  0.90529  1.0000
  O   O5        1.0  0.30957  0.15520  0.23663  1.0000
  O   O6        1.0  0.15439  0.84489  0.26335  1.0000
  O   O7        1.0  0.69043  0.84480  0.76337  1.0000
  O   O8        1.0  0.84561  0.15511  0.73665  1.0000
  O   O9        1.0  0.92236  0.22666  0.42389  1.0000
  O   O10       1.0  0.69579  0.77348  0.07617  1.0000
  O   O11       1.0  0.07764  0.77334  0.57611  1.0000
  O   O12       1.0  0.30421  0.22652  0.92383  1.0000
  O   O13       1.0  0.99138  0.13780  0.26357  1.0000
  O   O14       1.0  0.85361  0.86218  0.23647  1.0000
  O   O15       1.0  0.00862  0.86220  0.73643  1.0000
  O   O16       1.0  0.14639  0.13782  0.76353  1.0000
  O   O17       1.0  0.10586  0.04487  0.40637  1.0000
  O   O18       1.0  0.06101  0.95523  0.09358  1.0000
  O   O19       1.0  0.89414  0.95513  0.59363  1.0000
  O   O20       1.0  0.93899  0.04477  0.90642  1.0000
