data_image0
_chemical_formula_structural       Ag4P4H56C70N16
_chemical_formula_sum              "Ag4 P4 H56 C70 N16"
_cell_length_a       10.1449
_cell_length_b       13.179
_cell_length_c       16.821
_cell_angle_alpha    73.2307
_cell_angle_beta     85.639
_cell_angle_gamma    77.7858

_space_group_name_H-M_alt    "P 1"
_space_group_IT_number       1

loop_
  _space_group_symop_operation_xyz
  'x, y, z'

loop_
  _atom_site_type_symbol
  _atom_site_label
  _atom_site_symmetry_multiplicity
  _atom_site_fract_x
  _atom_site_fract_y
  _atom_site_fract_z
  _atom_site_occupancy
  Ag  Ag1       1.0  0.48196  0.88178  0.07637  1.0000
  Ag  Ag2       1.0  0.51804  0.11823  0.92363  1.0000
  Ag  Ag3       1.0  0.02633  0.40590  0.14040  1.0000
  Ag  Ag4       1.0  0.97368  0.59409  0.85960  1.0000
  P   P1        1.0  0.59579  0.82702  0.20267  1.0000
  P   P2        1.0  0.40421  0.17298  0.79732  1.0000
  P   P3        1.0  0.00851  0.51793  0.22689  1.0000
  P   P4        1.0  0.99149  0.48207  0.77311  1.0000
  H   H1        1.0  0.52684  0.64134  0.12682  1.0000
  H   H2        1.0  0.47316  0.35866  0.87318  1.0000
  H   H3        1.0  0.47564  0.60552  0.99788  1.0000
  H   H4        1.0  0.52437  0.39448  0.00212  1.0000
  H   H5        1.0  0.66059  0.58242  0.89197  1.0000
  H   H6        1.0  0.33942  0.41758  0.10803  1.0000
  H   H7        1.0  0.94046  0.63101  0.03597  1.0000
  H   H8        1.0  0.05954  0.36898  0.96403  1.0000
  H   H9        1.0  0.72850  0.65565  0.28821  1.0000
  H   H10       1.0  0.27149  0.34435  0.71178  1.0000
  H   H11       1.0  0.59896  0.63267  0.23554  1.0000
  H   H12       1.0  0.40104  0.36734  0.76446  1.0000
  H   H13       1.0  0.91467  0.70751  0.22464  1.0000
  H   H14       1.0  0.08533  0.29249  0.77536  1.0000
  H   H15       1.0  0.96942  0.69640  0.12494  1.0000
  H   H16       1.0  0.03058  0.30359  0.87506  1.0000
  H   H17       1.0  0.23745  0.35847  0.29203  1.0000
  H   H18       1.0  0.76256  0.64153  0.70797  1.0000
  H   H19       1.0  0.45236  0.36217  0.35202  1.0000
  H   H20       1.0  0.54764  0.63783  0.64797  1.0000
  H   H21       1.0  0.50149  0.53678  0.35919  1.0000
  H   H22       1.0  0.49851  0.46321  0.64081  1.0000
  H   H23       1.0  0.33667  0.70878  0.30211  1.0000
  H   H24       1.0  0.66334  0.29122  0.69789  1.0000
  H   H25       1.0  0.12463  0.70655  0.24189  1.0000
  H   H26       1.0  0.87537  0.29344  0.75811  1.0000
  H   H27       1.0  0.82939  0.36802  0.27648  1.0000
  H   H28       1.0  0.17061  0.63198  0.72352  1.0000
  H   H29       1.0  0.68336  0.31640  0.40116  1.0000
  H   H30       1.0  0.31663  0.68361  0.59885  1.0000
  H   H31       1.0  0.68310  0.39710  0.51843  1.0000
  H   H32       1.0  0.31689  0.60291  0.48157  1.0000
  H   H33       1.0  0.83003  0.52869  0.51070  1.0000
  H   H34       1.0  0.16996  0.47133  0.48930  1.0000
  H   H35       1.0  0.97743  0.57937  0.38653  1.0000
  H   H36       1.0  0.02256  0.42064  0.61347  1.0000
  H   H37       1.0  0.76169  0.84148  0.33854  1.0000
  H   H38       1.0  0.23830  0.15852  0.66146  1.0000
  H   H39       1.0  0.97618  0.90484  0.33255  1.0000
  H   H40       1.0  0.02382  0.09515  0.66745  1.0000
  H   H41       1.0  0.07772  0.98821  0.19485  1.0000
  H   H42       1.0  0.92228  0.01178  0.80516  1.0000
  H   H43       1.0  0.96141  0.01027  0.06537  1.0000
  H   H44       1.0  0.03860  0.98973  0.93463  1.0000
  H   H45       1.0  0.74606  0.94655  0.07057  1.0000
  H   H46       1.0  0.25394  0.05346  0.92943  1.0000
  H   H47       1.0  0.63156  0.71233  0.38702  1.0000
  H   H48       1.0  0.36844  0.28767  0.61298  1.0000
  H   H49       1.0  0.48668  0.73219  0.50716  1.0000
  H   H50       1.0  0.51332  0.26781  0.49284  1.0000
  H   H51       1.0  0.26696  0.86427  0.48850  1.0000
  H   H52       1.0  0.73304  0.13573  0.51150  1.0000
  H   H53       1.0  0.19629  0.97887  0.34615  1.0000
  H   H54       1.0  0.80371  0.02114  0.65384  1.0000
  H   H55       1.0  0.34067  0.95635  0.22437  1.0000
  H   H56       1.0  0.65933  0.04365  0.77563  1.0000
  C   C1        1.0  0.74048  0.63869  0.09486  1.0000
  C   C2        1.0  0.25952  0.36130  0.90514  1.0000
  C   C3        1.0  0.60747  0.63114  0.08155  1.0000
  C   C4        1.0  0.39254  0.36885  0.91845  1.0000
  C   C5        1.0  0.57821  0.61076  0.00885  1.0000
  C   C6        1.0  0.42179  0.38924  0.99115  1.0000
  C   C7        1.0  0.67969  0.59819  0.94978  1.0000
  C   C8        1.0  0.32032  0.40180  0.05022  1.0000
  C   C9        1.0  0.83622  0.62503  0.03123  1.0000
  C   C10       1.0  0.16378  0.37496  0.96877  1.0000
  C   C11       1.0  0.67803  0.68020  0.22840  1.0000
  C   C12       1.0  0.32197  0.31980  0.77160  1.0000
  C   C13       1.0  0.91557  0.65911  0.18138  1.0000
  C   C14       1.0  0.08443  0.34089  0.81862  1.0000
  C   C15       1.0  0.16532  0.53170  0.26462  1.0000
  C   C16       1.0  0.83468  0.46830  0.73538  1.0000
  C   C17       1.0  0.25936  0.43498  0.29524  1.0000
  C   C18       1.0  0.74064  0.56502  0.70476  1.0000
  C   C19       1.0  0.37966  0.43742  0.32892  1.0000
  C   C20       1.0  0.62034  0.56258  0.67108  1.0000
  C   C21       1.0  0.40759  0.53567  0.33213  1.0000
  C   C22       1.0  0.59241  0.46433  0.66787  1.0000
  C   C23       1.0  0.31541  0.63186  0.30038  1.0000
  C   C24       1.0  0.68460  0.36813  0.69962  1.0000
  C   C25       1.0  0.19460  0.63027  0.26651  1.0000
  C   C26       1.0  0.80540  0.36973  0.73349  1.0000
  C   C27       1.0  0.91120  0.47777  0.32294  1.0000
  C   C28       1.0  0.08880  0.52224  0.67706  1.0000
  C   C29       1.0  0.82849  0.40342  0.32784  1.0000
  C   C30       1.0  0.17151  0.59659  0.67216  1.0000
  C   C31       1.0  0.74659  0.37488  0.39794  1.0000
  C   C32       1.0  0.25341  0.62513  0.60206  1.0000
  C   C33       1.0  0.74634  0.42010  0.46349  1.0000
  C   C34       1.0  0.25365  0.57991  0.53651  1.0000
  C   C35       1.0  0.82952  0.49388  0.45921  1.0000
  C   C36       1.0  0.17047  0.50613  0.54079  1.0000
  C   C37       1.0  0.91206  0.52231  0.38939  1.0000
  C   C38       1.0  0.08793  0.47770  0.61061  1.0000
  C   C39       1.0  0.74139  0.88723  0.20469  1.0000
  C   C40       1.0  0.25861  0.11278  0.79530  1.0000
  C   C41       1.0  0.80566  0.87735  0.27842  1.0000
  C   C42       1.0  0.19434  0.12265  0.72157  1.0000
  C   C43       1.0  0.92643  0.91321  0.27504  1.0000
  C   C44       1.0  0.07357  0.08678  0.72496  1.0000
  C   C45       1.0  0.98366  0.95967  0.19832  1.0000
  C   C46       1.0  0.01635  0.04033  0.80168  1.0000
  C   C47       1.0  0.91826  0.97205  0.12506  1.0000
  C   C48       1.0  0.08174  0.02795  0.87494  1.0000
  C   C49       1.0  0.79734  0.93635  0.12793  1.0000
  C   C50       1.0  0.20266  0.06365  0.87207  1.0000
  C   C51       1.0  0.49743  0.83539  0.29667  1.0000
  C   C52       1.0  0.50257  0.16461  0.70332  1.0000
  C   C53       1.0  0.53704  0.77158  0.37694  1.0000
  C   C54       1.0  0.46296  0.22842  0.62306  1.0000
  C   C55       1.0  0.45427  0.78237  0.44537  1.0000
  C   C56       1.0  0.54573  0.21763  0.55463  1.0000
  C   C57       1.0  0.33154  0.85646  0.43484  1.0000
  C   C58       1.0  0.66846  0.14354  0.56516  1.0000
  C   C59       1.0  0.29120  0.92002  0.35526  1.0000
  C   C60       1.0  0.70880  0.07999  0.64474  1.0000
  C   C61       1.0  0.37337  0.90880  0.28671  1.0000
  C   C62       1.0  0.62663  0.09120  0.71329  1.0000
  C   C63       1.0  0.23772  0.78112  0.04095  1.0000
  C   C64       1.0  0.76228  0.21887  0.95905  1.0000
  C   C65       1.0  0.15153  0.68624  0.96758  1.0000
  C   C66       1.0  0.84847  0.31375  0.03243  1.0000
  C   C67       1.0  0.68873  0.88581  0.91141  1.0000
  C   C68       1.0  0.31126  0.11419  0.08859  1.0000
  C   C69       1.0  0.81451  0.81970  0.80967  1.0000
  C   C70       1.0  0.18549  0.18029  0.19032  1.0000
  N   N1        1.0  0.80657  0.60575  0.96150  1.0000
  N   N2        1.0  0.19343  0.39424  0.03850  1.0000
  N   N3        1.0  0.77685  0.65889  0.16561  1.0000
  N   N4        1.0  0.22315  0.34111  0.83439  1.0000
  N   N5        1.0  0.28539  0.84867  0.05464  1.0000
  N   N6        1.0  0.71462  0.15133  0.94536  1.0000
  N   N7        1.0  0.18365  0.70304  0.03522  1.0000
  N   N8        1.0  0.81635  0.29696  0.96478  1.0000
  N   N9        1.0  0.11723  0.66141  0.91157  1.0000
  N   N10       1.0  0.88277  0.33858  0.08843  1.0000
  N   N11       1.0  0.59640  0.90891  0.95472  1.0000
  N   N12       1.0  0.40359  0.09109  0.04528  1.0000
  N   N13       1.0  0.79493  0.87176  0.86584  1.0000
  N   N14       1.0  0.20506  0.12824  0.13415  1.0000
  N   N15       1.0  0.84492  0.77458  0.75744  1.0000
  N   N16       1.0  0.15508  0.22542  0.24256  1.0000
