data_image0
_chemical_formula_structural       Co4H16C4Se4N4O12
_chemical_formula_sum              "Co4 H16 C4 Se4 N4 O12"
_cell_length_a       6.70371
_cell_length_b       7.87804
_cell_length_c       9.43236
_cell_angle_alpha    90.0001
_cell_angle_beta     89.9999
_cell_angle_gamma    112.477

_space_group_name_H-M_alt    "P 1"
_space_group_IT_number       1

loop_
  _space_group_symop_operation_xyz
  'x, y, z'

loop_
  _atom_site_type_symbol
  _atom_site_label
  _atom_site_symmetry_multiplicity
  _atom_site_fract_x
  _atom_site_fract_y
  _atom_site_fract_z
  _atom_site_occupancy
  Co  Co1       1.0  0.82875  0.89113  0.77227  1.0000
  Co  Co2       1.0  0.67125  0.60887  0.27227  1.0000
  Co  Co3       1.0  0.17125  0.10887  0.22773  1.0000
  Co  Co4       1.0  0.32876  0.39113  0.72773  1.0000
  H   H1        1.0  0.40436  0.84454  0.60844  1.0000
  H   H2        1.0  0.09564  0.65545  0.10844  1.0000
  H   H3        1.0  0.59564  0.15546  0.39156  1.0000
  H   H4        1.0  0.90436  0.34455  0.89156  1.0000
  H   H5        1.0  0.59003  0.85010  0.47388  1.0000
  H   H6        1.0  0.90997  0.64990  0.97388  1.0000
  H   H7        1.0  0.40997  0.14990  0.52612  1.0000
  H   H8        1.0  0.09003  0.35010  0.02612  1.0000
  H   H9        1.0  0.67154  0.12509  0.70081  1.0000
  H   H10       1.0  0.82846  0.37492  0.20081  1.0000
  H   H11       1.0  0.32846  0.87492  0.29919  1.0000
  H   H12       1.0  0.17154  0.62509  0.79919  1.0000
  H   H13       1.0  0.85155  0.12521  0.58243  1.0000
  H   H14       1.0  0.64845  0.37478  0.08242  1.0000
  H   H15       1.0  0.14845  0.87479  0.41758  1.0000
  H   H16       1.0  0.35154  0.62521  0.91757  1.0000
  C   C1        1.0  0.53813  0.93681  0.54356  1.0000
  C   C2        1.0  0.96187  0.56319  0.04356  1.0000
  C   C3        1.0  0.46187  0.06319  0.45644  1.0000
  C   C4        1.0  0.03813  0.43681  0.95644  1.0000
  Se  Se1       1.0  0.80836  0.56798  0.59999  1.0000
  Se  Se2       1.0  0.69164  0.93202  0.10000  1.0000
  Se  Se3       1.0  0.19164  0.43202  0.40000  1.0000
  Se  Se4       1.0  0.30836  0.06798  0.90000  1.0000
  N   N1        1.0  0.71903  0.03914  0.63865  1.0000
  N   N2        1.0  0.78098  0.46086  0.13866  1.0000
  N   N3        1.0  0.28097  0.96086  0.36134  1.0000
  N   N4        1.0  0.21904  0.53914  0.86135  1.0000
  O   O1        1.0  0.99169  0.74394  0.70132  1.0000
  O   O2        1.0  0.50831  0.75607  0.20132  1.0000
  O   O3        1.0  0.00831  0.25607  0.29868  1.0000
  O   O4        1.0  0.49169  0.24394  0.79868  1.0000
  O   O5        1.0  0.86686  0.67153  0.43363  1.0000
  O   O6        1.0  0.63314  0.82847  0.93363  1.0000
  O   O7        1.0  0.13315  0.32847  0.56637  1.0000
  O   O8        1.0  0.36686  0.17153  0.06637  1.0000
  O   O9        1.0  0.58254  0.60494  0.65628  1.0000
  O   O10       1.0  0.91746  0.89506  0.15628  1.0000
  O   O11       1.0  0.41746  0.39506  0.34372  1.0000
  O   O12       1.0  0.08254  0.10494  0.84372  1.0000
