data_image0
_chemical_formula_structural       CoH14C14S2N4O2
_chemical_formula_sum              "Co1 H14 C14 S2 N4 O2"
_cell_length_a       7.74992
_cell_length_b       7.49431
_cell_length_c       7.7429
_cell_angle_alpha    90.0047
_cell_angle_beta     68.897
_cell_angle_gamma    86.2995

_space_group_name_H-M_alt    "P 1"
_space_group_IT_number       1

loop_
  _space_group_symop_operation_xyz
  'x, y, z'

loop_
  _atom_site_type_symbol
  _atom_site_label
  _atom_site_symmetry_multiplicity
  _atom_site_fract_x
  _atom_site_fract_y
  _atom_site_fract_z
  _atom_site_occupancy
  Co  Co1       1.0  0.00000  0.00000  0.50000  1.0000
  H   H1        1.0  0.88743  0.21835  0.23817  1.0000
  H   H2        1.0  0.11257  0.78166  0.76184  1.0000
  H   H3        1.0  0.74938  0.52631  0.23604  1.0000
  H   H4        1.0  0.25062  0.47368  0.76398  1.0000
  H   H5        1.0  0.68488  0.58292  0.81147  1.0000
  H   H6        1.0  0.31512  0.41708  0.18854  1.0000
  H   H7        1.0  0.83622  0.27645  0.78720  1.0000
  H   H8        1.0  0.16377  0.72354  0.21281  1.0000
  H   H9        1.0  0.51528  0.77938  0.47435  1.0000
  H   H10       1.0  0.48472  0.22062  0.52566  1.0000
  H   H11       1.0  0.57722  0.83172  0.66729  1.0000
  H   H12       1.0  0.42278  0.16828  0.33272  1.0000
  H   H13       1.0  0.76750  0.88175  0.28684  1.0000
  H   H14       1.0  0.23250  0.11826  0.71317  1.0000
  C   C1        1.0  0.23449  0.08990  0.10757  1.0000
  C   C2        1.0  0.76552  0.91010  0.89242  1.0000
  C   C3        1.0  0.84322  0.30413  0.36161  1.0000
  C   C4        1.0  0.15678  0.69586  0.63838  1.0000
  C   C5        1.0  0.76438  0.47556  0.36244  1.0000
  C   C6        1.0  0.23562  0.52442  0.63755  1.0000
  C   C7        1.0  0.70699  0.58304  0.52405  1.0000
  C   C8        1.0  0.29302  0.41695  0.47595  1.0000
  C   C9        1.0  0.72949  0.50780  0.68016  1.0000
  C   C10       1.0  0.27051  0.49222  0.31983  1.0000
  C   C11       1.0  0.81375  0.33639  0.66860  1.0000
  C   C12       1.0  0.18627  0.66361  0.33138  1.0000
  C   C13       1.0  0.63036  0.77382  0.52625  1.0000
  C   C14       1.0  0.36963  0.22618  0.47376  1.0000
  S   S1        1.0  0.36516  0.16805  0.91241  1.0000
  S   S2        1.0  0.63485  0.83196  0.08758  1.0000
  N   N1        1.0  0.14307  0.03746  0.25417  1.0000
  N   N2        1.0  0.85692  0.96255  0.74583  1.0000
  N   N3        1.0  0.87239  0.23512  0.51141  1.0000
  N   N4        1.0  0.12761  0.76488  0.48857  1.0000
  O   O1        1.0  0.77119  0.88461  0.41390  1.0000
  O   O2        1.0  0.22880  0.11539  0.58611  1.0000
