data_image0
_chemical_formula_structural       Cu2H12C8N20Cl2
_chemical_formula_sum              "Cu2 H12 C8 N20 Cl2"
_cell_length_a       6.19095
_cell_length_b       8.52655
_cell_length_c       10.234
_cell_angle_alpha    106.784
_cell_angle_beta     90.0018
_cell_angle_gamma    90.0004

_space_group_name_H-M_alt    "P 1"
_space_group_IT_number       1

loop_
  _space_group_symop_operation_xyz
  'x, y, z'

loop_
  _atom_site_type_symbol
  _atom_site_label
  _atom_site_symmetry_multiplicity
  _atom_site_fract_x
  _atom_site_fract_y
  _atom_site_fract_z
  _atom_site_occupancy
  Cu  Cu1       1.0  0.20765  0.00001  0.75001  1.0000
  Cu  Cu2       1.0  0.79234  0.00000  0.25001  1.0000
  H   H1        1.0  0.31984  0.33824  0.69588  1.0000
  H   H2        1.0  0.31969  0.66170  0.80411  1.0000
  H   H3        1.0  0.68025  0.66174  0.30409  1.0000
  H   H4        1.0  0.68022  0.33825  0.19589  1.0000
  H   H5        1.0  0.47373  0.44319  0.59734  1.0000
  H   H6        1.0  0.47366  0.55680  0.90267  1.0000
  H   H7        1.0  0.52630  0.55681  0.40265  1.0000
  H   H8        1.0  0.52629  0.44318  0.09733  1.0000
  H   H9        1.0  0.50482  0.22637  0.56851  1.0000
  H   H10       1.0  0.50471  0.77361  0.93144  1.0000
  H   H11       1.0  0.49522  0.77365  0.43144  1.0000
  H   H12       1.0  0.49525  0.22636  0.06852  1.0000
  C   C1        1.0  0.07948  0.17385  0.46185  1.0000
  C   C2        1.0  0.07945  0.82614  0.03815  1.0000
  C   C3        1.0  0.92052  0.82616  0.53815  1.0000
  C   C4        1.0  0.92055  0.17385  0.96186  1.0000
  C   C5        1.0  0.39120  0.32955  0.59617  1.0000
  C   C6        1.0  0.39112  0.67043  0.90382  1.0000
  C   C7        1.0  0.60883  0.67045  0.40381  1.0000
  C   C8        1.0  0.60883  0.32955  0.09617  1.0000
  N   N1        1.0  0.21997  0.30053  0.49525  1.0000
  N   N2        1.0  0.21992  0.69946  0.00474  1.0000
  N   N3        1.0  0.78006  0.69947  0.50475  1.0000
  N   N4        1.0  0.78006  0.30055  0.99526  1.0000
  N   N5        1.0  0.19138  0.39049  0.40856  1.0000
  N   N6        1.0  0.19134  0.60951  0.09145  1.0000
  N   N7        1.0  0.80865  0.60950  0.59145  1.0000
  N   N8        1.0  0.80865  0.39051  0.90854  1.0000
  N   N9        1.0  0.03604  0.32213  0.32405  1.0000
  N   N10       1.0  0.03601  0.67788  0.17596  1.0000
  N   N11       1.0  0.96398  0.67786  0.67595  1.0000
  N   N12       1.0  0.96398  0.32215  0.82405  1.0000
  N   N13       1.0  0.96305  0.18699  0.35436  1.0000
  N   N14       1.0  0.96303  0.81303  0.14566  1.0000
  N   N15       1.0  0.03695  0.81302  0.64566  1.0000
  N   N16       1.0  0.03695  0.18701  0.85436  1.0000
  N   N17       1.0  0.07049  0.05624  0.52730  1.0000
  N   N18       1.0  0.07047  0.94375  0.97272  1.0000
  N   N19       1.0  0.92953  0.94381  0.47271  1.0000
  N   N20       1.0  0.92954  0.05621  0.02732  1.0000
  Cl  Cl1       1.0  0.56029  0.99999  0.75003  1.0000
  Cl  Cl2       1.0  0.43971  1.00000  0.25001  1.0000
