data_image0
_chemical_formula_structural       Cu2Mo4H20C32N4O17
_chemical_formula_sum              "Cu2 Mo4 H20 C32 N4 O17"
_cell_length_a       7.54139
_cell_length_b       10.2384
_cell_length_c       11.3678
_cell_angle_alpha    78.1333
_cell_angle_beta     87.1459
_cell_angle_gamma    83.602

_space_group_name_H-M_alt    "P 1"
_space_group_IT_number       1

loop_
  _space_group_symop_operation_xyz
  'x, y, z'

loop_
  _atom_site_type_symbol
  _atom_site_label
  _atom_site_symmetry_multiplicity
  _atom_site_fract_x
  _atom_site_fract_y
  _atom_site_fract_z
  _atom_site_occupancy
  Cu  Cu1       1.0  0.55761  0.29528  0.73031  1.0000
  Cu  Cu2       1.0  0.44239  0.70471  0.26969  1.0000
  Mo  Mo1       1.0  0.36612  0.00579  0.86200  1.0000
  Mo  Mo2       1.0  0.63388  0.99421  0.13800  1.0000
  Mo  Mo3       1.0  0.93872  0.05089  0.85742  1.0000
  Mo  Mo4       1.0  0.06128  0.94911  0.14258  1.0000
  H   H1        1.0  0.64193  0.06415  0.58896  1.0000
  H   H2        1.0  0.35808  0.93585  0.41103  1.0000
  H   H3        1.0  0.81153  0.04702  0.39165  1.0000
  H   H4        1.0  0.18847  0.95299  0.60834  1.0000
  H   H5        1.0  0.93048  0.24931  0.26972  1.0000
  H   H6        1.0  0.06952  0.75070  0.73027  1.0000
  H   H7        1.0  0.97185  0.50067  0.25000  1.0000
  H   H8        1.0  0.02815  0.49934  0.75001  1.0000
  H   H9        1.0  0.91476  0.70737  0.33107  1.0000
  H   H10       1.0  0.08523  0.29264  0.66894  1.0000
  H   H11       1.0  0.79516  0.81977  0.50388  1.0000
  H   H12       1.0  0.20485  0.18023  0.49614  1.0000
  H   H13       1.0  0.65391  0.79213  0.71303  1.0000
  H   H14       1.0  0.34610  0.20786  0.28699  1.0000
  H   H15       1.0  0.54403  0.57237  0.80809  1.0000
  H   H16       1.0  0.45596  0.42762  0.19192  1.0000
  H   H17       1.0  0.29691  0.57738  0.93303  1.0000
  H   H18       1.0  0.70309  0.42262  0.06696  1.0000
  H   H19       1.0  0.94048  0.26688  0.99978  1.0000
  H   H20       1.0  0.05953  0.73311  0.00022  1.0000
  C   C1        1.0  0.69600  0.15004  0.53098  1.0000
  C   C2        1.0  0.30400  0.84996  0.46902  1.0000
  C   C3        1.0  0.79117  0.14158  0.42281  1.0000
  C   C4        1.0  0.20882  0.85843  0.57718  1.0000
  C   C5        1.0  0.85651  0.25496  0.35382  1.0000
  C   C6        1.0  0.14349  0.74505  0.64618  1.0000
  C   C7        1.0  0.82818  0.37763  0.39396  1.0000
  C   C8        1.0  0.17182  0.62238  0.60604  1.0000
  C   C9        1.0  0.89431  0.50027  0.33346  1.0000
  C   C10       1.0  0.10568  0.49974  0.66655  1.0000
  C   C11       1.0  0.86382  0.61477  0.37899  1.0000
  C   C12       1.0  0.13617  0.38524  0.62102  1.0000
  C   C13       1.0  0.77006  0.61460  0.49184  1.0000
  C   C14       1.0  0.22994  0.38540  0.50817  1.0000
  C   C15       1.0  0.74701  0.72527  0.54946  1.0000
  C   C16       1.0  0.25299  0.27473  0.45056  1.0000
  C   C17       1.0  0.66921  0.71082  0.66359  1.0000
  C   C18       1.0  0.33079  0.28917  0.33643  1.0000
  C   C19       1.0  0.60803  0.58719  0.71900  1.0000
  C   C20       1.0  0.39196  0.41280  0.28101  1.0000
  C   C21       1.0  0.70587  0.49417  0.55460  1.0000
  C   C22       1.0  0.29413  0.50583  0.44541  1.0000
  C   C23       1.0  0.73196  0.37647  0.50428  1.0000
  C   C24       1.0  0.26804  0.62353  0.49572  1.0000
  C   C25       1.0  0.27088  0.31588  0.91122  1.0000
  C   C26       1.0  0.72912  0.68411  0.08879  1.0000
  C   C27       1.0  0.13565  0.41063  0.96184  1.0000
  C   C28       1.0  0.86436  0.58937  0.03816  1.0000
  C   C29       1.0  0.16737  0.54280  0.96245  1.0000
  C   C30       1.0  0.83264  0.45720  0.03755  1.0000
  C   C31       1.0  0.96717  0.36879  0.00033  1.0000
  C   C32       1.0  0.03284  0.63121  0.99966  1.0000
  N   N1        1.0  0.66691  0.26506  0.56955  1.0000
  N   N2        1.0  0.33309  0.73494  0.43045  1.0000
  N   N3        1.0  0.62487  0.48213  0.66541  1.0000
  N   N4        1.0  0.37513  0.51786  0.33459  1.0000
  O   O1        1.0  0.14660  0.95208  0.97577  1.0000
  O   O2        1.0  0.85339  0.04791  0.02422  1.0000
  O   O3        1.0  0.15013  0.05251  0.76130  1.0000
  O   O4        1.0  0.84987  0.94749  0.23869  1.0000
  O   O5        1.0  0.50000  1.00000  1.00000  1.0000
  O   O6        1.0  0.22780  0.19925  0.91587  1.0000
  O   O7        1.0  0.77220  0.80075  0.08412  1.0000
  O   O8        1.0  0.48837  0.11671  0.75600  1.0000
  O   O9        1.0  0.51164  0.88328  0.24399  1.0000
  O   O10       1.0  0.42789  0.85010  0.83146  1.0000
  O   O11       1.0  0.57211  0.14990  0.16854  1.0000
  O   O12       1.0  0.83268  0.21020  0.80022  1.0000
  O   O13       1.0  0.16732  0.78980  0.19978  1.0000
  O   O14       1.0  0.82867  0.93585  0.80803  1.0000
  O   O15       1.0  0.17133  0.06415  0.19196  1.0000
  O   O16       1.0  0.41511  0.36156  0.86235  1.0000
  O   O17       1.0  0.58490  0.63844  0.13765  1.0000
