data_image0
_chemical_formula_structural       Zn4H52C46N4O16
_chemical_formula_sum              "Zn4 H52 C46 N4 O16"
_cell_length_a       8.74247
_cell_length_b       8.74629
_cell_length_c       17.135
_cell_angle_alpha    100.098
_cell_angle_beta     100.103
_cell_angle_gamma    105.86

_space_group_name_H-M_alt    "P 1"
_space_group_IT_number       1

loop_
  _space_group_symop_operation_xyz
  'x, y, z'

loop_
  _atom_site_type_symbol
  _atom_site_label
  _atom_site_symmetry_multiplicity
  _atom_site_fract_x
  _atom_site_fract_y
  _atom_site_fract_z
  _atom_site_occupancy
  Zn  Zn1       1.0  0.74027  0.25323  0.14673  1.0000
  Zn  Zn2       1.0  0.74664  0.25963  0.35325  1.0000
  Zn  Zn3       1.0  0.25973  0.74677  0.85327  1.0000
  Zn  Zn4       1.0  0.25336  0.74037  0.64675  1.0000
  H   H1        1.0  0.33145  0.46131  0.13108  1.0000
  H   H2        1.0  0.53875  0.66848  0.36894  1.0000
  H   H3        1.0  0.66855  0.53869  0.86892  1.0000
  H   H4        1.0  0.46125  0.33152  0.63106  1.0000
  H   H5        1.0  0.36044  0.45051  0.03087  1.0000
  H   H6        1.0  0.54958  0.63953  0.46914  1.0000
  H   H7        1.0  0.63956  0.54949  0.96913  1.0000
  H   H8        1.0  0.45042  0.36047  0.53086  1.0000
  H   H9        1.0  0.56125  0.73445  0.07558  1.0000
  H   H10       1.0  0.26552  0.43880  0.42442  1.0000
  H   H11       1.0  0.43875  0.26555  0.92442  1.0000
  H   H12       1.0  0.73448  0.56120  0.57558  1.0000
  H   H13       1.0  0.36073  0.72756  0.08349  1.0000
  H   H14       1.0  0.27239  0.63922  0.41650  1.0000
  H   H15       1.0  0.63927  0.27245  0.91651  1.0000
  H   H16       1.0  0.72761  0.36079  0.58350  1.0000
  H   H17       1.0  0.43862  0.75071  0.23361  1.0000
  H   H18       1.0  0.24931  0.56137  0.26638  1.0000
  H   H19       1.0  0.56138  0.24930  0.76639  1.0000
  H   H20       1.0  0.75069  0.43863  0.73362  1.0000
  H   H21       1.0  0.63158  0.73365  0.22601  1.0000
  H   H22       1.0  0.26643  0.36853  0.27401  1.0000
  H   H23       1.0  0.36843  0.26635  0.77399  1.0000
  H   H24       1.0  0.73357  0.63147  0.72599  1.0000
  H   H25       1.0  0.59204  0.00602  0.43335  1.0000
  H   H26       1.0  0.99392  0.40786  0.06662  1.0000
  H   H27       1.0  0.40796  0.99399  0.56666  1.0000
  H   H28       1.0  0.00608  0.59213  0.93338  1.0000
  H   H29       1.0  0.66373  0.90488  0.55949  1.0000
  H   H30       1.0  0.09511  0.33624  0.94048  1.0000
  H   H31       1.0  0.33628  0.09512  0.44051  1.0000
  H   H32       1.0  0.90489  0.66375  0.05952  1.0000
  H   H33       1.0  0.13096  0.28696  0.62066  1.0000
  H   H34       1.0  0.71305  0.86910  0.87938  1.0000
  H   H35       1.0  0.86904  0.71304  0.37934  1.0000
  H   H36       1.0  0.28694  0.13090  0.12062  1.0000
  H   H37       1.0  0.04216  0.36669  0.49291  1.0000
  H   H38       1.0  0.63327  0.95783  0.00712  1.0000
  H   H39       1.0  0.95784  0.63331  0.50709  1.0000
  H   H40       1.0  0.36672  0.04216  0.99288  1.0000
  H   H41       1.0  0.08976  0.06079  0.69117  1.0000
  H   H42       1.0  0.93921  0.91034  0.80885  1.0000
  H   H43       1.0  0.91024  0.93921  0.30883  1.0000
  H   H44       1.0  0.06079  0.08966  0.19115  1.0000
  H   H45       1.0  0.90635  0.89455  0.66167  1.0000
  H   H46       1.0  0.10553  0.09364  0.83833  1.0000
  H   H47       1.0  0.09365  0.10545  0.33833  1.0000
  H   H48       1.0  0.89446  0.90636  0.16167  1.0000
  H   H49       1.0  0.76506  0.05869  0.73703  1.0000
  H   H50       1.0  0.94129  0.23484  0.76296  1.0000
  H   H51       1.0  0.23494  0.94132  0.26297  1.0000
  H   H52       1.0  0.05871  0.76516  0.23704  1.0000
  C   C1        1.0  0.56609  0.44762  0.11554  1.0000
  C   C2        1.0  0.55244  0.43393  0.38446  1.0000
  C   C3        1.0  0.43390  0.55237  0.88446  1.0000
  C   C4        1.0  0.44756  0.56607  0.61553  1.0000
  C   C5        1.0  0.41994  0.50777  0.09575  1.0000
  C   C6        1.0  0.49231  0.58004  0.40427  1.0000
  C   C7        1.0  0.58006  0.49223  0.90425  1.0000
  C   C8        1.0  0.50769  0.41996  0.59573  1.0000
  C   C9        1.0  0.46731  0.69313  0.10892  1.0000
  C   C10       1.0  0.30687  0.53270  0.39109  1.0000
  C   C11       1.0  0.53269  0.30687  0.89109  1.0000
  C   C12       1.0  0.69313  0.46730  0.60891  1.0000
  C   C13       1.0  0.53305  0.77874  0.19895  1.0000
  C   C14       1.0  0.22128  0.46699  0.30105  1.0000
  C   C15       1.0  0.46695  0.22126  0.80105  1.0000
  C   C16       1.0  0.77872  0.53302  0.69895  1.0000
  C   C17       1.0  0.60654  0.96275  0.21718  1.0000
  C   C18       1.0  0.03722  0.39344  0.28280  1.0000
  C   C19       1.0  0.39346  0.03725  0.78282  1.0000
  C   C20       1.0  0.96279  0.60656  0.71720  1.0000
  C   C21       1.0  0.70946  0.06390  0.47730  1.0000
  C   C22       1.0  0.93605  0.29047  0.02268  1.0000
  C   C23       1.0  0.29054  0.93610  0.52271  1.0000
  C   C24       1.0  0.06395  0.70952  0.97732  1.0000
  C   C25       1.0  0.75005  0.00895  0.54702  1.0000
  C   C26       1.0  0.99103  0.24993  0.95296  1.0000
  C   C27       1.0  0.24996  0.99105  0.45298  1.0000
  C   C28       1.0  0.00897  0.75007  0.04704  1.0000
  C   C29       1.0  0.90445  0.08641  0.60065  1.0000
  C   C30       1.0  0.91359  0.09557  0.89936  1.0000
  C   C31       1.0  0.09555  0.91359  0.39935  1.0000
  C   C32       1.0  0.08640  0.90443  0.10064  1.0000
  C   C33       1.0  0.01012  0.21888  0.58140  1.0000
  C   C34       1.0  0.78111  0.98992  0.91862  1.0000
  C   C35       1.0  0.98988  0.78112  0.41860  1.0000
  C   C36       1.0  0.21888  0.01008  0.08138  1.0000
  C   C37       1.0  0.96121  0.26630  0.51035  1.0000
  C   C38       1.0  0.73367  0.03878  0.98966  1.0000
  C   C39       1.0  0.03879  0.73370  0.48965  1.0000
  C   C40       1.0  0.26632  0.96121  0.01034  1.0000
  C   C41       1.0  0.95553  0.02864  0.67545  1.0000
  C   C42       1.0  0.97138  0.04450  0.82456  1.0000
  C   C43       1.0  0.04447  0.97136  0.32455  1.0000
  C   C44       1.0  0.02861  0.95549  0.17544  1.0000
  C   C45       1.0  0.89972  0.10025  0.75000  1.0000
  C   C46       1.0  0.10028  0.89975  0.25000  1.0000
  N   N1        1.0  0.81342  0.19023  0.45869  1.0000
  N   N2        1.0  0.80972  0.18653  0.04130  1.0000
  N   N3        1.0  0.18658  0.80977  0.54131  1.0000
  N   N4        1.0  0.19028  0.81347  0.95869  1.0000
  O   O1        1.0  0.53859  0.31284  0.14090  1.0000
  O   O2        1.0  0.68724  0.46134  0.35907  1.0000
  O   O3        1.0  0.46140  0.68716  0.85910  1.0000
  O   O4        1.0  0.31276  0.53866  0.64092  1.0000
  O   O5        1.0  0.70307  0.52080  0.10513  1.0000
  O   O6        1.0  0.47918  0.29702  0.39488  1.0000
  O   O7        1.0  0.29692  0.47920  0.89487  1.0000
  O   O8        1.0  0.52083  0.70298  0.60512  1.0000
  O   O9        1.0  0.61064  0.04079  0.28816  1.0000
  O   O10       1.0  0.95913  0.38934  0.21182  1.0000
  O   O11       1.0  0.38937  0.95920  0.71184  1.0000
  O   O12       1.0  0.04087  0.61067  0.78818  1.0000
  O   O13       1.0  0.97472  0.33646  0.33730  1.0000
  O   O14       1.0  0.66348  0.02526  0.16267  1.0000
  O   O15       1.0  0.02528  0.66355  0.66270  1.0000
  O   O16       1.0  0.33652  0.97474  0.83733  1.0000
