data_image0
_chemical_formula_structural       Cu2H12C10S8I2
_chemical_formula_sum              "Cu2 H12 C10 S8 I2"
_cell_length_a       7.58794
_cell_length_b       7.58788
_cell_length_c       10.3337
_cell_angle_alpha    98.6945
_cell_angle_beta     98.6932
_cell_angle_gamma    118.464

_space_group_name_H-M_alt    "P 1"
_space_group_IT_number       1

loop_
  _space_group_symop_operation_xyz
  'x, y, z'

loop_
  _atom_site_type_symbol
  _atom_site_label
  _atom_site_symmetry_multiplicity
  _atom_site_fract_x
  _atom_site_fract_y
  _atom_site_fract_z
  _atom_site_occupancy
  Cu  Cu1       1.0  0.96127  0.96127  0.61731  1.0000
  Cu  Cu2       1.0  0.03873  0.03872  0.38269  1.0000
  H   H1        1.0  0.45581  0.77701  0.59543  1.0000
  H   H2        1.0  0.22299  0.54418  0.40457  1.0000
  H   H3        1.0  0.54419  0.22299  0.40457  1.0000
  H   H4        1.0  0.77701  0.45581  0.59543  1.0000
  H   H5        1.0  0.41619  0.91219  0.73807  1.0000
  H   H6        1.0  0.08781  0.58381  0.26193  1.0000
  H   H7        1.0  0.58381  0.08781  0.26193  1.0000
  H   H8        1.0  0.91219  0.41619  0.73807  1.0000
  H   H9        1.0  0.51187  0.04110  0.61256  1.0000
  H   H10       1.0  0.95891  0.48814  0.38744  1.0000
  H   H11       1.0  0.48813  0.95890  0.38744  1.0000
  H   H12       1.0  0.04109  0.51186  0.61256  1.0000
  C   C1        1.0  0.57698  0.57699  0.98197  1.0000
  C   C2        1.0  0.42302  0.42303  0.01803  1.0000
  C   C3        1.0  0.74621  0.85067  0.85222  1.0000
  C   C4        1.0  0.14934  0.25379  0.14778  1.0000
  C   C5        1.0  0.25379  0.14933  0.14778  1.0000
  C   C6        1.0  0.85066  0.74621  0.85222  1.0000
  C   C7        1.0  0.51158  0.92687  0.66607  1.0000
  C   C8        1.0  0.07313  0.48841  0.33393  1.0000
  C   C9        1.0  0.48842  0.07313  0.33393  1.0000
  C   C10       1.0  0.92687  0.51158  0.66607  1.0000
  S   S1        1.0  0.77783  0.03227  0.75881  1.0000
  S   S2        1.0  0.96774  0.22216  0.24119  1.0000
  S   S3        1.0  0.22217  0.96773  0.24118  1.0000
  S   S4        1.0  0.03227  0.77783  0.75881  1.0000
  S   S5        1.0  0.57525  0.79991  0.95722  1.0000
  S   S6        1.0  0.20009  0.42475  0.04278  1.0000
  S   S7        1.0  0.42475  0.20009  0.04277  1.0000
  S   S8        1.0  0.79990  0.57525  0.95722  1.0000
  I   I1        1.0  0.29492  0.29491  0.61291  1.0000
  I   I2        1.0  0.70509  0.70508  0.38710  1.0000
