data_image0
_chemical_formula_structural       K2H26C30S4N4O2
_chemical_formula_sum              "K2 H26 C30 S4 N4 O2"
_cell_length_a       6.63379
_cell_length_b       10.4733
_cell_length_c       12.2219
_cell_angle_alpha    64.7137
_cell_angle_beta     90.0939
_cell_angle_gamma    80.8154

_space_group_name_H-M_alt    "P 1"
_space_group_IT_number       1

loop_
  _space_group_symop_operation_xyz
  'x, y, z'

loop_
  _atom_site_type_symbol
  _atom_site_label
  _atom_site_symmetry_multiplicity
  _atom_site_fract_x
  _atom_site_fract_y
  _atom_site_fract_z
  _atom_site_occupancy
  K   K1        1.0  0.30264  0.05632  0.84936  1.0000
  K   K2        1.0  0.69736  0.94369  0.15064  1.0000
  H   H1        1.0  0.24251  0.89142  0.64874  1.0000
  H   H2        1.0  0.75749  0.10858  0.35126  1.0000
  H   H3        1.0  0.24293  0.91344  0.43555  1.0000
  H   H4        1.0  0.75707  0.08656  0.56445  1.0000
  H   H5        1.0  0.25924  0.15219  0.26543  1.0000
  H   H6        1.0  0.74077  0.84780  0.73457  1.0000
  H   H7        1.0  0.25642  0.41085  0.19578  1.0000
  H   H8        1.0  0.74359  0.58914  0.80422  1.0000
  H   H9        1.0  0.24062  0.62194  0.24293  1.0000
  H   H10       1.0  0.75938  0.37805  0.75708  1.0000
  H   H11       1.0  0.22779  0.72147  0.39234  1.0000
  H   H12       1.0  0.77222  0.27853  0.60765  1.0000
  H   H13       1.0  0.23637  0.67843  0.61223  1.0000
  H   H14       1.0  0.76363  0.32157  0.38777  1.0000
  H   H15       1.0  0.26076  0.42696  0.77273  1.0000
  H   H16       1.0  0.73923  0.57304  0.22726  1.0000
  H   H17       1.0  0.72672  0.31530  0.96210  1.0000
  H   H18       1.0  0.27329  0.68469  0.03791  1.0000
  H   H19       1.0  0.96609  0.36942  0.97563  1.0000
  H   H20       1.0  0.03391  0.63058  0.02438  1.0000
  H   H21       1.0  0.69458  0.47908  0.06758  1.0000
  H   H22       1.0  0.30541  0.52092  0.93242  1.0000
  H   H23       1.0  0.88128  0.35230  0.18305  1.0000
  H   H24       1.0  0.11871  0.64770  0.81695  1.0000
  H   H25       1.0  0.63919  0.30645  0.16329  1.0000
  H   H26       1.0  0.36081  0.69355  0.83671  1.0000
  C   C1        1.0  0.24859  0.99468  0.57223  1.0000
  C   C2        1.0  0.75142  0.00533  0.42777  1.0000
  C   C3        1.0  0.24826  0.00628  0.45325  1.0000
  C   C4        1.0  0.75174  0.99372  0.54675  1.0000
  C   C5        1.0  0.25571  0.13835  0.35905  1.0000
  C   C6        1.0  0.74429  0.86165  0.64095  1.0000
  C   C7        1.0  0.25906  0.25774  0.38414  1.0000
  C   C8        1.0  0.74094  0.74226  0.61586  1.0000
  C   C9        1.0  0.25619  0.39849  0.28914  1.0000
  C   C10       1.0  0.74381  0.60151  0.71086  1.0000
  C   C11       1.0  0.24816  0.51374  0.31493  1.0000
  C   C12       1.0  0.75184  0.48625  0.68507  1.0000
  C   C13       1.0  0.24872  0.49601  0.43765  1.0000
  C   C14       1.0  0.75128  0.50399  0.56235  1.0000
  C   C15       1.0  0.23919  0.61393  0.46627  1.0000
  C   C16       1.0  0.76081  0.38607  0.53373  1.0000
  C   C17       1.0  0.24288  0.59060  0.58630  1.0000
  C   C18       1.0  0.75711  0.40941  0.41370  1.0000
  C   C19       1.0  0.25655  0.44923  0.67667  1.0000
  C   C20       1.0  0.74344  0.55078  0.32333  1.0000
  C   C21       1.0  0.25877  0.35704  0.53553  1.0000
  C   C22       1.0  0.74123  0.64296  0.46447  1.0000
  C   C23       1.0  0.25955  0.23492  0.50798  1.0000
  C   C24       1.0  0.74045  0.76508  0.49202  1.0000
  C   C25       1.0  0.14195  0.11064  0.08917  1.0000
  C   C26       1.0  0.85805  0.88936  0.91084  1.0000
  C   C27       1.0  0.84777  0.31059  0.02601  1.0000
  C   C28       1.0  0.15223  0.68941  0.97399  1.0000
  C   C29       1.0  0.76052  0.36433  0.11598  1.0000
  C   C30       1.0  0.23948  0.63567  0.88402  1.0000
  S   S1        1.0  0.30861  0.22470  0.02716  1.0000
  S   S2        1.0  0.69139  0.77530  0.97284  1.0000
  S   S3        1.0  0.20506  0.92973  0.15697  1.0000
  S   S4        1.0  0.79494  0.07027  0.84303  1.0000
  N   N1        1.0  0.25584  0.10365  0.59999  1.0000
  N   N2        1.0  0.74416  0.89635  0.40001  1.0000
  N   N3        1.0  0.26392  0.33578  0.65322  1.0000
  N   N4        1.0  0.73607  0.66423  0.34678  1.0000
  O   O1        1.0  0.93802  0.15936  0.08939  1.0000
  O   O2        1.0  0.06198  0.84064  0.91061  1.0000
