data_image0
_chemical_formula_structural       Ag4H8C8N28O16
_chemical_formula_sum              "Ag4 H8 C8 N28 O16"
_cell_length_a       5.66912
_cell_length_b       8.55044
_cell_length_c       15.3754
_cell_angle_alpha    89.9994
_cell_angle_beta     90.0007
_cell_angle_gamma    90.0001

_space_group_name_H-M_alt    "P 1"
_space_group_IT_number       1

loop_
  _space_group_symop_operation_xyz
  'x, y, z'

loop_
  _atom_site_type_symbol
  _atom_site_label
  _atom_site_symmetry_multiplicity
  _atom_site_fract_x
  _atom_site_fract_y
  _atom_site_fract_z
  _atom_site_occupancy
  Ag  Ag1       1.0  0.75917  0.41858  0.56871  1.0000
  Ag  Ag2       1.0  0.74082  0.58143  0.06871  1.0000
  Ag  Ag3       1.0  0.25916  0.08143  0.43129  1.0000
  Ag  Ag4       1.0  0.24083  0.91858  0.93130  1.0000
  H   H1        1.0  0.13283  0.68019  0.74708  1.0000
  H   H2        1.0  0.36714  0.31981  0.24709  1.0000
  H   H3        1.0  0.63287  0.81981  0.25291  1.0000
  H   H4        1.0  0.86717  0.18019  0.75292  1.0000
  H   H5        1.0  0.16728  0.97992  0.67126  1.0000
  H   H6        1.0  0.33269  0.02008  0.17128  1.0000
  H   H7        1.0  0.66733  0.52008  0.32872  1.0000
  H   H8        1.0  0.83272  0.47991  0.82873  1.0000
  C   C1        1.0  0.23011  0.72257  0.69154  1.0000
  C   C2        1.0  0.26987  0.27743  0.19155  1.0000
  C   C3        1.0  0.73013  0.77743  0.30845  1.0000
  C   C4        1.0  0.76989  0.22256  0.80846  1.0000
  C   C5        1.0  0.24803  0.86892  0.65524  1.0000
  C   C6        1.0  0.25196  0.13109  0.15525  1.0000
  C   C7        1.0  0.74805  0.63107  0.34475  1.0000
  C   C8        1.0  0.75198  0.36893  0.84475  1.0000
  N   N1        1.0  0.37653  0.63024  0.64267  1.0000
  N   N2        1.0  0.12346  0.36977  0.14267  1.0000
  N   N3        1.0  0.87655  0.86977  0.35733  1.0000
  N   N4        1.0  0.62346  0.13024  0.85733  1.0000
  N   N5        1.0  0.48393  0.70769  0.57895  1.0000
  N   N6        1.0  0.01607  0.29231  0.07896  1.0000
  N   N7        1.0  0.98392  0.79231  0.42105  1.0000
  N   N8        1.0  0.51608  0.20769  0.92104  1.0000
  N   N9        1.0  0.40360  0.85332  0.58846  1.0000
  N   N10       1.0  0.09640  0.14668  0.08847  1.0000
  N   N11       1.0  0.90361  0.64668  0.41154  1.0000
  N   N12       1.0  0.59641  0.35332  0.91153  1.0000
  N   N13       1.0  0.48061  0.96788  0.53206  1.0000
  N   N14       1.0  0.01939  0.03213  0.03207  1.0000
  N   N15       1.0  0.98061  0.53213  0.46794  1.0000
  N   N16       1.0  0.51940  0.46787  0.96794  1.0000
  N   N17       1.0  0.67222  0.04249  0.56599  1.0000
  N   N18       1.0  0.82779  0.95752  0.06599  1.0000
  N   N19       1.0  0.17221  0.45751  0.43402  1.0000
  N   N20       1.0  0.32779  0.54248  0.93401  1.0000
  N   N21       1.0  0.45412  0.47829  0.65385  1.0000
  N   N22       1.0  0.04587  0.52171  0.15385  1.0000
  N   N23       1.0  0.95412  0.02171  0.34615  1.0000
  N   N24       1.0  0.54587  0.97829  0.84615  1.0000
  N   N25       1.0  0.27877  0.37650  0.67414  1.0000
  N   N26       1.0  0.22123  0.62350  0.17414  1.0000
  N   N27       1.0  0.77876  0.12350  0.32586  1.0000
  N   N28       1.0  0.72123  0.87650  0.82586  1.0000
  O   O1        1.0  0.07014  0.42194  0.68632  1.0000
  O   O2        1.0  0.42987  0.57805  0.18631  1.0000
  O   O3        1.0  0.57011  0.07804  0.31369  1.0000
  O   O4        1.0  0.92987  0.92195  0.81369  1.0000
  O   O5        1.0  0.34257  0.23741  0.68121  1.0000
  O   O6        1.0  0.15744  0.76259  0.18121  1.0000
  O   O7        1.0  0.84254  0.26259  0.31879  1.0000
  O   O8        1.0  0.65743  0.73741  0.81879  1.0000
  O   O9        1.0  0.75896  0.00476  0.63733  1.0000
  O   O10       1.0  0.74104  0.99523  0.13734  1.0000
  O   O11       1.0  0.25897  0.49523  0.36267  1.0000
  O   O12       1.0  0.24104  0.50476  0.86266  1.0000
  O   O13       1.0  0.75277  0.14978  0.51805  1.0000
  O   O14       1.0  0.74723  0.85023  0.01806  1.0000
  O   O15       1.0  0.25276  0.35021  0.48195  1.0000
  O   O16       1.0  0.24723  0.64977  0.98194  1.0000
