data_image0
_chemical_formula_structural       Mn2H28C28S4N8O12
_chemical_formula_sum              "Mn2 H28 C28 S4 N8 O12"
_cell_length_a       9.84095
_cell_length_b       9.61786
_cell_length_c       11.1718
_cell_angle_alpha    106.679
_cell_angle_beta     101.112
_cell_angle_gamma    109.357

_space_group_name_H-M_alt    "P 1"
_space_group_IT_number       1

loop_
  _space_group_symop_operation_xyz
  'x, y, z'

loop_
  _atom_site_type_symbol
  _atom_site_label
  _atom_site_symmetry_multiplicity
  _atom_site_fract_x
  _atom_site_fract_y
  _atom_site_fract_z
  _atom_site_occupancy
  Mn  Mn1       1.0  0.80050  0.81609  0.28781  1.0000
  Mn  Mn2       1.0  0.19943  0.18385  0.71223  1.0000
  H   H1        1.0  0.05472  0.84877  0.45023  1.0000
  H   H2        1.0  0.94525  0.15121  0.54973  1.0000
  H   H3        1.0  0.12336  0.91698  0.35377  1.0000
  H   H4        1.0  0.87671  0.08303  0.64626  1.0000
  H   H5        1.0  0.90251  0.97942  0.14197  1.0000
  H   H6        1.0  0.09751  0.02057  0.85812  1.0000
  H   H7        1.0  0.97388  0.85154  0.11619  1.0000
  H   H8        1.0  0.02612  0.14846  0.88382  1.0000
  H   H9        1.0  0.97513  0.59877  0.23320  1.0000
  H   H10       1.0  0.02482  0.40124  0.76682  1.0000
  H   H11       1.0  0.94186  0.39949  0.16803  1.0000
  H   H12       1.0  0.05810  0.60049  0.83198  1.0000
  H   H13       1.0  0.63302  0.04428  0.36024  1.0000
  H   H14       1.0  0.36697  0.95574  0.63973  1.0000
  H   H15       1.0  0.44443  0.03161  0.35295  1.0000
  H   H16       1.0  0.55556  0.96839  0.64704  1.0000
  H   H17       1.0  0.35959  0.23429  0.04632  1.0000
  H   H18       1.0  0.64038  0.76572  0.95364  1.0000
  H   H19       1.0  0.21732  0.41803  0.09720  1.0000
  H   H20       1.0  0.78268  0.58196  0.90285  1.0000
  H   H21       1.0  0.69399  0.53057  0.38647  1.0000
  H   H22       1.0  0.30604  0.46941  0.61351  1.0000
  H   H23       1.0  0.50028  0.73900  0.66262  1.0000
  H   H24       1.0  0.49971  0.26099  0.33737  1.0000
  H   H25       1.0  0.14287  0.43925  0.34615  1.0000
  H   H26       1.0  0.85713  0.56075  0.65384  1.0000
  H   H27       1.0  0.77428  0.28417  0.49891  1.0000
  H   H28       1.0  0.22572  0.71583  0.50108  1.0000
  C   C1        1.0  0.53927  0.47928  0.13863  1.0000
  C   C2        1.0  0.46073  0.52073  0.86136  1.0000
  C   C3        1.0  0.47853  0.31642  0.08235  1.0000
  C   C4        1.0  0.52147  0.68357  0.91770  1.0000
  C   C5        1.0  0.75585  0.44751  0.14445  1.0000
  C   C6        1.0  0.24414  0.55249  0.85553  1.0000
  C   C7        1.0  0.46043  0.58125  0.17179  1.0000
  C   C8        1.0  0.53955  0.41874  0.82823  1.0000
  C   C9        1.0  0.30761  0.53667  0.14848  1.0000
  C   C10       1.0  0.69238  0.46334  0.85154  1.0000
  C   C11       1.0  0.46508  0.82306  0.26857  1.0000
  C   C12       1.0  0.53491  0.17694  0.73140  1.0000
  C   C13       1.0  0.72431  0.81274  0.54835  1.0000
  C   C14       1.0  0.27570  0.18729  0.45165  1.0000
  C   C15       1.0  0.60839  0.65223  0.52507  1.0000
  C   C16       1.0  0.39163  0.34775  0.47494  1.0000
  C   C17       1.0  0.60811  0.51581  0.43553  1.0000
  C   C18       1.0  0.39192  0.48420  0.56448  1.0000
  C   C19       1.0  0.49929  0.63483  0.59011  1.0000
  C   C20       1.0  0.50076  0.36518  0.40991  1.0000
  C   C21       1.0  0.90369  0.17869  0.31548  1.0000
  C   C22       1.0  0.09632  0.82133  0.68451  1.0000
  C   C23       1.0  0.95208  0.34435  0.41063  1.0000
  C   C24       1.0  0.04795  0.65564  0.58937  1.0000
  C   C25       1.0  0.07958  0.46703  0.41272  1.0000
  C   C26       1.0  0.92045  0.53297  0.58727  1.0000
  C   C27       1.0  0.87312  0.37834  0.49878  1.0000
  C   C28       1.0  0.12691  0.62167  0.50122  1.0000
  S   S1        1.0  0.62054  0.25051  0.07377  1.0000
  S   S2        1.0  0.37947  0.74950  0.92628  1.0000
  S   S3        1.0  0.27036  0.70092  0.21258  1.0000
  S   S4        1.0  0.72963  0.29908  0.78740  1.0000
  N   N1        1.0  0.69657  0.55316  0.17358  1.0000
  N   N2        1.0  0.30341  0.44683  0.82638  1.0000
  N   N3        1.0  0.54953  0.74357  0.23912  1.0000
  N   N4        1.0  0.45046  0.25640  0.76092  1.0000
  N   N5        1.0  0.90622  0.48658  0.16385  1.0000
  N   N6        1.0  0.09379  0.51345  0.83615  1.0000
  N   N7        1.0  0.51859  0.98057  0.33378  1.0000
  N   N8        1.0  0.48140  0.01944  0.66620  1.0000
  O   O1        1.0  0.03321  0.82654  0.35509  1.0000
  O   O2        1.0  0.96680  0.17348  0.64487  1.0000
  O   O3        1.0  0.87817  0.86050  0.11609  1.0000
  O   O4        1.0  0.12180  0.13948  0.88387  1.0000
  O   O5        1.0  0.81466  0.81928  0.47995  1.0000
  O   O6        1.0  0.18531  0.18074  0.52004  1.0000
  O   O7        1.0  0.72940  0.93615  0.63559  1.0000
  O   O8        1.0  0.27060  0.06386  0.36441  1.0000
  O   O9        1.0  0.83759  0.06573  0.35245  1.0000
  O   O10       1.0  0.16242  0.93426  0.64752  1.0000
  O   O11       1.0  0.93068  0.15945  0.20687  1.0000
  O   O12       1.0  0.06932  0.84058  0.79311  1.0000
