data_image0
_chemical_formula_structural       Nd4H32C24O28
_chemical_formula_sum              "Nd4 H32 C24 O28"
_cell_length_a       7.78459
_cell_length_b       8.10907
_cell_length_c       14.2591
_cell_angle_alpha    96.9517
_cell_angle_beta     95.8557
_cell_angle_gamma    104.046

_space_group_name_H-M_alt    "P 1"
_space_group_IT_number       1

loop_
  _space_group_symop_operation_xyz
  'x, y, z'

loop_
  _atom_site_type_symbol
  _atom_site_label
  _atom_site_symmetry_multiplicity
  _atom_site_fract_x
  _atom_site_fract_y
  _atom_site_fract_z
  _atom_site_occupancy
  Nd  Nd1       1.0  0.62786  0.57720  0.79224  1.0000
  Nd  Nd2       1.0  0.37214  0.42280  0.20776  1.0000
  Nd  Nd3       1.0  0.08819  0.49025  0.69999  1.0000
  Nd  Nd4       1.0  0.91181  0.50975  0.30001  1.0000
  H   H1        1.0  0.90075  0.90854  0.51548  1.0000
  H   H2        1.0  0.09925  0.09145  0.48452  1.0000
  H   H3        1.0  0.82562  0.96399  0.62516  1.0000
  H   H4        1.0  0.17438  0.03601  0.37484  1.0000
  H   H5        1.0  0.54744  0.70651  0.57293  1.0000
  H   H6        1.0  0.45256  0.29349  0.42707  1.0000
  H   H7        1.0  0.56290  0.87611  0.50577  1.0000
  H   H8        1.0  0.43710  0.12389  0.49423  1.0000
  H   H9        1.0  0.13728  0.99209  0.00434  1.0000
  H   H10       1.0  0.86272  0.00792  0.99566  1.0000
  H   H11       1.0  0.30769  0.88290  0.00666  1.0000
  H   H12       1.0  0.69231  0.11709  0.99334  1.0000
  H   H13       1.0  0.11773  0.90210  0.15317  1.0000
  H   H14       1.0  0.88227  0.09790  0.84683  1.0000
  H   H15       1.0  0.95734  0.73008  0.08130  1.0000
  H   H16       1.0  0.04266  0.26992  0.91870  1.0000
  H   H17       1.0  0.31363  0.95705  0.64571  1.0000
  H   H18       1.0  0.68637  0.04295  0.35429  1.0000
  H   H19       1.0  0.52407  0.10643  0.69456  1.0000
  H   H20       1.0  0.47593  0.89357  0.30544  1.0000
  H   H21       1.0  0.21224  0.97127  0.80489  1.0000
  H   H22       1.0  0.78776  0.02873  0.19511  1.0000
  H   H23       1.0  0.41871  0.12238  0.85626  1.0000
  H   H24       1.0  0.58129  0.87762  0.14374  1.0000
  H   H25       1.0  0.36042  0.68812  0.90121  1.0000
  H   H26       1.0  0.63957  0.31188  0.09879  1.0000
  H   H27       1.0  0.47151  0.65732  0.99026  1.0000
  H   H28       1.0  0.52850  0.34268  0.00974  1.0000
  H   H29       1.0  0.86498  0.29710  0.51425  1.0000
  H   H30       1.0  0.13502  0.70290  0.48575  1.0000
  H   H31       1.0  0.72267  0.33531  0.58591  1.0000
  H   H32       1.0  0.27733  0.66469  0.41409  1.0000
  C   C1        1.0  0.91225  0.73732  0.61587  1.0000
  C   C2        1.0  0.08775  0.26268  0.38413  1.0000
  C   C3        1.0  0.82104  0.85644  0.56924  1.0000
  C   C4        1.0  0.17896  0.14355  0.43076  1.0000
  C   C5        1.0  0.62748  0.77530  0.52352  1.0000
  C   C6        1.0  0.37252  0.22470  0.47648  1.0000
  C   C7        1.0  0.61216  0.64816  0.43358  1.0000
  C   C8        1.0  0.38784  0.35183  0.56642  1.0000
  C   C9        1.0  0.06144  0.74872  0.91500  1.0000
  C   C10       1.0  0.93856  0.25128  0.08500  1.0000
  C   C11       1.0  0.16330  0.86494  0.00496  1.0000
  C   C12       1.0  0.83670  0.13506  0.99504  1.0000
  C   C13       1.0  0.10087  0.79620  0.09447  1.0000
  C   C14       1.0  0.89913  0.20380  0.90553  1.0000
  C   C15       1.0  0.19960  0.67493  0.13267  1.0000
  C   C16       1.0  0.80040  0.32507  0.86733  1.0000
  C   C17       1.0  0.48619  0.85922  0.73764  1.0000
  C   C18       1.0  0.51381  0.14078  0.26236  1.0000
  C   C19       1.0  0.41323  0.00488  0.70957  1.0000
  C   C20       1.0  0.58677  0.99512  0.29043  1.0000
  C   C21       1.0  0.32227  0.07500  0.79126  1.0000
  C   C22       1.0  0.67773  0.92500  0.20874  1.0000
  C   C23       1.0  0.24419  0.21742  0.76230  1.0000
  C   C24       1.0  0.75581  0.78258  0.23770  1.0000
  O   O1        1.0  0.84574  0.66124  0.68293  1.0000
  O   O2        1.0  0.15425  0.33876  0.31707  1.0000
  O   O3        1.0  0.05989  0.71409  0.59294  1.0000
  O   O4        1.0  0.94010  0.28590  0.40706  1.0000
  O   O5        1.0  0.74400  0.58550  0.42252  1.0000
  O   O6        1.0  0.25600  0.41450  0.57748  1.0000
  O   O7        1.0  0.46772  0.61020  0.37459  1.0000
  O   O8        1.0  0.53228  0.38980  0.62541  1.0000
  O   O9        1.0  0.14779  0.67328  0.85910  1.0000
  O   O10       1.0  0.85221  0.32672  0.14090  1.0000
  O   O11       1.0  0.89461  0.73213  0.89988  1.0000
  O   O12       1.0  0.10538  0.26787  0.10012  1.0000
  O   O13       1.0  0.16153  0.62080  0.21153  1.0000
  O   O14       1.0  0.83847  0.37921  0.78847  1.0000
  O   O15       1.0  0.32036  0.62679  0.09155  1.0000
  O   O16       1.0  0.67964  0.37321  0.90845  1.0000
  O   O17       1.0  0.38313  0.70463  0.72380  1.0000
  O   O18       1.0  0.61687  0.29537  0.27620  1.0000
  O   O19       1.0  0.64672  0.88674  0.77501  1.0000
  O   O20       1.0  0.35329  0.11326  0.22499  1.0000
  O   O21       1.0  0.09651  0.18126  0.70901  1.0000
  O   O22       1.0  0.90349  0.81874  0.29099  1.0000
  O   O23       1.0  0.33000  0.37677  0.79160  1.0000
  O   O24       1.0  0.67000  0.62323  0.20840  1.0000
  O   O25       1.0  0.48600  0.68907  0.92679  1.0000
  O   O26       1.0  0.51400  0.31093  0.07321  1.0000
  O   O27       1.0  0.84184  0.31283  0.58172  1.0000
  O   O28       1.0  0.15816  0.68717  0.41828  1.0000
