data_image0
_chemical_formula_structural       Cd4H36C52N4O20
_chemical_formula_sum              "Cd4 H36 C52 N4 O20"
_cell_length_a       6.9462
_cell_length_b       10.2453
_cell_length_c       20.706
_cell_angle_alpha    89.6119
_cell_angle_beta     88.8553
_cell_angle_gamma    70.1842

_space_group_name_H-M_alt    "P 1"
_space_group_IT_number       1

loop_
  _space_group_symop_operation_xyz
  'x, y, z'

loop_
  _atom_site_type_symbol
  _atom_site_label
  _atom_site_symmetry_multiplicity
  _atom_site_fract_x
  _atom_site_fract_y
  _atom_site_fract_z
  _atom_site_occupancy
  Cd  Cd1       1.0  0.50250  0.29321  0.47211  1.0000
  Cd  Cd2       1.0  0.20400  0.29313  0.02791  1.0000
  Cd  Cd3       1.0  0.49749  0.70679  0.52788  1.0000
  Cd  Cd4       1.0  0.79600  0.70688  0.97209  1.0000
  H   H1        1.0  0.26022  0.59467  0.29751  1.0000
  H   H2        1.0  0.14466  0.59468  0.20260  1.0000
  H   H3        1.0  0.73978  0.40533  0.70248  1.0000
  H   H4        1.0  0.85535  0.40532  0.79740  1.0000
  H   H5        1.0  0.02306  0.81081  0.47305  1.0000
  H   H6        1.0  0.16665  0.81062  0.02707  1.0000
  H   H7        1.0  0.97693  0.18918  0.52695  1.0000
  H   H8        1.0  0.83335  0.18938  0.97294  1.0000
  H   H9        1.0  0.88860  0.03044  0.29327  1.0000
  H   H10       1.0  0.08058  0.03044  0.20681  1.0000
  H   H11       1.0  0.11139  0.96956  0.70673  1.0000
  H   H12       1.0  0.91940  0.96957  0.79319  1.0000
  H   H13       1.0  0.55488  0.05864  0.70430  1.0000
  H   H14       1.0  0.38647  0.05857  0.79562  1.0000
  H   H15       1.0  0.44513  0.94136  0.29570  1.0000
  H   H16       1.0  0.61353  0.94143  0.20438  1.0000
  H   H17       1.0  0.58739  0.07094  0.58573  1.0000
  H   H18       1.0  0.34176  0.07058  0.91419  1.0000
  H   H19       1.0  0.41261  0.92906  0.41427  1.0000
  H   H20       1.0  0.65825  0.92941  0.08581  1.0000
  H   H21       1.0  0.24326  0.48968  0.58285  1.0000
  H   H22       1.0  0.26657  0.48942  0.91725  1.0000
  H   H23       1.0  0.75672  0.51032  0.41715  1.0000
  H   H24       1.0  0.73345  0.51057  0.08275  1.0000
  H   H25       1.0  0.25916  0.10051  0.47761  1.0000
  H   H26       1.0  0.64011  0.10057  0.02234  1.0000
  H   H27       1.0  0.74083  0.89948  0.52239  1.0000
  H   H28       1.0  0.35989  0.89943  0.97766  1.0000
  H   H29       1.0  0.13748  0.22421  0.43119  1.0000
  H   H30       1.0  0.63807  0.22416  0.06884  1.0000
  H   H31       1.0  0.86251  0.77579  0.56882  1.0000
  H   H32       1.0  0.36194  0.77583  0.93116  1.0000
  H   H33       1.0  0.18758  0.49479  0.70210  1.0000
  H   H34       1.0  0.31686  0.49484  0.79801  1.0000
  H   H35       1.0  0.81242  0.50521  0.29790  1.0000
  H   H36       1.0  0.68316  0.50516  0.20199  1.0000
  C   C1        1.0  0.14937  0.69074  0.38857  1.0000
  C   C2        1.0  0.15991  0.69066  0.11153  1.0000
  C   C3        1.0  0.85062  0.30926  0.61143  1.0000
  C   C4        1.0  0.84010  0.30935  0.88847  1.0000
  C   C5        1.0  0.16852  0.69084  0.32130  1.0000
  C   C6        1.0  0.14044  0.69079  0.17880  1.0000
  C   C7        1.0  0.83148  0.30916  0.67870  1.0000
  C   C8        1.0  0.85957  0.30922  0.82120  1.0000
  C   C9        1.0  0.03485  0.81203  0.42076  1.0000
  C   C10       1.0  0.15332  0.81192  0.07936  1.0000
  C   C11       1.0  0.96513  0.18796  0.57924  1.0000
  C   C12       1.0  0.84668  0.18808  0.92064  1.0000
  C   C13       1.0  0.07952  0.81306  0.28564  1.0000
  C   C14       1.0  0.10720  0.81303  0.21445  1.0000
  C   C15       1.0  0.92048  0.18694  0.71435  1.0000
  C   C16       1.0  0.89280  0.18697  0.78555  1.0000
  C   C17       1.0  0.37071  0.27703  0.71446  1.0000
  C   C18       1.0  0.35209  0.27698  0.78556  1.0000
  C   C19       1.0  0.62930  0.72296  0.28554  1.0000
  C   C20       1.0  0.64792  0.72302  0.21444  1.0000
  C   C21       1.0  0.96461  0.93427  0.31917  1.0000
  C   C22       1.0  0.10088  0.93424  0.18093  1.0000
  C   C23       1.0  0.03538  0.06573  0.68083  1.0000
  C   C24       1.0  0.89911  0.06577  0.81907  1.0000
  C   C25       1.0  0.93884  0.93344  0.38639  1.0000
  C   C26       1.0  0.12773  0.93336  0.11372  1.0000
  C   C27       1.0  0.06115  0.06656  0.61361  1.0000
  C   C28       1.0  0.87227  0.06665  0.88628  1.0000
  C   C29       1.0  0.47977  0.15660  0.67983  1.0000
  C   C30       1.0  0.36362  0.15649  0.82014  1.0000
  C   C31       1.0  0.52024  0.84339  0.32017  1.0000
  C   C32       1.0  0.63639  0.84351  0.17986  1.0000
  C   C33       1.0  0.50031  0.16273  0.61320  1.0000
  C   C34       1.0  0.33695  0.16247  0.88677  1.0000
  C   C35       1.0  0.49969  0.83727  0.38680  1.0000
  C   C36       1.0  0.66307  0.83752  0.11323  1.0000
  C   C37       1.0  0.80242  0.05796  0.42219  1.0000
  C   C38       1.0  0.13939  0.05791  0.07788  1.0000
  C   C39       1.0  0.19757  0.94203  0.57781  1.0000
  C   C40       1.0  0.86061  0.94209  0.92211  1.0000
  C   C41       1.0  0.30812  0.39682  0.61210  1.0000
  C   C42       1.0  0.29475  0.39659  0.88796  1.0000
  C   C43       1.0  0.69188  0.60318  0.38790  1.0000
  C   C44       1.0  0.70526  0.60340  0.11204  1.0000
  C   C45       1.0  0.28069  0.39860  0.67872  1.0000
  C   C46       1.0  0.32030  0.39852  0.82134  1.0000
  C   C47       1.0  0.71930  0.60141  0.32128  1.0000
  C   C48       1.0  0.67972  0.60147  0.17867  1.0000
  C   C49       1.0  0.25507  0.56418  0.42767  1.0000
  C   C50       1.0  0.18070  0.56411  0.07242  1.0000
  C   C51       1.0  0.74492  0.43581  0.57233  1.0000
  C   C52       1.0  0.81930  0.43590  0.92758  1.0000
  N   N1        1.0  0.41825  0.28122  0.57976  1.0000
  N   N2        1.0  0.30044  0.28091  0.92026  1.0000
  N   N3        1.0  0.58174  0.71878  0.42024  1.0000
  N   N4        1.0  0.69957  0.71908  0.07974  1.0000
  O   O1        1.0  0.27610  0.57816  0.48810  1.0000
  O   O2        1.0  0.14576  0.57814  0.01199  1.0000
  O   O3        1.0  0.72389  0.42183  0.51190  1.0000
  O   O4        1.0  0.85424  0.42186  0.98801  1.0000
  O   O5        1.0  0.73179  0.03984  0.47791  1.0000
  O   O6        1.0  0.22839  0.03978  0.02220  1.0000
  O   O7        1.0  0.26821  0.96016  0.52209  1.0000
  O   O8        1.0  0.77162  0.96022  0.97780  1.0000
  O   O9        1.0  0.75647  0.17750  0.39618  1.0000
  O   O10       1.0  0.06542  0.17749  0.10384  1.0000
  O   O11       1.0  0.24353  0.82250  0.60382  1.0000
  O   O12       1.0  0.93458  0.82252  0.89616  1.0000
  O   O13       1.0  0.32169  0.44775  0.39837  1.0000
  O   O14       1.0  0.23038  0.44764  0.10169  1.0000
  O   O15       1.0  0.67830  0.55224  0.60162  1.0000
  O   O16       1.0  0.76962  0.55237  0.89831  1.0000
  O   O17       1.0  0.27444  0.16862  0.44455  1.0000
  O   O18       1.0  0.55672  0.16859  0.05542  1.0000
  O   O19       1.0  0.72555  0.83137  0.55545  1.0000
  O   O20       1.0  0.44328  0.83141  0.94458  1.0000
