data_image0
_chemical_formula_structural       Cd2H38C36N8O10
_chemical_formula_sum              "Cd2 H38 C36 N8 O10"
_cell_length_a       10.6811
_cell_length_b       9.52445
_cell_length_c       12.5382
_cell_angle_alpha    92.254
_cell_angle_beta     113.771
_cell_angle_gamma    110.613

_space_group_name_H-M_alt    "P 1"
_space_group_IT_number       1

loop_
  _space_group_symop_operation_xyz
  'x, y, z'

loop_
  _atom_site_type_symbol
  _atom_site_label
  _atom_site_symmetry_multiplicity
  _atom_site_fract_x
  _atom_site_fract_y
  _atom_site_fract_z
  _atom_site_occupancy
  Cd  Cd1       1.0  0.24562  0.82256  0.83854  1.0000
  Cd  Cd2       1.0  0.75439  0.17742  0.16146  1.0000
  H   H1        1.0  0.17856  0.02269  0.92313  1.0000
  H   H2        1.0  0.82144  0.97729  0.07687  1.0000
  H   H3        1.0  0.35803  0.10336  0.01205  1.0000
  H   H4        1.0  0.64197  0.89661  0.98795  1.0000
  H   H5        1.0  0.76427  0.59039  0.59527  1.0000
  H   H6        1.0  0.23575  0.40962  0.40472  1.0000
  H   H7        1.0  0.73246  0.83948  0.86662  1.0000
  H   H8        1.0  0.26754  0.16050  0.13338  1.0000
  H   H9        1.0  0.33022  0.53633  0.56532  1.0000
  H   H10       1.0  0.66980  0.46369  0.43464  1.0000
  H   H11       1.0  0.45152  0.92577  0.14861  1.0000
  H   H12       1.0  0.54848  0.07421  0.85139  1.0000
  H   H13       1.0  0.20088  0.18975  0.49975  1.0000
  H   H14       1.0  0.79911  0.81025  0.50027  1.0000
  H   H15       1.0  0.00697  0.78366  0.32281  1.0000
  H   H16       1.0  0.99303  0.21636  0.67719  1.0000
  H   H17       1.0  0.04514  0.97581  0.30758  1.0000
  H   H18       1.0  0.95487  0.02421  0.69244  1.0000
  H   H19       1.0  0.31097  0.02123  0.35717  1.0000
  H   H20       1.0  0.68904  0.97880  0.64286  1.0000
  H   H21       1.0  0.17632  0.88359  0.22583  1.0000
  H   H22       1.0  0.82370  0.11644  0.77419  1.0000
  H   H23       1.0  0.45161  0.70424  0.37066  1.0000
  H   H24       1.0  0.54838  0.29577  0.62934  1.0000
  H   H25       1.0  0.49002  0.89482  0.34963  1.0000
  H   H26       1.0  0.50998  0.10518  0.65036  1.0000
  H   H27       1.0  0.10108  0.50306  0.93687  1.0000
  H   H28       1.0  0.89891  0.49692  0.06314  1.0000
  H   H29       1.0  0.16383  0.50299  0.17433  1.0000
  H   H30       1.0  0.83614  0.49701  0.82568  1.0000
  H   H31       1.0  0.34527  0.81652  0.46987  1.0000
  H   H32       1.0  0.65474  0.18350  0.53014  1.0000
  H   H33       1.0  0.19732  0.67290  0.34640  1.0000
  H   H34       1.0  0.80268  0.32712  0.65362  1.0000
  H   H35       1.0  0.27922  0.17245  0.73972  1.0000
  H   H36       1.0  0.72078  0.82753  0.26030  1.0000
  H   H37       1.0  0.12120  0.73085  0.53660  1.0000
  H   H38       1.0  0.87880  0.26915  0.46340  1.0000
  C   C1        1.0  0.93042  0.78841  0.80138  1.0000
  C   C2        1.0  0.06959  0.21158  0.19863  1.0000
  C   C3        1.0  0.53608  0.55167  0.55933  1.0000
  C   C4        1.0  0.46394  0.44835  0.44065  1.0000
  C   C5        1.0  0.69211  0.61743  0.62633  1.0000
  C   C6        1.0  0.30792  0.38258  0.37366  1.0000
  C   C7        1.0  0.42248  0.72330  0.76606  1.0000
  C   C8        1.0  0.57751  0.27669  0.23392  1.0000
  C   C9        1.0  0.52019  0.68759  0.72009  1.0000
  C   C10       1.0  0.47981  0.31241  0.27989  1.0000
  C   C11       1.0  0.67622  0.75713  0.78236  1.0000
  C   C12       1.0  0.32379  0.24287  0.21763  1.0000
  C   C13       1.0  0.76200  0.71930  0.73604  1.0000
  C   C14       1.0  0.23801  0.28070  0.26395  1.0000
  C   C15       1.0  0.45183  0.58621  0.60995  1.0000
  C   C16       1.0  0.54818  0.41381  0.39003  1.0000
  C   C17       1.0  0.36724  0.80919  0.12115  1.0000
  C   C18       1.0  0.63275  0.19080  0.87885  1.0000
  C   C19       1.0  0.19688  0.09401  0.54409  1.0000
  C   C20       1.0  0.80311  0.90599  0.45592  1.0000
  C   C21       1.0  0.09574  0.90009  0.35339  1.0000
  C   C22       1.0  0.90426  0.09993  0.64662  1.0000
  C   C23       1.0  0.22216  0.90439  0.32366  1.0000
  C   C24       1.0  0.77785  0.09563  0.67636  1.0000
  C   C25       1.0  0.39986  0.78101  0.32782  1.0000
  C   C26       1.0  0.60013  0.21900  0.67219  1.0000
  C   C27       1.0  0.18502  0.59040  0.01596  1.0000
  C   C28       1.0  0.81496  0.40959  0.98404  1.0000
  C   C29       1.0  0.21487  0.58831  0.13303  1.0000
  C   C30       1.0  0.78512  0.41169  0.86697  1.0000
  C   C31       1.0  0.28757  0.78823  0.37170  1.0000
  C   C32       1.0  0.71244  0.21179  0.62831  1.0000
  C   C33       1.0  0.23545  0.08409  0.66153  1.0000
  C   C34       1.0  0.76454  0.91590  0.33848  1.0000
  C   C35       1.0  0.15383  0.85335  0.56066  1.0000
  C   C36       1.0  0.84617  0.14665  0.43934  1.0000
  N   N1        1.0  0.20832  0.93317  0.67049  1.0000
  N   N2        1.0  0.79168  0.06682  0.32952  1.0000
  N   N3        1.0  0.28041  0.72860  0.00961  1.0000
  N   N4        1.0  0.71959  0.27138  0.99039  1.0000
  N   N5        1.0  0.33120  0.72785  0.19860  1.0000
  N   N6        1.0  0.66878  0.27215  0.80140  1.0000
  N   N7        1.0  0.14500  0.94665  0.48122  1.0000
  N   N8        1.0  0.85500  0.05336  0.51879  1.0000
  O   O1        1.0  0.99329  0.70826  0.77568  1.0000
  O   O2        1.0  0.00671  0.29173  0.22433  1.0000
  O   O3        1.0  0.48464  0.83802  0.85422  1.0000
  O   O4        1.0  0.51535  0.16194  0.14578  1.0000
  O   O5        1.0  0.28138  0.06447  0.92748  1.0000
  O   O6        1.0  0.71862  0.93551  0.07252  1.0000
  O   O7        1.0  0.99407  0.91706  0.87198  1.0000
  O   O8        1.0  0.00594  0.08293  0.12803  1.0000
  O   O9        1.0  0.28279  0.64440  0.71478  1.0000
  O   O10       1.0  0.71720  0.35558  0.28518  1.0000
