data_image0
_chemical_formula_structural       Na4H56C24I4O12
_chemical_formula_sum              "Na4 H56 C24 I4 O12"
_cell_length_a       7.76615
_cell_length_b       12.0711
_cell_length_c       12.296
_cell_angle_alpha    84.1638
_cell_angle_beta     71.6057
_cell_angle_gamma    71.2133

_space_group_name_H-M_alt    "P 1"
_space_group_IT_number       1

loop_
  _space_group_symop_operation_xyz
  'x, y, z'

loop_
  _atom_site_type_symbol
  _atom_site_label
  _atom_site_symmetry_multiplicity
  _atom_site_fract_x
  _atom_site_fract_y
  _atom_site_fract_z
  _atom_site_occupancy
  Na  Na1       1.0  0.08635  0.32767  0.74996  1.0000
  Na  Na2       1.0  0.33603  0.82747  0.25008  1.0000
  Na  Na3       1.0  0.91365  0.67233  0.25004  1.0000
  Na  Na4       1.0  0.66397  0.17253  0.74992  1.0000
  H   H1        1.0  0.10024  0.36900  0.01063  1.0000
  H   H2        1.0  0.02005  0.86883  0.51055  1.0000
  H   H3        1.0  0.96921  0.63102  0.51045  1.0000
  H   H4        1.0  0.38951  0.13111  0.01061  1.0000
  H   H5        1.0  0.89976  0.63100  0.98937  1.0000
  H   H6        1.0  0.97995  0.13117  0.48946  1.0000
  H   H7        1.0  0.03079  0.36898  0.48955  1.0000
  H   H8        1.0  0.61049  0.86889  0.98939  1.0000
  H   H9        1.0  0.34175  0.33281  0.01545  1.0000
  H   H10       1.0  0.80995  0.83266  0.51534  1.0000
  H   H11       1.0  0.17446  0.66725  0.51523  1.0000
  H   H12       1.0  0.14321  0.16716  0.01546  1.0000
  H   H13       1.0  0.65826  0.66719  0.98454  1.0000
  H   H14       1.0  0.19005  0.16734  0.48467  1.0000
  H   H15       1.0  0.82554  0.33275  0.48477  1.0000
  H   H16       1.0  0.85679  0.83284  0.98454  1.0000
  H   H17       1.0  0.43188  0.42905  0.82854  1.0000
  H   H18       1.0  0.81021  0.92901  0.32851  1.0000
  H   H19       1.0  0.36103  0.57093  0.32845  1.0000
  H   H20       1.0  0.23999  0.07108  0.82844  1.0000
  H   H21       1.0  0.56811  0.57095  0.17146  1.0000
  H   H22       1.0  0.18979  0.07099  0.67149  1.0000
  H   H23       1.0  0.63898  0.42907  0.67155  1.0000
  H   H24       1.0  0.76001  0.92891  0.17156  1.0000
  H   H25       1.0  0.25969  0.52782  0.93818  1.0000
  H   H26       1.0  0.77411  0.02770  0.43823  1.0000
  H   H27       1.0  0.28739  0.47228  0.43820  1.0000
  H   H28       1.0  0.30271  0.97224  0.93802  1.0000
  H   H29       1.0  0.74031  0.47218  0.06182  1.0000
  H   H30       1.0  0.22589  0.97230  0.56177  1.0000
  H   H31       1.0  0.71261  0.52772  0.56180  1.0000
  H   H32       1.0  0.69729  0.02776  0.06198  1.0000
  H   H33       1.0  0.08923  0.60184  0.69074  1.0000
  H   H34       1.0  0.11812  0.10141  0.19062  1.0000
  H   H35       1.0  0.19129  0.39831  0.19051  1.0000
  H   H36       1.0  0.72031  0.89852  0.69060  1.0000
  H   H37       1.0  0.91077  0.39817  0.30926  1.0000
  H   H38       1.0  0.88188  0.89859  0.80938  1.0000
  H   H39       1.0  0.80871  0.60169  0.80949  1.0000
  H   H40       1.0  0.27969  0.10148  0.30940  1.0000
  H   H41       1.0  0.33870  0.54554  0.67407  1.0000
  H   H42       1.0  0.94157  0.04527  0.17390  1.0000
  H   H43       1.0  0.38443  0.45457  0.17386  1.0000
  H   H44       1.0  0.48745  0.95485  0.67397  1.0000
  H   H45       1.0  0.66129  0.45447  0.32593  1.0000
  H   H46       1.0  0.05843  0.95473  0.82610  1.0000
  H   H47       1.0  0.61557  0.54543  0.82614  1.0000
  H   H48       1.0  0.51254  0.04515  0.32603  1.0000
  H   H49       1.0  0.18764  0.65313  0.78276  1.0000
  H   H50       1.0  0.87638  0.15293  0.28252  1.0000
  H   H51       1.0  0.34108  0.34693  0.28251  1.0000
  H   H52       1.0  0.52997  0.84717  0.78257  1.0000
  H   H53       1.0  0.81236  0.34687  0.21724  1.0000
  H   H54       1.0  0.12362  0.84707  0.71748  1.0000
  H   H55       1.0  0.65891  0.65307  0.71749  1.0000
  H   H56       1.0  0.47002  0.15283  0.21742  1.0000
  C   C1        1.0  0.25103  0.35081  0.95853  1.0000
  C   C2        1.0  0.93952  0.85070  0.45843  1.0000
  C   C3        1.0  0.10174  0.64922  0.45835  1.0000
  C   C4        1.0  0.29079  0.14926  0.95851  1.0000
  C   C5        1.0  0.74897  0.64919  0.04147  1.0000
  C   C6        1.0  0.06049  0.14929  0.54157  1.0000
  C   C7        1.0  0.89827  0.35078  0.54165  1.0000
  C   C8        1.0  0.70921  0.85074  0.04149  1.0000
  C   C9        1.0  0.28264  0.45330  0.88428  1.0000
  C   C10       1.0  0.87951  0.95319  0.38426  1.0000
  C   C11       1.0  0.23595  0.54677  0.38418  1.0000
  C   C12       1.0  0.33348  0.04682  0.88421  1.0000
  C   C13       1.0  0.71736  0.54669  0.11571  1.0000
  C   C14       1.0  0.12050  0.04681  0.61574  1.0000
  C   C15       1.0  0.76405  0.45323  0.61582  1.0000
  C   C16       1.0  0.66652  0.95317  0.11579  1.0000
  C   C17       1.0  0.19603  0.57689  0.73661  1.0000
  C   C18       1.0  0.99032  0.07662  0.23646  1.0000
  C   C19       1.0  0.27316  0.42319  0.23639  1.0000
  C   C20       1.0  0.56770  0.92342  0.73647  1.0000
  C   C21       1.0  0.80397  0.42311  0.26339  1.0000
  C   C22       1.0  0.00968  0.92337  0.76354  1.0000
  C   C23       1.0  0.72684  0.57681  0.76360  1.0000
  C   C24       1.0  0.43230  0.07658  0.26353  1.0000
  I   I1        1.0  0.47353  0.25022  0.55254  1.0000
  I   I2        1.0  0.22295  0.75011  0.05317  1.0000
  I   I3        1.0  0.52647  0.74978  0.44746  1.0000
  I   I4        1.0  0.77705  0.24989  0.94683  1.0000
  O   O1        1.0  0.30629  0.25007  0.88756  1.0000
  O   O2        1.0  0.05607  0.74997  0.38737  1.0000
  O   O3        1.0  0.69371  0.74993  0.11244  1.0000
  O   O4        1.0  0.94393  0.25003  0.61263  1.0000
  O   O5        1.0  0.15567  0.48623  0.81531  1.0000
  O   O6        1.0  0.04256  0.98601  0.31528  1.0000
  O   O7        1.0  0.14203  0.51382  0.31513  1.0000
  O   O8        1.0  0.52939  0.01403  0.81525  1.0000
  O   O9        1.0  0.84433  0.51377  0.18469  1.0000
  O   O10       1.0  0.95743  0.01399  0.68472  1.0000
  O   O11       1.0  0.85797  0.48618  0.68487  1.0000
  O   O12       1.0  0.47061  0.98597  0.18475  1.0000
