data_image0
_chemical_formula_structural       Gd4H56C60O28
_chemical_formula_sum              "Gd4 H56 C60 O28"
_cell_length_a       7.59812
_cell_length_b       15.3423
_cell_length_c       15.4046
_cell_angle_alpha    62.6958
_cell_angle_beta     87.0134
_cell_angle_gamma    87.042

_space_group_name_H-M_alt    "P 1"
_space_group_IT_number       1

loop_
  _space_group_symop_operation_xyz
  'x, y, z'

loop_
  _atom_site_type_symbol
  _atom_site_label
  _atom_site_symmetry_multiplicity
  _atom_site_fract_x
  _atom_site_fract_y
  _atom_site_fract_z
  _atom_site_occupancy
  Gd  Gd1       1.0  0.46684  0.14133  0.21754  1.0000
  Gd  Gd2       1.0  0.03305  0.78220  0.85873  1.0000
  Gd  Gd3       1.0  0.53316  0.85867  0.78246  1.0000
  Gd  Gd4       1.0  0.96695  0.21780  0.14126  1.0000
  H   H1        1.0  0.49756  0.39325  0.21559  1.0000
  H   H2        1.0  0.00179  0.78492  0.60647  1.0000
  H   H3        1.0  0.50244  0.60675  0.78441  1.0000
  H   H4        1.0  0.99821  0.21508  0.39353  1.0000
  H   H5        1.0  0.57499  0.32128  0.33306  1.0000
  H   H6        1.0  0.92513  0.66676  0.67825  1.0000
  H   H7        1.0  0.42501  0.67872  0.66695  1.0000
  H   H8        1.0  0.07487  0.33324  0.32175  1.0000
  H   H9        1.0  0.92386  0.68427  0.25785  1.0000
  H   H10       1.0  0.57692  0.74107  0.31704  1.0000
  H   H11       1.0  0.07614  0.31573  0.74215  1.0000
  H   H12       1.0  0.42309  0.25894  0.68296  1.0000
  H   H13       1.0  0.90014  0.52720  0.41198  1.0000
  H   H14       1.0  0.59984  0.58671  0.47390  1.0000
  H   H15       1.0  0.09986  0.47280  0.58802  1.0000
  H   H16       1.0  0.40016  0.41329  0.52610  1.0000
  H   H17       1.0  0.74984  0.38663  0.41109  1.0000
  H   H18       1.0  0.74937  0.58811  0.61374  1.0000
  H   H19       1.0  0.25017  0.61337  0.58891  1.0000
  H   H20       1.0  0.25063  0.41189  0.38626  1.0000
  H   H21       1.0  0.15645  0.02269  0.33404  1.0000
  H   H22       1.0  0.34346  0.66552  0.97704  1.0000
  H   H23       1.0  0.84355  0.97731  0.66596  1.0000
  H   H24       1.0  0.65654  0.33448  0.02296  1.0000
  H   H25       1.0  0.32582  0.94830  0.36942  1.0000
  H   H26       1.0  0.17373  0.63027  0.05095  1.0000
  H   H27       1.0  0.67418  0.05170  0.63058  1.0000
  H   H28       1.0  0.82627  0.36973  0.94905  1.0000
  H   H29       1.0  0.80800  0.69908  0.10604  1.0000
  H   H30       1.0  0.69304  0.89366  0.30185  1.0000
  H   H31       1.0  0.19201  0.30092  0.89396  1.0000
  H   H32       1.0  0.30696  0.10634  0.69815  1.0000
  H   H33       1.0  0.70352  0.49741  0.06457  1.0000
  H   H34       1.0  0.79596  0.93660  0.50192  1.0000
  H   H35       1.0  0.29648  0.50259  0.93543  1.0000
  H   H36       1.0  0.20404  0.06340  0.49807  1.0000
  H   H37       1.0  0.49790  0.54473  0.08663  1.0000
  H   H38       1.0  0.00185  0.91413  0.45527  1.0000
  H   H39       1.0  0.50210  0.45528  0.91337  1.0000
  H   H40       1.0  0.99815  0.08587  0.54473  1.0000
  H   H41       1.0  0.63040  0.06199  0.98855  1.0000
  H   H42       1.0  0.87001  0.01104  0.93811  1.0000
  H   H43       1.0  0.36960  0.93801  0.01145  1.0000
  H   H44       1.0  0.12999  0.98896  0.06189  1.0000
  H   H45       1.0  0.51591  0.16976  0.97335  1.0000
  H   H46       1.0  0.98476  0.02629  0.83080  1.0000
  H   H47       1.0  0.48409  0.83024  0.02665  1.0000
  H   H48       1.0  0.01524  0.97371  0.16920  1.0000
  H   H49       1.0  0.57496  0.32907  0.83630  1.0000
  H   H50       1.0  0.92511  0.16336  0.67204  1.0000
  H   H51       1.0  0.42504  0.67093  0.16370  1.0000
  H   H52       1.0  0.07490  0.83664  0.32796  1.0000
  H   H53       1.0  0.66078  0.42279  0.66170  1.0000
  H   H54       1.0  0.83778  0.33848  0.57794  1.0000
  H   H55       1.0  0.33922  0.57721  0.33830  1.0000
  H   H56       1.0  0.16222  0.66152  0.42206  1.0000
  C   C1        1.0  0.74393  0.32098  0.21959  1.0000
  C   C2        1.0  0.75588  0.78032  0.67916  1.0000
  C   C3        1.0  0.25607  0.67902  0.78041  1.0000
  C   C4        1.0  0.24412  0.21969  0.32084  1.0000
  C   C5        1.0  0.69551  0.46298  0.25810  1.0000
  C   C6        1.0  0.80395  0.74175  0.53740  1.0000
  C   C7        1.0  0.30449  0.53702  0.74190  1.0000
  C   C8        1.0  0.19604  0.25825  0.46260  1.0000
  C   C9        1.0  0.61709  0.37483  0.25897  1.0000
  C   C10       1.0  0.88251  0.74109  0.62510  1.0000
  C   C11       1.0  0.38291  0.62517  0.74104  1.0000
  C   C12       1.0  0.11749  0.25891  0.37490  1.0000
  C   C13       1.0  0.86040  0.62190  0.25861  1.0000
  C   C14       1.0  0.64000  0.74057  0.37912  1.0000
  C   C15       1.0  0.13960  0.37810  0.74139  1.0000
  C   C16       1.0  0.36001  0.25943  0.62087  1.0000
  C   C17       1.0  0.84675  0.53411  0.34471  1.0000
  C   C18       1.0  0.65324  0.65435  0.46678  1.0000
  C   C19       1.0  0.15325  0.46589  0.65529  1.0000
  C   C20       1.0  0.34676  0.34565  0.53321  1.0000
  C   C21       1.0  0.76291  0.45567  0.34415  1.0000
  C   C22       1.0  0.73660  0.65523  0.54489  1.0000
  C   C23       1.0  0.23709  0.54433  0.65585  1.0000
  C   C24       1.0  0.26340  0.34477  0.45511  1.0000
  C   C25       1.0  0.71191  0.55108  0.17070  1.0000
  C   C26       1.0  0.78803  0.82925  0.44939  1.0000
  C   C27       1.0  0.28809  0.44892  0.82930  1.0000
  C   C28       1.0  0.21197  0.17075  0.55061  1.0000
  C   C29       1.0  0.79308  0.63013  0.17256  1.0000
  C   C30       1.0  0.70738  0.82705  0.37069  1.0000
  C   C31       1.0  0.20692  0.36987  0.82744  1.0000
  C   C32       1.0  0.29262  0.17296  0.62931  1.0000
  C   C33       1.0  0.64058  0.55678  0.07798  1.0000
  C   C34       1.0  0.85923  0.92263  0.44316  1.0000
  C   C35       1.0  0.35942  0.44322  0.92202  1.0000
  C   C36       1.0  0.14077  0.07737  0.55684  1.0000
  C   C37       1.0  0.67883  0.65117  0.98696  1.0000
  C   C38       1.0  0.82123  0.01337  0.34854  1.0000
  C   C39       1.0  0.32117  0.34883  0.01304  1.0000
  C   C40       1.0  0.17878  0.98662  0.65146  1.0000
  C   C41       1.0  0.77211  0.15334  0.02816  1.0000
  C   C42       1.0  0.72822  0.97179  0.84676  1.0000
  C   C43       1.0  0.22789  0.84666  0.97184  1.0000
  C   C44       1.0  0.27177  0.02821  0.15323  1.0000
  C   C45       1.0  0.64578  0.14131  0.96126  1.0000
  C   C46       1.0  0.85491  0.03857  0.85908  1.0000
  C   C47       1.0  0.35422  0.85869  0.03874  1.0000
  C   C48       1.0  0.14509  0.96142  0.14092  1.0000
  C   C49       1.0  0.70091  0.19287  0.85454  1.0000
  C   C50       1.0  0.79992  0.14569  0.80765  1.0000
  C   C51       1.0  0.29909  0.80713  0.14546  1.0000
  C   C52       1.0  0.20008  0.85431  0.19235  1.0000
  C   C53       1.0  0.65367  0.29263  0.80045  1.0000
  C   C54       1.0  0.84648  0.19962  0.70812  1.0000
  C   C55       1.0  0.34633  0.70737  0.19955  1.0000
  C   C56       1.0  0.15352  0.80038  0.29188  1.0000
  C   C57       1.0  0.70108  0.34558  0.70171  1.0000
  C   C58       1.0  0.79824  0.29856  0.65500  1.0000
  C   C59       1.0  0.29893  0.65442  0.29829  1.0000
  C   C60       1.0  0.20176  0.70144  0.34500  1.0000
  O   O1        1.0  0.69097  0.24384  0.21573  1.0000
  O   O2        1.0  0.80886  0.78366  0.75626  1.0000
  O   O3        1.0  0.30903  0.75616  0.78427  1.0000
  O   O4        1.0  0.19114  0.21634  0.24374  1.0000
  O   O5        1.0  0.83897  0.67043  0.96414  1.0000
  O   O6        1.0  0.66115  0.03606  0.32913  1.0000
  O   O7        1.0  0.16103  0.32957  0.03586  1.0000
  O   O8        1.0  0.33885  0.96394  0.67087  1.0000
  O   O9        1.0  0.89865  0.34851  0.19120  1.0000
  O   O10       1.0  0.60123  0.80903  0.65179  1.0000
  O   O11       1.0  0.10135  0.65149  0.80880  1.0000
  O   O12       1.0  0.39877  0.19097  0.34821  1.0000
  O   O13       1.0  0.92726  0.18135  0.00034  1.0000
  O   O14       1.0  0.57327  0.99997  0.81874  1.0000
  O   O15       1.0  0.07274  0.81865  0.99966  1.0000
  O   O16       1.0  0.42673  0.00003  0.18126  1.0000
  O   O17       1.0  0.71570  0.13622  0.11518  1.0000
  O   O18       1.0  0.78421  0.88443  0.86362  1.0000
  O   O19       1.0  0.28430  0.86378  0.88482  1.0000
  O   O20       1.0  0.21579  0.11557  0.13638  1.0000
  O   O21       1.0  0.54932  0.70568  0.93787  1.0000
  O   O22       1.0  0.95089  0.06222  0.29390  1.0000
  O   O23       1.0  0.45069  0.29432  0.06213  1.0000
  O   O24       1.0  0.04912  0.93778  0.70610  1.0000
  O   O25       1.0  0.28384  0.01518  0.35141  1.0000
  O   O26       1.0  0.21609  0.64800  0.98445  1.0000
  O   O27       1.0  0.71616  0.98482  0.64859  1.0000
  O   O28       1.0  0.78391  0.35200  0.01555  1.0000
