data_image0
_chemical_formula_structural       K4H16C24N8O22
_chemical_formula_sum              "K4 H16 C24 N8 O22"
_cell_length_a       7.22183
_cell_length_b       12.072
_cell_length_c       12.0719
_cell_angle_alpha    60.5574
_cell_angle_beta     73.4142
_cell_angle_gamma    73.4137

_space_group_name_H-M_alt    "P 1"
_space_group_IT_number       1

loop_
  _space_group_symop_operation_xyz
  'x, y, z'

loop_
  _atom_site_type_symbol
  _atom_site_label
  _atom_site_symmetry_multiplicity
  _atom_site_fract_x
  _atom_site_fract_y
  _atom_site_fract_z
  _atom_site_occupancy
  K   K1        1.0  0.25000  0.37365  0.62636  1.0000
  K   K2        1.0  0.74999  0.62635  0.37365  1.0000
  K   K3        1.0  0.75001  0.14667  0.85333  1.0000
  K   K4        1.0  0.24995  0.85333  0.14667  1.0000
  H   H1        1.0  0.59666  0.68191  0.81710  1.0000
  H   H2        1.0  0.90334  0.18290  0.31808  1.0000
  H   H3        1.0  0.40333  0.31808  0.18290  1.0000
  H   H4        1.0  0.09668  0.81711  0.68191  1.0000
  H   H5        1.0  0.80143  0.41756  0.17647  1.0000
  H   H6        1.0  0.69857  0.82354  0.58244  1.0000
  H   H7        1.0  0.19858  0.58245  0.82353  1.0000
  H   H8        1.0  0.30144  0.17646  0.41755  1.0000
  H   H9        1.0  0.96589  0.25774  0.08845  1.0000
  H   H10       1.0  0.53412  0.91155  0.74226  1.0000
  H   H11       1.0  0.03411  0.74226  0.91156  1.0000
  H   H12       1.0  0.46589  0.08844  0.25774  1.0000
  H   H13       1.0  0.65495  0.91620  0.14871  1.0000
  H   H14       1.0  0.84502  0.85129  0.08380  1.0000
  H   H15       1.0  0.34504  0.08379  0.85129  1.0000
  H   H16       1.0  0.15497  0.14871  0.91621  1.0000
  C   C1        1.0  0.88722  0.37811  0.89929  1.0000
  C   C2        1.0  0.61279  0.10072  0.62189  1.0000
  C   C3        1.0  0.11277  0.62189  0.10072  1.0000
  C   C4        1.0  0.38721  0.89927  0.37810  1.0000
  C   C5        1.0  0.77375  0.50290  0.82471  1.0000
  C   C6        1.0  0.72626  0.17529  0.49710  1.0000
  C   C7        1.0  0.22625  0.49710  0.17528  1.0000
  C   C8        1.0  0.27375  0.82471  0.50290  1.0000
  C   C9        1.0  0.68129  0.59068  0.87501  1.0000
  C   C10       1.0  0.81871  0.12500  0.40932  1.0000
  C   C11       1.0  0.31870  0.40932  0.12499  1.0000
  C   C12       1.0  0.18131  0.87500  0.59067  1.0000
  C   C13       1.0  0.69399  0.56028  0.99963  1.0000
  C   C14       1.0  0.80600  0.00038  0.43972  1.0000
  C   C15       1.0  0.30600  0.43972  0.00037  1.0000
  C   C16       1.0  0.19402  0.99962  0.56027  1.0000
  C   C17       1.0  0.79536  0.43881  0.07870  1.0000
  C   C18       1.0  0.70463  0.92131  0.56119  1.0000
  C   C19       1.0  0.20463  0.56120  0.92131  1.0000
  C   C20       1.0  0.29538  0.07869  0.43880  1.0000
  C   C21       1.0  0.88658  0.35191  0.02988  1.0000
  C   C22       1.0  0.61343  0.97013  0.64809  1.0000
  C   C23       1.0  0.11341  0.64809  0.97014  1.0000
  C   C24       1.0  0.38659  0.02986  0.35190  1.0000
  N   N1        1.0  0.74621  0.54072  0.69657  1.0000
  N   N2        1.0  0.75379  0.30343  0.45929  1.0000
  N   N3        1.0  0.25379  0.45929  0.30343  1.0000
  N   N4        1.0  0.24621  0.69657  0.54071  1.0000
  N   N5        1.0  0.59672  0.65220  0.04877  1.0000
  N   N6        1.0  0.90327  0.95123  0.34779  1.0000
  N   N7        1.0  0.40328  0.34780  0.95123  1.0000
  N   N8        1.0  0.09674  0.04877  0.65220  1.0000
  O   O1        1.0  0.97710  0.29549  0.85713  1.0000
  O   O2        1.0  0.52291  0.14287  0.70451  1.0000
  O   O3        1.0  0.02288  0.70450  0.14288  1.0000
  O   O4        1.0  0.47709  0.85712  0.29548  1.0000
  O   O5        1.0  0.85019  0.47894  0.63577  1.0000
  O   O6        1.0  0.64981  0.36424  0.52105  1.0000
  O   O7        1.0  0.14980  0.52105  0.36425  1.0000
  O   O8        1.0  0.35020  0.63575  0.47895  1.0000
  O   O9        1.0  0.61633  0.63576  0.64885  1.0000
  O   O10       1.0  0.88367  0.35115  0.36424  1.0000
  O   O11       1.0  0.38367  0.36424  0.35116  1.0000
  O   O12       1.0  0.11633  0.64885  0.63576  1.0000
  O   O13       1.0  0.50851  0.75910  0.97654  1.0000
  O   O14       1.0  0.99148  0.02346  0.24090  1.0000
  O   O15       1.0  0.49149  0.24090  0.02345  1.0000
  O   O16       1.0  0.00852  0.97655  0.75909  1.0000
  O   O17       1.0  0.59934  0.62225  0.16386  1.0000
  O   O18       1.0  0.90063  0.83615  0.37774  1.0000
  O   O19       1.0  0.40065  0.37776  0.83614  1.0000
  O   O20       1.0  0.09938  0.16385  0.62224  1.0000
  O   O21       1.0  0.75000  0.93237  0.06763  1.0000
  O   O22       1.0  0.25000  0.06763  0.93237  1.0000
