data_image0
_chemical_formula_structural       Cu4H52C38N12O16
_chemical_formula_sum              "Cu4 H52 C38 N12 O16"
_cell_length_a       8.86916
_cell_length_b       9.3094
_cell_length_c       15.4476
_cell_angle_alpha    96.6813
_cell_angle_beta     100.746
_cell_angle_gamma    95.5618

_space_group_name_H-M_alt    "P 1"
_space_group_IT_number       1

loop_
  _space_group_symop_operation_xyz
  'x, y, z'

loop_
  _atom_site_type_symbol
  _atom_site_label
  _atom_site_symmetry_multiplicity
  _atom_site_fract_x
  _atom_site_fract_y
  _atom_site_fract_z
  _atom_site_occupancy
  Cu  Cu1       1.0  0.89107  0.90049  0.45477  1.0000
  Cu  Cu2       1.0  0.10893  0.09950  0.54522  1.0000
  Cu  Cu3       1.0  0.52215  0.53093  0.08739  1.0000
  Cu  Cu4       1.0  0.47786  0.46908  0.91262  1.0000
  H   H1        1.0  0.09956  0.49836  0.70148  1.0000
  H   H2        1.0  0.90042  0.50163  0.29851  1.0000
  H   H3        1.0  0.93450  0.56951  0.64580  1.0000
  H   H4        1.0  0.06549  0.43049  0.35419  1.0000
  H   H5        1.0  0.06893  0.50604  0.58485  1.0000
  H   H6        1.0  0.93106  0.49395  0.41514  1.0000
  H   H7        1.0  0.31047  0.67659  0.78072  1.0000
  H   H8        1.0  0.68952  0.32340  0.21928  1.0000
  H   H9        1.0  0.33424  0.86122  0.74459  1.0000
  H   H10       1.0  0.66575  0.13877  0.25541  1.0000
  H   H11       1.0  0.67639  0.26740  0.77055  1.0000
  H   H12       1.0  0.32361  0.73260  0.22944  1.0000
  H   H13       1.0  0.86156  0.30006  0.73081  1.0000
  H   H14       1.0  0.13844  0.69993  0.26918  1.0000
  H   H15       1.0  0.48935  0.05960  0.69944  1.0000
  H   H16       1.0  0.51066  0.94038  0.30057  1.0000
  H   H17       1.0  0.48549  0.02693  0.58344  1.0000
  H   H18       1.0  0.51451  0.97305  0.41657  1.0000
  H   H19       1.0  0.57020  0.90743  0.65261  1.0000
  H   H20       1.0  0.42981  0.09256  0.34739  1.0000
  H   H21       1.0  0.89070  0.70564  0.88501  1.0000
  H   H22       1.0  0.10930  0.29437  0.11499  1.0000
  H   H23       1.0  0.06104  0.69424  0.83963  1.0000
  H   H24       1.0  0.93896  0.30578  0.16038  1.0000
  H   H25       1.0  0.95112  0.53352  0.85377  1.0000
  H   H26       1.0  0.04889  0.46649  0.14623  1.0000
  H   H27       1.0  0.93327  0.77138  0.04082  1.0000
  H   H28       1.0  0.06674  0.22864  0.95919  1.0000
  H   H29       1.0  0.10942  0.72642  0.11431  1.0000
  H   H30       1.0  0.89059  0.27360  0.88568  1.0000
  H   H31       1.0  0.22970  0.87878  0.94223  1.0000
  H   H32       1.0  0.77028  0.12124  0.05779  1.0000
  H   H33       1.0  0.27499  0.02580  0.87546  1.0000
  H   H34       1.0  0.72499  0.97422  0.12455  1.0000
  H   H35       1.0  0.38766  0.94008  0.11380  1.0000
  H   H36       1.0  0.61234  0.05994  0.88621  1.0000
  H   H37       1.0  0.38694  0.12381  0.16000  1.0000
  H   H38       1.0  0.61306  0.87621  0.84002  1.0000
  H   H39       1.0  0.21009  0.00936  0.11702  1.0000
  H   H40       1.0  0.78991  0.99066  0.88299  1.0000
  H   H41       1.0  0.87069  0.81777  0.28058  1.0000
  H   H42       1.0  0.12931  0.18223  0.71943  1.0000
  H   H43       1.0  0.74432  0.74389  0.17861  1.0000
  H   H44       1.0  0.25569  0.25611  0.82139  1.0000
  H   H45       1.0  0.59740  0.58308  0.54774  1.0000
  H   H46       1.0  0.40260  0.41691  0.45226  1.0000
  H   H47       1.0  0.75729  0.71226  0.54391  1.0000
  H   H48       1.0  0.24270  0.28773  0.45609  1.0000
  H   H49       1.0  0.30541  0.35216  0.28780  1.0000
  H   H50       1.0  0.69459  0.64783  0.71220  1.0000
  H   H51       1.0  0.35293  0.37590  0.18546  1.0000
  H   H52       1.0  0.64707  0.62410  0.81454  1.0000
  C   C1        1.0  0.48000  0.51198  0.29328  1.0000
  C   C2        1.0  0.51999  0.48801  0.70672  1.0000
  C   C3        1.0  0.62627  0.63015  0.42390  1.0000
  C   C4        1.0  0.37372  0.36984  0.57610  1.0000
  C   C5        1.0  0.68235  0.68189  0.29098  1.0000
  C   C6        1.0  0.31765  0.31810  0.70902  1.0000
  C   C7        1.0  0.09899  0.82135  0.60694  1.0000
  C   C8        1.0  0.90101  0.17864  0.39305  1.0000
  C   C9        1.0  0.14937  0.71257  0.66767  1.0000
  C   C10       1.0  0.85063  0.28742  0.33233  1.0000
  C   C11       1.0  0.05870  0.56387  0.64934  1.0000
  C   C12       1.0  0.94129  0.43611  0.35065  1.0000
  C   C13       1.0  0.27158  0.75225  0.73491  1.0000
  C   C14       1.0  0.72842  0.24774  0.26509  1.0000
  C   C15       1.0  0.81524  0.07488  0.60277  1.0000
  C   C16       1.0  0.18476  0.92511  0.39722  1.0000
  C   C17       1.0  0.70805  0.11574  0.66359  1.0000
  C   C18       1.0  0.29196  0.88424  0.33640  1.0000
  C   C19       1.0  0.75132  0.23356  0.72546  1.0000
  C   C20       1.0  0.24869  0.76644  0.27453  1.0000
  C   C21       1.0  0.55553  0.02284  0.64956  1.0000
  C   C22       1.0  0.44448  0.97715  0.35044  1.0000
  C   C23       1.0  0.23376  0.59018  0.98701  1.0000
  C   C24       1.0  0.76625  0.40984  0.01298  1.0000
  C   C25       1.0  0.08349  0.65479  0.97613  1.0000
  C   C26       1.0  0.91651  0.34522  0.02387  1.0000
  C   C27       1.0  0.99164  0.64684  0.88359  1.0000
  C   C28       1.0  0.00836  0.35318  0.11641  1.0000
  C   C29       1.0  0.03978  0.72053  0.04785  1.0000
  C   C30       1.0  0.96024  0.27949  0.95216  1.0000
  C   C31       1.0  0.38721  0.23672  0.00992  1.0000
  C   C32       1.0  0.61280  0.76329  0.99009  1.0000
  C   C33       1.0  0.32638  0.08300  0.01612  1.0000
  C   C34       1.0  0.67362  0.91702  0.98389  1.0000
  C   C35       1.0  0.27407  0.99127  0.94033  1.0000
  C   C36       1.0  0.72592  0.00874  0.05968  1.0000
  C   C37       1.0  0.32824  0.03752  0.10684  1.0000
  C   C38       1.0  0.67177  0.96250  0.89317  1.0000
  N   N1        1.0  0.77374  0.75364  0.24602  1.0000
  N   N2        1.0  0.22625  0.24635  0.75399  1.0000
  N   N3        1.0  0.65868  0.64774  0.51270  1.0000
  N   N4        1.0  0.34131  0.35225  0.48729  1.0000
  N   N5        1.0  0.35782  0.41522  0.25037  1.0000
  N   N6        1.0  0.64217  0.58478  0.74963  1.0000
  N   N7        1.0  0.50611  0.53023  0.38232  1.0000
  N   N8        1.0  0.49389  0.46976  0.61767  1.0000
  N   N9        1.0  0.71513  0.71215  0.38069  1.0000
  N   N10       1.0  0.28486  0.28785  0.61930  1.0000
  N   N11       1.0  0.56456  0.58280  0.24299  1.0000
  N   N12       1.0  0.43543  0.41719  0.75701  1.0000
  O   O1        1.0  0.17329  0.94868  0.62174  1.0000
  O   O2        1.0  0.82673  0.05130  0.37824  1.0000
  O   O3        1.0  0.98177  0.77623  0.54412  1.0000
  O   O4        1.0  0.01821  0.22376  0.45588  1.0000
  O   O5        1.0  0.95252  0.14215  0.61962  1.0000
  O   O6        1.0  0.04749  0.85783  0.38038  1.0000
  O   O7        1.0  0.76074  0.97364  0.53835  1.0000
  O   O8        1.0  0.23925  0.02636  0.46164  1.0000
  O   O9        1.0  0.27333  0.54012  0.91486  1.0000
  O   O10       1.0  0.72671  0.45996  0.08513  1.0000
  O   O11       1.0  0.31126  0.59282  0.06580  1.0000
  O   O12       1.0  0.68871  0.40714  0.93420  1.0000
  O   O13       1.0  0.39411  0.27131  0.93300  1.0000
  O   O14       1.0  0.60585  0.72873  0.06701  1.0000
  O   O15       1.0  0.42988  0.32401  0.08259  1.0000
  O   O16       1.0  0.57018  0.67599  0.91742  1.0000
