data_image0
_chemical_formula_structural       Cd4P2H28C10N2O14
_chemical_formula_sum              "Cd4 P2 H28 C10 N2 O14"
_cell_length_a       6.95654
_cell_length_b       7.95108
_cell_length_c       9.87747
_cell_angle_alpha    99.8595
_cell_angle_beta     102.889
_cell_angle_gamma    92.3874

_space_group_name_H-M_alt    "P 1"
_space_group_IT_number       1

loop_
  _space_group_symop_operation_xyz
  'x, y, z'

loop_
  _atom_site_type_symbol
  _atom_site_label
  _atom_site_symmetry_multiplicity
  _atom_site_fract_x
  _atom_site_fract_y
  _atom_site_fract_z
  _atom_site_occupancy
  Cd  Cd1       1.0  0.50000  0.49999  1.00000  1.0000
  Cd  Cd2       1.0  0.21885  0.12798  0.11693  1.0000
  Cd  Cd3       1.0  0.78116  0.87202  0.88308  1.0000
  Cd  Cd4       1.0  0.00000  0.50001  0.00000  1.0000
  P   P1        1.0  0.76253  0.21492  0.15571  1.0000
  P   P2        1.0  0.23747  0.78508  0.84430  1.0000
  H   H1        1.0  0.91530  0.17604  0.80327  1.0000
  H   H2        1.0  0.08470  0.82396  0.19673  1.0000
  H   H3        1.0  0.15240  0.25393  0.81112  1.0000
  H   H4        1.0  0.84760  0.74606  0.18888  1.0000
  H   H5        1.0  0.55027  0.18048  0.77998  1.0000
  H   H6        1.0  0.44971  0.81951  0.22001  1.0000
  H   H7        1.0  0.42137  0.10514  0.86294  1.0000
  H   H8        1.0  0.57861  0.89484  0.13704  1.0000
  H   H9        1.0  0.87036  0.30532  0.41269  1.0000
  H   H10       1.0  0.12964  0.69468  0.58731  1.0000
  H   H11       1.0  0.90084  0.08831  0.35003  1.0000
  H   H12       1.0  0.09916  0.91169  0.64997  1.0000
  H   H13       1.0  0.23772  0.49890  0.47287  1.0000
  H   H14       1.0  0.76229  0.50110  0.52713  1.0000
  H   H15       1.0  0.05363  0.50534  0.31629  1.0000
  H   H16       1.0  0.94637  0.49466  0.68372  1.0000
  H   H17       1.0  0.37669  0.62664  0.30590  1.0000
  H   H18       1.0  0.62331  0.37336  0.69410  1.0000
  H   H19       1.0  0.48520  0.43050  0.32527  1.0000
  H   H20       1.0  0.51480  0.56951  0.67473  1.0000
  H   H21       1.0  0.23846  0.22046  0.55148  1.0000
  H   H22       1.0  0.76155  0.77954  0.44852  1.0000
  H   H23       1.0  0.41709  0.22396  0.44777  1.0000
  H   H24       1.0  0.58292  0.77604  0.55223  1.0000
  H   H25       1.0  0.35315  0.93588  0.48685  1.0000
  H   H26       1.0  0.64685  0.06412  0.51316  1.0000
  H   H27       1.0  0.09685  0.93515  0.41982  1.0000
  H   H28       1.0  0.90314  0.06485  0.58018  1.0000
  C   C1        1.0  0.92255  0.21890  0.33100  1.0000
  C   C2        1.0  0.07745  0.78110  0.66900  1.0000
  C   C3        1.0  0.18712  0.44423  0.35873  1.0000
  C   C4        1.0  0.81288  0.55577  0.64127  1.0000
  C   C5        1.0  0.34637  0.48646  0.28300  1.0000
  C   C6        1.0  0.65363  0.51355  0.71700  1.0000
  C   C7        1.0  0.26409  0.17875  0.44438  1.0000
  C   C8        1.0  0.73591  0.82125  0.55563  1.0000
  C   C9        1.0  0.24231  0.98293  0.40609  1.0000
  C   C10       1.0  0.75769  0.01707  0.59391  1.0000
  N   N1        1.0  0.13377  0.25869  0.33852  1.0000
  N   N2        1.0  0.86623  0.74131  0.66149  1.0000
  O   O1        1.0  0.86572  0.10315  0.05501  1.0000
  O   O2        1.0  0.13429  0.89686  0.94499  1.0000
  O   O3        1.0  0.56062  0.13418  0.15705  1.0000
  O   O4        1.0  0.43939  0.86582  0.84295  1.0000
  O   O5        1.0  0.76468  0.40212  0.12941  1.0000
  O   O6        1.0  0.23532  0.59789  0.87059  1.0000
  O   O7        1.0  0.28529  0.42385  0.13460  1.0000
  O   O8        1.0  0.71471  0.57615  0.86541  1.0000
  O   O9        1.0  0.26118  0.91989  0.26793  1.0000
  O   O10       1.0  0.73881  0.08011  0.73207  1.0000
  O   O11       1.0  0.04884  0.25206  0.86365  1.0000
  O   O12       1.0  0.95116  0.74795  0.13635  1.0000
  O   O13       1.0  0.44068  0.21375  0.82935  1.0000
  O   O14       1.0  0.55931  0.78623  0.17064  1.0000
