data_image0
_chemical_formula_structural       Sr4P4H28C8O32
_chemical_formula_sum              "Sr4 P4 H28 C8 O32"
_cell_length_a       6.38801
_cell_length_b       8.01743
_cell_length_c       15.9468
_cell_angle_alpha    90
_cell_angle_beta     89.9999
_cell_angle_gamma    108.119

_space_group_name_H-M_alt    "P 1"
_space_group_IT_number       1

loop_
  _space_group_symop_operation_xyz
  'x, y, z'

loop_
  _atom_site_type_symbol
  _atom_site_label
  _atom_site_symmetry_multiplicity
  _atom_site_fract_x
  _atom_site_fract_y
  _atom_site_fract_z
  _atom_site_occupancy
  Sr  Sr1       1.0  0.74848  0.50988  0.14098  1.0000
  Sr  Sr2       1.0  0.25152  0.99011  0.64097  1.0000
  Sr  Sr3       1.0  0.25152  0.49012  0.85902  1.0000
  Sr  Sr4       1.0  0.74847  0.00988  0.35903  1.0000
  P   P1        1.0  0.46326  0.83216  0.17442  1.0000
  P   P2        1.0  0.53675  0.66784  0.67442  1.0000
  P   P3        1.0  0.53674  0.16785  0.82558  1.0000
  P   P4        1.0  0.46325  0.33216  0.32558  1.0000
  H   H1        1.0  0.69907  0.00609  0.08013  1.0000
  H   H2        1.0  0.30094  0.49391  0.58012  1.0000
  H   H3        1.0  0.30094  0.99391  0.91987  1.0000
  H   H4        1.0  0.69905  0.50609  0.41988  1.0000
  H   H5        1.0  0.07053  0.80000  0.26711  1.0000
  H   H6        1.0  0.92947  0.70000  0.76711  1.0000
  H   H7        1.0  0.92947  0.20000  0.73290  1.0000
  H   H8        1.0  0.07053  0.30000  0.23290  1.0000
  H   H9        1.0  0.05980  0.31804  0.07355  1.0000
  H   H10       1.0  0.94021  0.18196  0.57355  1.0000
  H   H11       1.0  0.94021  0.68197  0.92645  1.0000
  H   H12       1.0  0.05979  0.81803  0.42645  1.0000
  H   H13       1.0  0.21720  0.47553  0.12649  1.0000
  H   H14       1.0  0.78280  0.02447  0.62649  1.0000
  H   H15       1.0  0.78280  0.52447  0.87351  1.0000
  H   H16       1.0  0.21719  0.97553  0.37351  1.0000
  H   H17       1.0  0.53776  0.33113  0.97641  1.0000
  H   H18       1.0  0.46224  0.16888  0.47641  1.0000
  H   H19       1.0  0.46225  0.66888  0.02359  1.0000
  H   H20       1.0  0.53775  0.83112  0.52359  1.0000
  H   H21       1.0  0.42117  0.19357  0.04381  1.0000
  H   H22       1.0  0.57883  0.30643  0.54382  1.0000
  H   H23       1.0  0.57884  0.80643  0.95619  1.0000
  H   H24       1.0  0.42116  0.69357  0.45619  1.0000
  H   H25       1.0  0.23952  0.02641  0.17342  1.0000
  H   H26       1.0  0.76048  0.47360  0.67342  1.0000
  H   H27       1.0  0.76048  0.97360  0.82658  1.0000
  H   H28       1.0  0.23952  0.52640  0.32658  1.0000
  C   C1        1.0  0.20509  0.88759  0.15538  1.0000
  C   C2        1.0  0.79491  0.61241  0.65538  1.0000
  C   C3        1.0  0.79491  0.11241  0.84462  1.0000
  C   C4        1.0  0.20508  0.38759  0.34462  1.0000
  C   C5        1.0  0.14346  0.86709  0.06228  1.0000
  C   C6        1.0  0.85654  0.63290  0.56228  1.0000
  C   C7        1.0  0.85655  0.13292  0.93772  1.0000
  C   C8        1.0  0.14345  0.36708  0.43772  1.0000
  O   O1        1.0  0.48124  0.81566  0.26803  1.0000
  O   O2        1.0  0.51875  0.68434  0.76803  1.0000
  O   O3        1.0  0.51876  0.18434  0.73197  1.0000
  O   O4        1.0  0.48124  0.31566  0.23197  1.0000
  O   O5        1.0  0.45136  0.66314  0.12640  1.0000
  O   O6        1.0  0.54865  0.83686  0.62639  1.0000
  O   O7        1.0  0.54864  0.33686  0.87360  1.0000
  O   O8        1.0  0.45135  0.16314  0.37360  1.0000
  O   O9        1.0  0.66286  0.99296  0.14334  1.0000
  O   O10       1.0  0.33715  0.50704  0.64333  1.0000
  O   O11       1.0  0.33715  0.00704  0.85667  1.0000
  O   O12       1.0  0.66284  0.49296  0.35667  1.0000
  O   O13       1.0  0.03429  0.77451  0.20656  1.0000
  O   O14       1.0  0.96572  0.72549  0.70656  1.0000
  O   O15       1.0  0.96572  0.22549  0.79344  1.0000
  O   O16       1.0  0.03427  0.27451  0.29345  1.0000
  O   O17       1.0  0.99175  0.73244  0.03780  1.0000
  O   O18       1.0  0.00826  0.76755  0.53779  1.0000
  O   O19       1.0  0.00825  0.26756  0.96220  1.0000
  O   O20       1.0  0.99174  0.23244  0.46221  1.0000
  O   O21       1.0  0.26124  0.98795  0.01522  1.0000
  O   O22       1.0  0.73877  0.51205  0.51523  1.0000
  O   O23       1.0  0.73877  0.01206  0.98477  1.0000
  O   O24       1.0  0.26122  0.48794  0.48478  1.0000
  O   O25       1.0  0.07327  0.38020  0.12845  1.0000
  O   O26       1.0  0.92673  0.11980  0.62845  1.0000
  O   O27       1.0  0.92673  0.61980  0.87155  1.0000
  O   O28       1.0  0.07326  0.88020  0.37155  1.0000
  O   O29       1.0  0.51515  0.31780  0.03812  1.0000
  O   O30       1.0  0.48486  0.18219  0.53812  1.0000
  O   O31       1.0  0.48487  0.68220  0.96188  1.0000
  O   O32       1.0  0.51514  0.81780  0.46188  1.0000
