data_image0
_chemical_formula_structural       ZnH8C8O8F4
_chemical_formula_sum              "Zn1 H8 C8 O8 F4"
_cell_length_a       6.42819
_cell_length_b       6.15599
_cell_length_c       8.96279
_cell_angle_alpha    88.6366
_cell_angle_beta     68.7383
_cell_angle_gamma    102.577

_space_group_name_H-M_alt    "P 1"
_space_group_IT_number       1

loop_
  _space_group_symop_operation_xyz
  'x, y, z'

loop_
  _atom_site_type_symbol
  _atom_site_label
  _atom_site_symmetry_multiplicity
  _atom_site_fract_x
  _atom_site_fract_y
  _atom_site_fract_z
  _atom_site_occupancy
  Zn  Zn1       1.0  1.00000  0.50000  1.00000  1.0000
  H   H1        1.0  0.07326  0.31444  0.24818  1.0000
  H   H2        1.0  0.92672  0.68556  0.75182  1.0000
  H   H3        1.0  0.16552  0.20965  0.08062  1.0000
  H   H4        1.0  0.83448  0.79035  0.91938  1.0000
  H   H5        1.0  0.31859  0.88097  0.94754  1.0000
  H   H6        1.0  0.68140  0.11904  0.05246  1.0000
  H   H7        1.0  0.40146  0.72734  0.04423  1.0000
  H   H8        1.0  0.59853  0.27266  0.95577  1.0000
  C   C1        1.0  0.31081  0.22695  0.78744  1.0000
  C   C2        1.0  0.68919  0.77305  0.21256  1.0000
  C   C3        1.0  0.41804  0.12427  0.63532  1.0000
  C   C4        1.0  0.58198  0.87572  0.36466  1.0000
  C   C5        1.0  0.33169  0.11199  0.51201  1.0000
  C   C6        1.0  0.66832  0.88802  0.48801  1.0000
  C   C7        1.0  0.59265  0.01202  0.61631  1.0000
  C   C8        1.0  0.40736  0.98798  0.38368  1.0000
  O   O1        1.0  0.03142  0.25932  0.15961  1.0000
  O   O2        1.0  0.96858  0.74068  0.84038  1.0000
  O   O3        1.0  0.30763  0.72076  0.97797  1.0000
  O   O4        1.0  0.69236  0.27924  0.02203  1.0000
  O   O5        1.0  0.19441  0.36555  0.78558  1.0000
  O   O6        1.0  0.80559  0.63445  0.21442  1.0000
  O   O7        1.0  0.34126  0.15643  0.91278  1.0000
  O   O8        1.0  0.65873  0.84357  0.08722  1.0000
  F   F1        1.0  0.16668  0.21680  0.51382  1.0000
  F   F2        1.0  0.83332  0.78319  0.48617  1.0000
  F   F3        1.0  0.69904  0.02157  0.72224  1.0000
  F   F4        1.0  0.30098  0.97842  0.27778  1.0000
