data_image0
_chemical_formula_structural       ZnSiH28C26N4F6
_chemical_formula_sum              "Zn1 Si1 H28 C26 N4 F6"
_cell_length_a       7.81664
_cell_length_b       11.4501
_cell_length_c       11.4501
_cell_angle_alpha    67.1781
_cell_angle_beta     70.0109
_cell_angle_gamma    70.0104

_space_group_name_H-M_alt    "P 1"
_space_group_IT_number       1

loop_
  _space_group_symop_operation_xyz
  'x, y, z'

loop_
  _atom_site_type_symbol
  _atom_site_label
  _atom_site_symmetry_multiplicity
  _atom_site_fract_x
  _atom_site_fract_y
  _atom_site_fract_z
  _atom_site_occupancy
  Zn  Zn1       1.0  0.45634  0.54352  0.54352  1.0000
  Si  Si1       1.0  0.95645  0.54349  0.54349  1.0000
  H   H1        1.0  0.80990  0.58702  0.32352  1.0000
  H   H2        1.0  0.27881  0.32347  0.58709  1.0000
  H   H3        1.0  0.80990  0.32352  0.58703  1.0000
  H   H4        1.0  0.27881  0.58710  0.32347  1.0000
  H   H5        1.0  0.90668  0.65718  0.08091  1.0000
  H   H6        1.0  0.35479  0.08083  0.65730  1.0000
  H   H7        1.0  0.90668  0.08091  0.65718  1.0000
  H   H8        1.0  0.35479  0.65730  0.08083  1.0000
  H   H9        1.0  0.61342  0.67435  0.87378  1.0000
  H   H10       1.0  0.83875  0.87388  0.67430  1.0000
  H   H11       1.0  0.61342  0.87378  0.67435  1.0000
  H   H12       1.0  0.83875  0.67430  0.87388  1.0000
  H   H13       1.0  0.48776  0.89926  0.89927  1.0000
  H   H14       1.0  0.71341  0.89933  0.89934  1.0000
  H   H15       1.0  0.10305  0.49946  0.76362  1.0000
  H   H16       1.0  0.63414  0.76334  0.49973  1.0000
  H   H17       1.0  0.10305  0.76362  0.49946  1.0000
  H   H18       1.0  0.63414  0.49974  0.76334  1.0000
  H   H19       1.0  0.00641  0.42937  0.00624  1.0000
  H   H20       1.0  0.55849  0.00597  0.42955  1.0000
  H   H21       1.0  0.00640  0.00625  0.42936  1.0000
  H   H22       1.0  0.55849  0.42954  0.00596  1.0000
  H   H23       1.0  0.07463  0.41270  0.21303  1.0000
  H   H24       1.0  0.30009  0.21303  0.41265  1.0000
  H   H25       1.0  0.07463  0.21304  0.41269  1.0000
  H   H26       1.0  0.30009  0.41265  0.21303  1.0000
  H   H27       1.0  0.19970  0.18769  0.18769  1.0000
  H   H28       1.0  0.42546  0.18760  0.18760  1.0000
  C   C1        1.0  0.71328  0.60256  0.26638  1.0000
  C   C2        1.0  0.41711  0.26635  0.60261  1.0000
  C   C3        1.0  0.71328  0.26637  0.60257  1.0000
  C   C4        1.0  0.41710  0.60261  0.26635  1.0000
  C   C5        1.0  0.76581  0.64235  0.13062  1.0000
  C   C6        1.0  0.46072  0.13055  0.64243  1.0000
  C   C7        1.0  0.76581  0.13062  0.64236  1.0000
  C   C8        1.0  0.46072  0.64243  0.13055  1.0000
  C   C9        1.0  0.63878  0.66331  0.05884  1.0000
  C   C10       1.0  0.63878  0.05883  0.66331  1.0000
  C   C11       1.0  0.68819  0.71140  0.91238  1.0000
  C   C12       1.0  0.68819  0.91238  0.71141  1.0000
  C   C13       1.0  0.63868  0.86134  0.86134  1.0000
  C   C14       1.0  0.19963  0.48404  0.82075  1.0000
  C   C15       1.0  0.49586  0.82059  0.48421  1.0000
  C   C16       1.0  0.19962  0.82076  0.48403  1.0000
  C   C17       1.0  0.49586  0.48421  0.82059  1.0000
  C   C18       1.0  0.14718  0.44440  0.95649  1.0000
  C   C19       1.0  0.45235  0.95632  0.44454  1.0000
  C   C20       1.0  0.14718  0.95650  0.44440  1.0000
  C   C21       1.0  0.45235  0.44454  0.95632  1.0000
  C   C22       1.0  0.27437  0.42362  0.02813  1.0000
  C   C23       1.0  0.27437  0.02813  0.42362  1.0000
  C   C24       1.0  0.22518  0.37559  0.17455  1.0000
  C   C25       1.0  0.22518  0.17456  0.37558  1.0000
  C   C26       1.0  0.27462  0.22563  0.22562  1.0000
  N   N1        1.0  0.37159  0.50394  0.75313  1.0000
  N   N2        1.0  0.37158  0.75314  0.50394  1.0000
  N   N3        1.0  0.54133  0.58270  0.33390  1.0000
  N   N4        1.0  0.54133  0.33390  0.58270  1.0000
  F   F1        1.0  0.95649  0.40917  0.67781  1.0000
  F   F2        1.0  0.95649  0.67779  0.40916  1.0000
  F   F3        1.0  0.18132  0.54369  0.54369  1.0000
  F   F4        1.0  0.73151  0.54335  0.54335  1.0000
  F   F5        1.0  0.85811  0.64129  0.64127  1.0000
  F   F6        1.0  0.05473  0.44571  0.44572  1.0000
