data_image0
_chemical_formula_structural       CdH32C28N12O4
_chemical_formula_sum              "Cd1 H32 C28 N12 O4"
_cell_length_a       7.16128
_cell_length_b       9.05992
_cell_length_c       12.9316
_cell_angle_alpha    73.7275
_cell_angle_beta     87.8648
_cell_angle_gamma    70.5184

_space_group_name_H-M_alt    "P 1"
_space_group_IT_number       1

loop_
  _space_group_symop_operation_xyz
  'x, y, z'

loop_
  _atom_site_type_symbol
  _atom_site_label
  _atom_site_symmetry_multiplicity
  _atom_site_fract_x
  _atom_site_fract_y
  _atom_site_fract_z
  _atom_site_occupancy
  Cd  Cd1       1.0  0.50000  0.50001  1.00000  1.0000
  H   H1        1.0  0.63948  0.44658  0.24120  1.0000
  H   H2        1.0  0.36054  0.55341  0.75880  1.0000
  H   H3        1.0  0.57068  0.32912  0.43094  1.0000
  H   H4        1.0  0.42933  0.67087  0.56905  1.0000
  H   H5        1.0  0.02732  0.31246  0.30568  1.0000
  H   H6        1.0  0.97269  0.68754  0.69432  1.0000
  H   H7        1.0  0.11890  0.43339  0.12171  1.0000
  H   H8        1.0  0.88110  0.56662  0.87829  1.0000
  H   H9        1.0  0.43055  0.28653  0.72881  1.0000
  H   H10       1.0  0.56945  0.71347  0.27119  1.0000
  H   H11       1.0  0.19968  0.29852  0.78653  1.0000
  H   H12       1.0  0.80033  0.70148  0.21347  1.0000
  H   H13       1.0  0.20461  0.40569  0.64818  1.0000
  H   H14       1.0  0.79540  0.59431  0.35183  1.0000
  H   H15       1.0  0.41524  0.87616  0.74725  1.0000
  H   H16       1.0  0.58474  0.12384  0.25275  1.0000
  H   H17       1.0  0.31977  0.98210  0.84458  1.0000
  H   H18       1.0  0.68023  0.01789  0.15542  1.0000
  H   H19       1.0  0.54537  0.99064  0.78586  1.0000
  H   H20       1.0  0.45463  0.00934  0.21414  1.0000
  H   H21       1.0  0.92877  0.99976  0.60155  1.0000
  H   H22       1.0  0.07122  0.00024  0.39845  1.0000
  H   H23       1.0  0.08697  0.90060  0.72159  1.0000
  H   H24       1.0  0.91301  0.09939  0.27841  1.0000
  H   H25       1.0  0.19192  0.92524  0.59307  1.0000
  H   H26       1.0  0.80807  0.07476  0.40693  1.0000
  H   H27       1.0  0.89089  0.35284  0.69986  1.0000
  H   H28       1.0  0.10912  0.64716  0.30014  1.0000
  H   H29       1.0  0.92355  0.15567  0.78987  1.0000
  H   H30       1.0  0.07644  0.84434  0.21013  1.0000
  H   H31       1.0  0.76571  0.22804  0.67018  1.0000
  H   H32       1.0  0.23428  0.77198  0.32982  1.0000
  C   C1        1.0  0.50457  0.41647  0.25942  1.0000
  C   C2        1.0  0.49544  0.58353  0.74057  1.0000
  C   C3        1.0  0.46581  0.35012  0.36518  1.0000
  C   C4        1.0  0.53419  0.64987  0.63481  1.0000
  C   C5        1.0  0.29292  0.30808  0.38403  1.0000
  C   C6        1.0  0.70708  0.69192  0.61597  1.0000
  C   C7        1.0  0.16429  0.34009  0.29489  1.0000
  C   C8        1.0  0.83571  0.65992  0.70511  1.0000
  C   C9        1.0  0.21557  0.40766  0.19238  1.0000
  C   C10       1.0  0.78443  0.59235  0.80762  1.0000
  C   C11       1.0  0.24736  0.23715  0.49308  1.0000
  C   C12       1.0  0.75264  0.76285  0.50692  1.0000
  C   C13       1.0  0.28401  0.13980  0.68261  1.0000
  C   C14       1.0  0.71598  0.86020  0.31739  1.0000
  C   C15       1.0  0.07636  0.14816  0.64440  1.0000
  C   C16       1.0  0.92364  0.85184  0.35560  1.0000
  C   C17       1.0  0.27823  0.29335  0.71259  1.0000
  C   C18       1.0  0.72178  0.70664  0.28741  1.0000
  C   C19       1.0  0.39788  0.98725  0.76976  1.0000
  C   C20       1.0  0.60211  0.01276  0.23024  1.0000
  C   C21       1.0  0.07187  0.98229  0.63929  1.0000
  C   C22       1.0  0.92812  0.01771  0.36070  1.0000
  C   C23       1.0  0.90363  0.22738  0.70463  1.0000
  C   C24       1.0  0.09636  0.77263  0.29537  1.0000
  C   C25       1.0  0.03007  0.74622  0.95952  1.0000
  C   C26       1.0  0.96993  0.25379  0.04050  1.0000
  C   C27       1.0  0.71980  0.76273  0.01019  1.0000
  C   C28       1.0  0.28021  0.23727  0.98982  1.0000
  N   N1        1.0  0.38357  0.44343  0.17408  1.0000
  N   N2        1.0  0.61644  0.55658  0.82592  1.0000
  N   N3        1.0  0.38512  0.15019  0.57713  1.0000
  N   N4        1.0  0.61490  0.84980  0.42288  1.0000
  N   N5        1.0  0.06309  0.25257  0.52868  1.0000
  N   N6        1.0  0.93689  0.74743  0.47132  1.0000
  N   N7        1.0  0.58346  0.71597  0.02978  1.0000
  N   N8        1.0  0.41654  0.28404  0.97022  1.0000
  N   N9        1.0  0.18442  0.68395  0.92700  1.0000
  N   N10       1.0  0.81558  0.31607  0.07301  1.0000
  N   N11       1.0  0.86290  0.82310  0.99267  1.0000
  N   N12       1.0  0.13710  0.17689  0.00735  1.0000
  O   O1        1.0  0.57339  0.10237  0.57252  1.0000
  O   O2        1.0  0.42661  0.89762  0.42747  1.0000
  O   O3        1.0  0.89760  0.33244  0.47319  1.0000
  O   O4        1.0  0.10240  0.66755  0.52680  1.0000
