data_image0
_chemical_formula_structural       Cu6P4H20C20N4O16
_chemical_formula_sum              "Cu6 P4 H20 C20 N4 O16"
_cell_length_a       5.17449
_cell_length_b       7.95084
_cell_length_c       20.412
_cell_angle_alpha    89.9997
_cell_angle_beta     89.9998
_cell_angle_gamma    107.25

_space_group_name_H-M_alt    "P 1"
_space_group_IT_number       1

loop_
  _space_group_symop_operation_xyz
  'x, y, z'

loop_
  _atom_site_type_symbol
  _atom_site_label
  _atom_site_symmetry_multiplicity
  _atom_site_fract_x
  _atom_site_fract_y
  _atom_site_fract_z
  _atom_site_occupancy
  Cu  Cu1       1.0  0.55556  0.36668  0.54894  1.0000
  Cu  Cu2       1.0  0.94444  0.63331  0.04895  1.0000
  Cu  Cu3       1.0  0.44544  0.63488  0.45109  1.0000
  Cu  Cu4       1.0  0.05456  0.36512  0.95110  1.0000
  Cu  Cu5       1.0  0.50075  0.99896  0.49981  1.0000
  Cu  Cu6       1.0  0.99926  0.00104  0.99981  1.0000
  P   P1        1.0  0.05329  0.25642  0.44191  1.0000
  P   P2        1.0  0.44672  0.74358  0.94192  1.0000
  P   P3        1.0  0.94797  0.74404  0.55828  1.0000
  P   P4        1.0  0.55203  0.25596  0.05829  1.0000
  H   H1        1.0  0.20540  0.07546  0.58009  1.0000
  H   H2        1.0  0.29460  0.92454  0.08009  1.0000
  H   H3        1.0  0.79601  0.92576  0.41956  1.0000
  H   H4        1.0  0.70399  0.07425  0.91957  1.0000
  H   H5        1.0  0.59567  0.23972  0.35188  1.0000
  H   H6        1.0  0.90434  0.76028  0.85188  1.0000
  H   H7        1.0  0.40496  0.75961  0.64834  1.0000
  H   H8        1.0  0.09503  0.24039  0.14835  1.0000
  H   H9        1.0  0.49146  0.47471  0.28411  1.0000
  H   H10       1.0  0.00854  0.52529  0.78411  1.0000
  H   H11       1.0  0.50771  0.52398  0.71606  1.0000
  H   H12       1.0  0.99228  0.47602  0.21606  1.0000
  H   H13       1.0  0.81298  0.78231  0.28715  1.0000
  H   H14       1.0  0.68702  0.21769  0.78715  1.0000
  H   H15       1.0  0.18496  0.21681  0.71289  1.0000
  H   H16       1.0  0.31503  0.78319  0.21289  1.0000
  H   H17       1.0  0.23470  0.83967  0.35623  1.0000
  H   H18       1.0  0.26529  0.16033  0.85623  1.0000
  H   H19       1.0  0.76340  0.16046  0.64378  1.0000
  H   H20       1.0  0.73660  0.83953  0.14378  1.0000
  C   C1        1.0  0.97510  0.41484  0.38601  1.0000
  C   C2        1.0  0.52491  0.58516  0.88601  1.0000
  C   C3        1.0  0.02481  0.58531  0.61425  1.0000
  C   C4        1.0  0.47518  0.41469  0.11425  1.0000
  C   C5        1.0  0.73679  0.37231  0.34921  1.0000
  C   C6        1.0  0.76322  0.62768  0.84922  1.0000
  C   C7        1.0  0.26318  0.62722  0.65100  1.0000
  C   C8        1.0  0.23681  0.37278  0.15101  1.0000
  C   C9        1.0  0.67758  0.50412  0.31259  1.0000
  C   C10       1.0  0.82242  0.49588  0.81259  1.0000
  C   C11       1.0  0.32163  0.49505  0.68758  1.0000
  C   C12       1.0  0.17836  0.50494  0.18758  1.0000
  C   C13       1.0  0.85615  0.67498  0.31379  1.0000
  C   C14       1.0  0.64385  0.32502  0.81379  1.0000
  C   C15       1.0  0.14244  0.32441  0.68629  1.0000
  C   C16       1.0  0.35755  0.67560  0.18629  1.0000
  C   C17       1.0  0.09060  0.70883  0.35122  1.0000
  C   C18       1.0  0.40941  0.29117  0.85122  1.0000
  C   C19       1.0  0.90793  0.29114  0.64891  1.0000
  C   C20       1.0  0.59206  0.70886  0.14891  1.0000
  N   N1        1.0  0.14745  0.58042  0.38598  1.0000
  N   N2        1.0  0.35255  0.41958  0.88598  1.0000
  N   N3        1.0  0.85161  0.42000  0.61429  1.0000
  N   N4        1.0  0.64838  0.58000  0.11429  1.0000
  O   O1        1.0  0.81365  0.20762  0.48993  1.0000
  O   O2        1.0  0.68637  0.79238  0.98993  1.0000
  O   O3        1.0  0.18834  0.79194  0.51038  1.0000
  O   O4        1.0  0.31166  0.20806  0.01039  1.0000
  O   O5        1.0  0.10951  0.10602  0.40577  1.0000
  O   O6        1.0  0.39049  0.89398  0.90577  1.0000
  O   O7        1.0  0.89196  0.89457  0.59430  1.0000
  O   O8        1.0  0.60805  0.10543  0.09431  1.0000
  O   O9        1.0  0.30529  0.38340  0.47799  1.0000
  O   O10       1.0  0.19473  0.61659  0.97800  1.0000
  O   O11       1.0  0.69611  0.61782  0.52190  1.0000
  O   O12       1.0  0.80389  0.38219  0.02191  1.0000
  O   O13       1.0  0.40275  0.12409  0.57225  1.0000
  O   O14       1.0  0.09726  0.87591  0.07225  1.0000
  O   O15       1.0  0.59779  0.87690  0.42618  1.0000
  O   O16       1.0  0.90221  0.12310  0.92618  1.0000
