data_image0
_chemical_formula_structural       Mn3H12C21O15
_chemical_formula_sum              "Mn3 H12 C21 O15"
_cell_length_a       9.2416
_cell_length_b       9.22098
_cell_length_c       10.4138
_cell_angle_alpha    90.0136
_cell_angle_beta     90.0121
_cell_angle_gamma    119.876

_space_group_name_H-M_alt    "P 1"
_space_group_IT_number       1

loop_
  _space_group_symop_operation_xyz
  'x, y, z'

loop_
  _atom_site_type_symbol
  _atom_site_label
  _atom_site_symmetry_multiplicity
  _atom_site_fract_x
  _atom_site_fract_y
  _atom_site_fract_z
  _atom_site_occupancy
  Mn  Mn1       1.0  0.99841  0.99816  0.50188  1.0000
  Mn  Mn2       1.0  0.00168  0.99962  0.16460  1.0000
  Mn  Mn3       1.0  0.99976  0.00099  0.83356  1.0000
  H   H1        1.0  0.63154  0.88873  0.37754  1.0000
  H   H2        1.0  0.11117  0.74237  0.04265  1.0000
  H   H3        1.0  0.25799  0.37015  0.70899  1.0000
  H   H4        1.0  0.88863  0.63092  0.62319  1.0000
  H   H5        1.0  0.74228  0.11218  0.95806  1.0000
  H   H6        1.0  0.36829  0.25727  0.28950  1.0000
  H   H7        1.0  0.40867  0.92287  0.46919  1.0000
  H   H8        1.0  0.07650  0.48480  0.13398  1.0000
  H   H9        1.0  0.51475  0.59170  0.80066  1.0000
  H   H10       1.0  0.92350  0.40829  0.53149  1.0000
  H   H11       1.0  0.48520  0.07707  0.86659  1.0000
  H   H12       1.0  0.59102  0.51397  0.19809  1.0000
  C   C1        1.0  0.27160  0.99970  0.66789  1.0000
  C   C2        1.0  0.99983  0.27072  0.33274  1.0000
  C   C3        1.0  0.72815  0.72790  0.99944  1.0000
  C   C4        1.0  0.73619  0.00067  0.66779  1.0000
  C   C5        1.0  0.00016  0.73639  0.33301  1.0000
  C   C6        1.0  0.26399  0.26439  0.99912  1.0000
  C   C7        1.0  0.63447  0.95345  0.55731  1.0000
  C   C8        1.0  0.04683  0.68104  0.22246  1.0000
  C   C9        1.0  0.31901  0.36627  0.88867  1.0000
  C   C10       1.0  0.95341  0.63429  0.44341  1.0000
  C   C11       1.0  0.68109  0.04732  0.77838  1.0000
  C   C12       1.0  0.36555  0.31886  0.10969  1.0000
  C   C13       1.0  0.48594  0.95679  0.55548  1.0000
  C   C14       1.0  0.04293  0.52858  0.22033  1.0000
  C   C15       1.0  0.47110  0.51433  0.88691  1.0000
  C   C16       1.0  0.95710  0.48563  0.44519  1.0000
  C   C17       1.0  0.52887  0.04323  0.78034  1.0000
  C   C18       1.0  0.51395  0.47068  0.11171  1.0000
  C   C19       1.0  0.43214  0.99985  0.66794  1.0000
  C   C20       1.0  0.99999  0.43165  0.33272  1.0000
  C   C21       1.0  0.56777  0.56759  0.99934  1.0000
  O   O1        1.0  0.88108  0.00128  0.66770  1.0000
  O   O2        1.0  0.00036  0.88119  0.33319  1.0000
  O   O3        1.0  0.11932  0.12015  0.99905  1.0000
  O   O4        1.0  0.22841  0.04223  0.56411  1.0000
  O   O5        1.0  0.95666  0.18490  0.22902  1.0000
  O   O6        1.0  0.81347  0.77099  0.89555  1.0000
  O   O7        1.0  0.04293  0.22790  0.43643  1.0000
  O   O8        1.0  0.18614  0.95715  0.77168  1.0000
  O   O9        1.0  0.77137  0.81340  0.10331  1.0000
  O   O10       1.0  0.69576  0.90391  0.45555  1.0000
  O   O11       1.0  0.09665  0.79199  0.12069  1.0000
  O   O12       1.0  0.20860  0.30569  0.78683  1.0000
  O   O13       1.0  0.90385  0.69554  0.54536  1.0000
  O   O14       1.0  0.79164  0.09714  0.88014  1.0000
  O   O15       1.0  0.30429  0.20812  0.21143  1.0000
