data_image0
_chemical_formula_structural       Ni3H12C21O15
_chemical_formula_sum              "Ni3 H12 C21 O15"
_cell_length_a       8.97991
_cell_length_b       8.97997
_cell_length_c       10.178
_cell_angle_alpha    89.9814
_cell_angle_beta     90.0194
_cell_angle_gamma    120.042

_space_group_name_H-M_alt    "P 1"
_space_group_IT_number       1

loop_
  _space_group_symop_operation_xyz
  'x, y, z'

loop_
  _atom_site_type_symbol
  _atom_site_label
  _atom_site_symmetry_multiplicity
  _atom_site_fract_x
  _atom_site_fract_y
  _atom_site_fract_z
  _atom_site_occupancy
  Ni  Ni1       1.0  0.99995  0.97178  0.16683  1.0000
  Ni  Ni2       1.0  0.02845  0.02845  0.50000  1.0000
  Ni  Ni3       1.0  0.97178  0.99995  0.83317  1.0000
  H   H1        1.0  0.74621  0.64661  0.30006  1.0000
  H   H2        1.0  0.35349  0.09947  0.63373  1.0000
  H   H3        1.0  0.90046  0.25376  0.96647  1.0000
  H   H4        1.0  0.64662  0.74622  0.69995  1.0000
  H   H5        1.0  0.09948  0.35349  0.36629  1.0000
  H   H6        1.0  0.25377  0.90048  0.03354  1.0000
  H   H7        1.0  0.47893  0.39192  0.20150  1.0000
  H   H8        1.0  0.60801  0.08679  0.53522  1.0000
  H   H9        1.0  0.91289  0.52079  0.86789  1.0000
  H   H10       1.0  0.39193  0.47894  0.79848  1.0000
  H   H11       1.0  0.08680  0.60800  0.46479  1.0000
  H   H12       1.0  0.52081  0.91291  0.13211  1.0000
  C   C1        1.0  0.73259  0.73259  0.00000  1.0000
  C   C2        1.0  0.26766  0.00027  0.33360  1.0000
  C   C3        1.0  0.00026  0.26765  0.66641  1.0000
  C   C4        1.0  0.52242  0.47392  0.11448  1.0000
  C   C5        1.0  0.52598  0.04824  0.44822  1.0000
  C   C6        1.0  0.95138  0.47741  0.78085  1.0000
  C   C7        1.0  0.47392  0.52241  0.88550  1.0000
  C   C8        1.0  0.04823  0.52597  0.55180  1.0000
  C   C9        1.0  0.47743  0.95142  0.21916  1.0000
  C   C10       1.0  0.25582  0.25582  0.99999  1.0000
  C   C11       1.0  0.74394  0.99977  0.33375  1.0000
  C   C12       1.0  0.99976  0.74394  0.66626  1.0000
  C   C13       1.0  0.67853  0.62668  0.11253  1.0000
  C   C14       1.0  0.37343  0.05183  0.44621  1.0000
  C   C15       1.0  0.94830  0.32152  0.77892  1.0000
  C   C16       1.0  0.62668  0.67852  0.88747  1.0000
  C   C17       1.0  0.05182  0.37343  0.55380  1.0000
  C   C18       1.0  0.32153  0.94832  0.22109  1.0000
  C   C19       1.0  0.42118  0.42116  0.99999  1.0000
  C   C20       1.0  0.57863  0.99974  0.33372  1.0000
  C   C21       1.0  0.99972  0.57863  0.66629  1.0000
  O   O1        1.0  0.79817  0.68781  0.21390  1.0000
  O   O2        1.0  0.31244  0.11033  0.54753  1.0000
  O   O3        1.0  0.89008  0.20195  0.88032  1.0000
  O   O4        1.0  0.68780  0.79818  0.78611  1.0000
  O   O5        1.0  0.11035  0.31245  0.45248  1.0000
  O   O6        1.0  0.20195  0.89009  0.11968  1.0000
  O   O7        1.0  0.17121  0.21225  0.10788  1.0000
  O   O8        1.0  0.78782  0.95929  0.44175  1.0000
  O   O9        1.0  0.04036  0.82828  0.77428  1.0000
  O   O10       1.0  0.21225  0.17120  0.89211  1.0000
  O   O11       1.0  0.95929  0.78781  0.55825  1.0000
  O   O12       1.0  0.82828  0.04036  0.22572  1.0000
  O   O13       1.0  0.88053  0.88053  0.00000  1.0000
  O   O14       1.0  0.12001  0.00070  0.33344  1.0000
  O   O15       1.0  0.00070  0.12000  0.66658  1.0000
