data_image0
_chemical_formula_structural       Ni6H24C42O30
_chemical_formula_sum              "Ni6 H24 C42 O30"
_cell_length_a       8.91395
_cell_length_b       8.91395
_cell_length_c       21.1663
_cell_angle_alpha    90
_cell_angle_beta     90
_cell_angle_gamma    119.972

_space_group_name_H-M_alt    "P 1"
_space_group_IT_number       1

loop_
  _space_group_symop_operation_xyz
  'x, y, z'

loop_
  _atom_site_type_symbol
  _atom_site_label
  _atom_site_symmetry_multiplicity
  _atom_site_fract_x
  _atom_site_fract_y
  _atom_site_fract_z
  _atom_site_occupancy
  Ni  Ni1       1.0  0.01769  0.98273  0.08298  1.0000
  Ni  Ni2       1.0  0.01679  0.03373  0.41647  1.0000
  Ni  Ni3       1.0  0.96522  0.98277  0.74982  1.0000
  Ni  Ni4       1.0  0.03373  0.01680  0.58355  1.0000
  Ni  Ni5       1.0  0.98277  0.96522  0.25019  1.0000
  Ni  Ni6       1.0  0.98273  0.01768  0.91702  1.0000
  H   H1        1.0  0.07590  0.46096  0.06822  1.0000
  H   H2        1.0  0.53789  0.61371  0.40181  1.0000
  H   H3        1.0  0.38565  0.92479  0.73534  1.0000
  H   H4        1.0  0.61372  0.53789  0.59819  1.0000
  H   H5        1.0  0.92479  0.38565  0.26467  1.0000
  H   H6        1.0  0.46097  0.07591  0.93179  1.0000
  H   H7        1.0  0.59692  0.50098  0.09581  1.0000
  H   H8        1.0  0.49950  0.09609  0.42927  1.0000
  H   H9        1.0  0.90485  0.40363  0.76243  1.0000
  H   H10       1.0  0.09610  0.49951  0.57074  1.0000
  H   H11       1.0  0.40364  0.90487  0.23757  1.0000
  H   H12       1.0  0.50096  0.59691  0.90420  1.0000
  H   H13       1.0  0.34088  0.23406  0.14332  1.0000
  H   H14       1.0  0.76603  0.10599  0.47680  1.0000
  H   H15       1.0  0.89355  0.65937  0.80998  1.0000
  H   H16       1.0  0.10599  0.76603  0.52321  1.0000
  H   H17       1.0  0.65939  0.89357  0.19003  1.0000
  H   H18       1.0  0.23404  0.34088  0.85669  1.0000
  H   H19       1.0  0.08603  0.72463  0.02098  1.0000
  H   H20       1.0  0.27459  0.36053  0.35462  1.0000
  H   H21       1.0  0.63883  0.91414  0.68820  1.0000
  H   H22       1.0  0.36054  0.27460  0.64538  1.0000
  H   H23       1.0  0.91414  0.63883  0.31181  1.0000
  H   H24       1.0  0.72463  0.08602  0.97903  1.0000
  C   C1        1.0  0.00067  0.72325  0.16643  1.0000
  C   C2        1.0  0.27617  0.27619  0.50000  1.0000
  C   C3        1.0  0.72325  0.00068  0.83358  1.0000
  C   C4        1.0  0.00026  0.24165  0.16655  1.0000
  C   C5        1.0  0.75742  0.75741  0.50000  1.0000
  C   C6        1.0  0.24166  0.00027  0.83346  1.0000
  C   C7        1.0  0.73087  0.73086  0.00000  1.0000
  C   C8        1.0  0.26935  0.00012  0.33343  1.0000
  C   C9        1.0  0.00011  0.26934  0.66658  1.0000
  C   C10       1.0  0.24924  0.24925  0.00000  1.0000
  C   C11       1.0  0.75105  0.99983  0.33340  1.0000
  C   C12       1.0  0.99984  0.75106  0.66661  1.0000
  C   C13       1.0  0.56411  0.56411  0.00000  1.0000
  C   C14       1.0  0.43646  0.00059  0.33341  1.0000
  C   C15       1.0  0.00058  0.43645  0.66660  1.0000
  C   C16       1.0  0.35908  0.30235  0.05330  1.0000
  C   C17       1.0  0.69801  0.05657  0.38673  1.0000
  C   C18       1.0  0.94365  0.64141  0.71995  1.0000
  C   C19       1.0  0.05657  0.69801  0.61327  1.0000
  C   C20       1.0  0.64141  0.94365  0.28006  1.0000
  C   C21       1.0  0.30234  0.35908  0.94671  1.0000
  C   C22       1.0  0.04261  0.50728  0.11078  1.0000
  C   C23       1.0  0.49179  0.53411  0.44436  1.0000
  C   C24       1.0  0.46525  0.95827  0.77790  1.0000
  C   C25       1.0  0.53411  0.49179  0.55564  1.0000
  C   C26       1.0  0.95827  0.46525  0.22211  1.0000
  C   C27       1.0  0.50729  0.04261  0.88924  1.0000
  C   C28       1.0  0.51300  0.45932  0.05430  1.0000
  C   C29       1.0  0.54124  0.05400  0.38773  1.0000
  C   C30       1.0  0.94702  0.48761  0.72093  1.0000
  C   C31       1.0  0.05401  0.54124  0.61228  1.0000
  C   C32       1.0  0.48761  0.94701  0.27907  1.0000
  C   C33       1.0  0.45932  0.51298  0.94570  1.0000
  C   C34       1.0  0.04669  0.66483  0.11175  1.0000
  C   C35       1.0  0.33435  0.38069  0.44537  1.0000
  C   C36       1.0  0.61877  0.95434  0.77893  1.0000
  C   C37       1.0  0.38069  0.33436  0.55463  1.0000
  C   C38       1.0  0.95434  0.61876  0.22108  1.0000
  C   C39       1.0  0.66484  0.04670  0.88826  1.0000
  C   C40       1.0  0.00045  0.40841  0.16646  1.0000
  C   C41       1.0  0.59081  0.59082  0.50000  1.0000
  C   C42       1.0  0.40842  0.00046  0.83355  1.0000
  O   O1        1.0  0.10019  0.10018  0.00000  1.0000
  O   O2        1.0  0.89994  0.99934  0.33336  1.0000
  O   O3        1.0  0.99936  0.89995  0.66665  1.0000
  O   O4        1.0  0.77919  0.80957  0.05312  1.0000
  O   O5        1.0  0.19031  0.96884  0.38651  1.0000
  O   O6        1.0  0.03096  0.22115  0.71965  1.0000
  O   O7        1.0  0.96883  0.19031  0.61350  1.0000
  O   O8        1.0  0.22116  0.03096  0.28035  1.0000
  O   O9        1.0  0.80958  0.77920  0.94688  1.0000
  O   O10       1.0  0.00079  0.87240  0.16652  1.0000
  O   O11       1.0  0.12715  0.12715  0.50000  1.0000
  O   O12       1.0  0.87241  0.00082  0.83349  1.0000
  O   O13       1.0  0.30109  0.18100  0.10187  1.0000
  O   O14       1.0  0.81921  0.11935  0.43536  1.0000
  O   O15       1.0  0.88038  0.69948  0.76856  1.0000
  O   O16       1.0  0.11936  0.81922  0.56465  1.0000
  O   O17       1.0  0.69947  0.88037  0.23144  1.0000
  O   O18       1.0  0.18099  0.30110  0.89814  1.0000
  O   O19       1.0  0.95060  0.15281  0.11550  1.0000
  O   O20       1.0  0.84650  0.79635  0.44899  1.0000
  O   O21       1.0  0.20246  0.04966  0.78233  1.0000
  O   O22       1.0  0.79635  0.84649  0.55101  1.0000
  O   O23       1.0  0.04965  0.20244  0.21768  1.0000
  O   O24       1.0  0.15282  0.95060  0.88451  1.0000
  O   O25       1.0  0.10016  0.78128  0.06170  1.0000
  O   O26       1.0  0.21789  0.31780  0.39533  1.0000
  O   O27       1.0  0.68190  0.90079  0.72893  1.0000
  O   O28       1.0  0.31780  0.21790  0.60468  1.0000
  O   O29       1.0  0.90078  0.68189  0.27108  1.0000
  O   O30       1.0  0.78128  0.10017  0.93831  1.0000
