data_image0
_chemical_formula_structural       CuH20C10N8Cl2O6
_chemical_formula_sum              "Cu1 H20 C10 N8 Cl2 O6"
_cell_length_a       6.49375
_cell_length_b       7.28295
_cell_length_c       9.34813
_cell_angle_alpha    74.0334
_cell_angle_beta     91.2766
_cell_angle_gamma    86.492

_space_group_name_H-M_alt    "P 1"
_space_group_IT_number       1

loop_
  _space_group_symop_operation_xyz
  'x, y, z'

loop_
  _atom_site_type_symbol
  _atom_site_label
  _atom_site_symmetry_multiplicity
  _atom_site_fract_x
  _atom_site_fract_y
  _atom_site_fract_z
  _atom_site_occupancy
  Cu  Cu1       1.0  1.00000  0.50000  1.00000  1.0000
  H   H1        1.0  0.78312  0.10047  0.01409  1.0000
  H   H2        1.0  0.21686  0.89952  0.98591  1.0000
  H   H3        1.0  0.61377  0.60617  0.20194  1.0000
  H   H4        1.0  0.38623  0.39383  0.79806  1.0000
  H   H5        1.0  0.59948  0.82756  0.06224  1.0000
  H   H6        1.0  0.40052  0.17244  0.93777  1.0000
  H   H7        1.0  0.96826  0.68749  0.23634  1.0000
  H   H8        1.0  0.03175  0.31251  0.76366  1.0000
  H   H9        1.0  0.33187  0.73259  0.31741  1.0000
  H   H10       1.0  0.66813  0.26741  0.68259  1.0000
  H   H11       1.0  0.35690  0.92721  0.39535  1.0000
  H   H12       1.0  0.64310  0.07279  0.60465  1.0000
  H   H13       1.0  0.29027  0.13022  0.17038  1.0000
  H   H14       1.0  0.70973  0.86979  0.82962  1.0000
  H   H15       1.0  0.67636  0.79923  0.52788  1.0000
  H   H16       1.0  0.32364  0.20077  0.47212  1.0000
  H   H17       1.0  0.64871  0.59034  0.46770  1.0000
  H   H18       1.0  0.35129  0.40966  0.53230  1.0000
  H   H19       1.0  0.99940  0.66837  0.53734  1.0000
  H   H20       1.0  0.00061  0.33163  0.46266  1.0000
  C   C1        1.0  0.78572  0.13960  0.11848  1.0000
  C   C2        1.0  0.21427  0.86041  0.88152  1.0000
  C   C3        1.0  0.62964  0.84710  0.28854  1.0000
  C   C4        1.0  0.37036  0.15290  0.71146  1.0000
  C   C5        1.0  0.67818  0.74734  0.16770  1.0000
  C   C6        1.0  0.32183  0.25266  0.83230  1.0000
  C   C7        1.0  0.39252  0.87480  0.29850  1.0000
  C   C8        1.0  0.60748  0.12520  0.70150  1.0000
  C   C9        1.0  0.71943  0.72935  0.44156  1.0000
  C   C10       1.0  0.28057  0.27065  0.55844  1.0000
  N   N1        1.0  0.71919  0.03556  0.24920  1.0000
  N   N2        1.0  0.28081  0.96444  0.75080  1.0000
  N   N3        1.0  0.75134  0.12876  0.35334  1.0000
  N   N4        1.0  0.24866  0.87124  0.64665  1.0000
  N   N5        1.0  0.83612  0.28495  0.28845  1.0000
  N   N6        1.0  0.16389  0.71505  0.71155  1.0000
  N   N7        1.0  0.85843  0.29578  0.14214  1.0000
  N   N8        1.0  0.14157  0.70422  0.85786  1.0000
  Cl  Cl1       1.0  0.29005  0.42033  0.16341  1.0000
  Cl  Cl2       1.0  0.70995  0.57968  0.83659  1.0000
  O   O1        1.0  0.89288  0.73177  0.13923  1.0000
  O   O2        1.0  0.10712  0.26823  0.86077  1.0000
  O   O3        1.0  0.29476  0.99508  0.16614  1.0000
  O   O4        1.0  0.70525  0.00492  0.83386  1.0000
  O   O5        1.0  0.93801  0.70474  0.43543  1.0000
  O   O6        1.0  0.06199  0.29527  0.56457  1.0000
