data_image0
_chemical_formula_structural       Cd2H28C32N8O8
_chemical_formula_sum              "Cd2 H28 C32 N8 O8"
_cell_length_a       7.45413
_cell_length_b       11.0324
_cell_length_c       11.8845
_cell_angle_alpha    117.844
_cell_angle_beta     108.507
_cell_angle_gamma    89.4654

_space_group_name_H-M_alt    "P 1"
_space_group_IT_number       1

loop_
  _space_group_symop_operation_xyz
  'x, y, z'

loop_
  _atom_site_type_symbol
  _atom_site_label
  _atom_site_symmetry_multiplicity
  _atom_site_fract_x
  _atom_site_fract_y
  _atom_site_fract_z
  _atom_site_occupancy
  Cd  Cd1       1.0  0.55071  0.30100  0.60191  1.0000
  Cd  Cd2       1.0  0.44929  0.69900  0.39809  1.0000
  H   H1        1.0  0.91497  0.11310  0.46771  1.0000
  H   H2        1.0  0.05327  0.35481  0.46817  1.0000
  H   H3        1.0  0.08503  0.88690  0.53229  1.0000
  H   H4        1.0  0.94673  0.64519  0.53183  1.0000
  H   H5        1.0  0.98887  0.96903  0.35721  1.0000
  H   H6        1.0  0.86890  0.38781  0.35727  1.0000
  H   H7        1.0  0.01113  0.03097  0.64279  1.0000
  H   H8        1.0  0.13110  0.61218  0.64273  1.0000
  H   H9        1.0  0.65343  0.06791  0.72526  1.0000
  H   H10       1.0  0.57179  0.65706  0.72548  1.0000
  H   H11       1.0  0.34657  0.93210  0.27474  1.0000
  H   H12       1.0  0.42821  0.34294  0.27452  1.0000
  H   H13       1.0  0.17918  0.33562  0.01139  1.0000
  H   H14       1.0  0.33193  0.67637  0.01201  1.0000
  H   H15       1.0  0.82082  0.66438  0.98861  1.0000
  H   H16       1.0  0.66807  0.32363  0.98799  1.0000
  H   H17       1.0  0.99365  0.43572  0.83447  1.0000
  H   H18       1.0  0.34033  0.39913  0.83529  1.0000
  H   H19       1.0  0.00635  0.56428  0.16553  1.0000
  H   H20       1.0  0.65967  0.60087  0.16471  1.0000
  H   H21       1.0  0.87389  0.89925  0.74748  1.0000
  H   H22       1.0  0.37334  0.84791  0.74755  1.0000
  H   H23       1.0  0.12612  0.10075  0.25252  1.0000
  H   H24       1.0  0.62666  0.15208  0.25245  1.0000
  H   H25       1.0  0.93908  0.74277  0.84792  1.0000
  H   H26       1.0  0.40856  0.10482  0.84758  1.0000
  H   H27       1.0  0.06092  0.25723  0.15208  1.0000
  H   H28       1.0  0.59144  0.89518  0.15242  1.0000
  C   C1        1.0  0.21685  0.12357  0.53022  1.0000
  C   C2        1.0  0.81338  0.40674  0.53034  1.0000
  C   C3        1.0  0.78314  0.87644  0.46978  1.0000
  C   C4        1.0  0.18662  0.59326  0.46966  1.0000
  C   C5        1.0  0.01704  0.03976  0.46563  1.0000
  C   C6        1.0  0.94886  0.42583  0.46581  1.0000
  C   C7        1.0  0.98295  0.96025  0.53437  1.0000
  C   C8        1.0  0.05114  0.57417  0.53419  1.0000
  C   C9        1.0  0.77039  0.15424  0.77704  1.0000
  C   C10       1.0  0.50635  0.62270  0.77732  1.0000
  C   C11       1.0  0.22962  0.84577  0.22296  1.0000
  C   C12       1.0  0.49365  0.37729  0.22268  1.0000
  C   C13       1.0  0.04453  0.29657  0.92634  1.0000
  C   C14       1.0  0.38139  0.63012  0.92683  1.0000
  C   C15       1.0  0.95547  0.70343  0.07366  1.0000
  C   C16       1.0  0.61861  0.36988  0.07317  1.0000
  C   C17       1.0  0.95205  0.34485  0.83933  1.0000
  C   C18       1.0  0.38674  0.49472  0.83990  1.0000
  C   C19       1.0  0.04795  0.65515  0.16067  1.0000
  C   C20       1.0  0.61327  0.50527  0.16011  1.0000
  C   C21       1.0  0.96533  0.08640  0.94407  1.0000
  C   C22       1.0  0.47875  0.85772  0.94428  1.0000
  C   C23       1.0  0.03468  0.91360  0.05593  1.0000
  C   C24       1.0  0.52125  0.14228  0.05572  1.0000
  C   C25       1.0  0.92747  0.94255  0.85796  1.0000
  C   C26       1.0  0.43036  0.91528  0.85800  1.0000
  C   C27       1.0  0.07253  0.05745  0.14204  1.0000
  C   C28       1.0  0.56964  0.08472  0.14200  1.0000
  C   C29       1.0  0.96281  0.85515  0.91443  1.0000
  C   C30       1.0  0.45145  0.05911  0.91422  1.0000
  C   C31       1.0  0.03719  0.14485  0.08557  1.0000
  C   C32       1.0  0.54855  0.94088  0.08577  1.0000
  N   N1        1.0  0.78188  0.25571  0.74784  1.0000
  N   N2        1.0  0.46551  0.49210  0.74828  1.0000
  N   N3        1.0  0.21812  0.74429  0.25216  1.0000
  N   N4        1.0  0.53449  0.50790  0.25172  1.0000
  N   N5        1.0  0.92823  0.17505  0.88531  1.0000
  N   N6        1.0  0.45683  0.71035  0.88562  1.0000
  N   N7        1.0  0.07177  0.82495  0.11469  1.0000
  N   N8        1.0  0.54317  0.28965  0.11438  1.0000
  O   O1        1.0  0.26501  0.16774  0.45828  1.0000
  O   O2        1.0  0.69390  0.29040  0.45862  1.0000
  O   O3        1.0  0.73499  0.83226  0.54172  1.0000
  O   O4        1.0  0.30610  0.70960  0.54137  1.0000
  O   O5        1.0  0.32666  0.15042  0.64724  1.0000
  O   O6        1.0  0.81971  0.49725  0.64706  1.0000
  O   O7        1.0  0.67334  0.84958  0.35276  1.0000
  O   O8        1.0  0.18028  0.50274  0.35294  1.0000
