data_image0
_chemical_formula_structural       Co2H38C50N10O12
_chemical_formula_sum              "Co2 H38 C50 N10 O12"
_cell_length_a       9.64411
_cell_length_b       11.4743
_cell_length_c       11.625
_cell_angle_alpha    64.1872
_cell_angle_beta     89.8299
_cell_angle_gamma    77.4805

_space_group_name_H-M_alt    "P 1"
_space_group_IT_number       1

loop_
  _space_group_symop_operation_xyz
  'x, y, z'

loop_
  _atom_site_type_symbol
  _atom_site_label
  _atom_site_symmetry_multiplicity
  _atom_site_fract_x
  _atom_site_fract_y
  _atom_site_fract_z
  _atom_site_occupancy
  Co  Co1       1.0  0.12029  0.32423  0.12412  1.0000
  Co  Co2       1.0  0.87971  0.67577  0.87588  1.0000
  H   H1        1.0  0.95479  0.36597  0.86659  1.0000
  H   H2        1.0  0.04522  0.63403  0.13341  1.0000
  H   H3        1.0  0.19186  0.91723  0.87786  1.0000
  H   H4        1.0  0.80815  0.08276  0.12215  1.0000
  H   H5        1.0  0.39930  0.77630  0.03474  1.0000
  H   H6        1.0  0.60070  0.22369  0.96527  1.0000
  H   H7        1.0  0.49778  0.84918  0.18251  1.0000
  H   H8        1.0  0.50220  0.15081  0.81751  1.0000
  H   H9        1.0  0.38298  0.06701  0.18083  1.0000
  H   H10       1.0  0.61701  0.93298  0.81919  1.0000
  H   H11       1.0  0.86582  0.27226  0.74532  1.0000
  H   H12       1.0  0.13419  0.72774  0.25468  1.0000
  H   H13       1.0  0.90378  0.09638  0.81895  1.0000
  H   H14       1.0  0.09623  0.90361  0.18105  1.0000
  H   H15       1.0  0.05784  0.27549  0.60311  1.0000
  H   H16       1.0  0.94216  0.72452  0.39688  1.0000
  H   H17       1.0  0.11397  0.10143  0.67609  1.0000
  H   H18       1.0  0.88603  0.89858  0.32390  1.0000
  H   H19       1.0  0.81342  0.25787  0.53712  1.0000
  H   H20       1.0  0.18659  0.74213  0.46288  1.0000
  H   H21       1.0  0.95964  0.20856  0.46207  1.0000
  H   H22       1.0  0.04036  0.79144  0.53792  1.0000
  H   H23       1.0  0.00163  0.92417  0.77705  1.0000
  H   H24       1.0  0.99838  0.07583  0.22295  1.0000
  H   H25       1.0  0.68979  0.73655  0.59013  1.0000
  H   H26       1.0  0.31021  0.26345  0.40986  1.0000
  H   H27       1.0  0.54961  0.88253  0.37993  1.0000
  H   H28       1.0  0.45040  0.11747  0.62006  1.0000
  H   H29       1.0  0.56254  0.11957  0.25732  1.0000
  H   H30       1.0  0.43746  0.88044  0.74268  1.0000
  H   H31       1.0  0.71471  0.21633  0.34612  1.0000
  H   H32       1.0  0.28529  0.78369  0.65388  1.0000
  H   H33       1.0  0.37078  0.56788  0.32484  1.0000
  H   H34       1.0  0.62922  0.43212  0.67517  1.0000
  H   H35       1.0  0.81876  0.52684  0.26755  1.0000
  H   H36       1.0  0.18124  0.47315  0.73246  1.0000
  H   H37       1.0  0.55405  0.37252  0.09874  1.0000
  H   H38       1.0  0.44595  0.62749  0.90125  1.0000
  C   C1        1.0  0.03899  0.27429  0.90830  1.0000
  C   C2        1.0  0.96102  0.72570  0.09170  1.0000
  C   C3        1.0  0.16971  0.07584  0.93922  1.0000
  C   C4        1.0  0.83029  0.92415  0.06079  1.0000
  C   C5        1.0  0.23126  0.95293  0.94101  1.0000
  C   C6        1.0  0.76874  0.04706  0.05898  1.0000
  C   C7        1.0  0.34901  0.87272  0.03093  1.0000
  C   C8        1.0  0.65099  0.12727  0.96908  1.0000
  C   C9        1.0  0.40362  0.91329  0.11591  1.0000
  C   C10       1.0  0.59637  0.08670  0.88410  1.0000
  C   C11       1.0  0.34135  0.03499  0.11528  1.0000
  C   C12       1.0  0.65864  0.96501  0.88472  1.0000
  C   C13       1.0  0.22310  0.11659  0.02578  1.0000
  C   C14       1.0  0.77690  0.88341  0.97423  1.0000
  C   C15       1.0  0.95175  0.18212  0.77124  1.0000
  C   C16       1.0  0.04825  0.81787  0.22876  1.0000
  C   C17       1.0  0.01914  0.18424  0.65124  1.0000
  C   C18       1.0  0.98086  0.81576  0.34875  1.0000
  C   C19       1.0  0.91429  0.18281  0.55446  1.0000
  C   C20       1.0  0.08571  0.81719  0.44554  1.0000
  C   C21       1.0  0.92408  0.93828  0.70218  1.0000
  C   C22       1.0  0.07592  0.06171  0.29782  1.0000
  C   C23       1.0  0.77620  0.89618  0.59162  1.0000
  C   C24       1.0  0.22380  0.10383  0.40838  1.0000
  C   C25       1.0  0.69244  0.84098  0.54049  1.0000
  C   C26       1.0  0.30756  0.15902  0.45950  1.0000
  C   C27       1.0  0.61641  0.92378  0.42029  1.0000
  C   C28       1.0  0.38358  0.07623  0.57971  1.0000
  C   C29       1.0  0.62345  0.05766  0.35111  1.0000
  C   C30       1.0  0.37655  0.94235  0.64889  1.0000
  C   C31       1.0  0.70782  0.11353  0.39984  1.0000
  C   C32       1.0  0.29219  0.88648  0.60016  1.0000
  C   C33       1.0  0.78307  0.03081  0.52029  1.0000
  C   C34       1.0  0.21693  0.96919  0.47972  1.0000
  C   C35       1.0  0.44619  0.47211  0.20577  1.0000
  C   C36       1.0  0.55380  0.52789  0.79423  1.0000
  C   C37       1.0  0.46193  0.53613  0.28138  1.0000
  C   C38       1.0  0.53807  0.46387  0.71862  1.0000
  C   C39       1.0  0.59600  0.55371  0.30291  1.0000
  C   C40       1.0  0.40400  0.44629  0.69709  1.0000
  C   C41       1.0  0.71488  0.51220  0.24919  1.0000
  C   C42       1.0  0.28511  0.48779  0.75081  1.0000
  C   C43       1.0  0.69841  0.44774  0.17404  1.0000
  C   C44       1.0  0.30159  0.55226  0.82597  1.0000
  C   C45       1.0  0.56461  0.42707  0.15360  1.0000
  C   C46       1.0  0.43539  0.57293  0.84640  1.0000
  C   C47       1.0  0.30308  0.44635  0.19036  1.0000
  C   C48       1.0  0.69692  0.55366  0.80964  1.0000
  C   C49       1.0  0.82608  0.38704  0.12693  1.0000
  C   C50       1.0  0.17392  0.61297  0.87307  1.0000
  N   N1        1.0  0.13801  0.24068  0.00408  1.0000
  N   N2        1.0  0.86199  0.75932  0.99592  1.0000
  N   N3        1.0  0.05289  0.17915  0.86616  1.0000
  N   N4        1.0  0.94712  0.82084  0.13384  1.0000
  N   N5        1.0  0.86540  0.84147  0.70654  1.0000
  N   N6        1.0  0.13461  0.15854  0.29345  1.0000
  N   N7        1.0  0.87774  0.05408  0.59341  1.0000
  N   N8        1.0  0.12226  0.94592  0.40660  1.0000
  N   N9        1.0  0.61322  0.61367  0.38886  1.0000
  N   N10       1.0  0.38678  0.38633  0.61115  1.0000
  O   O1        1.0  0.29656  0.37968  0.12541  1.0000
  O   O2        1.0  0.70343  0.62033  0.87458  1.0000
  O   O3        1.0  0.20135  0.48537  0.24208  1.0000
  O   O4        1.0  0.79865  0.51465  0.75791  1.0000
  O   O5        1.0  0.93572  0.43812  0.11816  1.0000
  O   O6        1.0  0.06428  0.56188  0.88182  1.0000
  O   O7        1.0  0.82235  0.29027  0.10507  1.0000
  O   O8        1.0  0.17764  0.70974  0.89493  1.0000
  O   O9        1.0  0.50386  0.66065  0.42670  1.0000
  O   O10       1.0  0.49614  0.33935  0.57330  1.0000
  O   O11       1.0  0.73605  0.61426  0.42009  1.0000
  O   O12       1.0  0.26395  0.38573  0.57992  1.0000
