data_image0
_chemical_formula_structural       Ni4H28C12N4Cl8O8
_chemical_formula_sum              "Ni4 H28 C12 N4 Cl8 O8"
_cell_length_a       6.62015
_cell_length_b       7.59453
_cell_length_c       12.8063
_cell_angle_alpha    90.0002
_cell_angle_beta     90.0002
_cell_angle_gamma    89.9999

_space_group_name_H-M_alt    "P 1"
_space_group_IT_number       1

loop_
  _space_group_symop_operation_xyz
  'x, y, z'

loop_
  _atom_site_type_symbol
  _atom_site_label
  _atom_site_symmetry_multiplicity
  _atom_site_fract_x
  _atom_site_fract_y
  _atom_site_fract_z
  _atom_site_occupancy
  Ni  Ni1       1.0  0.65474  0.74630  0.23919  1.0000
  Ni  Ni2       1.0  0.34526  0.24630  0.76081  1.0000
  Ni  Ni3       1.0  0.15474  0.74630  0.26081  1.0000
  Ni  Ni4       1.0  0.84526  0.24630  0.73919  1.0000
  H   H1        1.0  0.98115  0.80908  0.55666  1.0000
  H   H2        1.0  0.01885  0.30908  0.44334  1.0000
  H   H3        1.0  0.48115  0.80908  0.94334  1.0000
  H   H4        1.0  0.51885  0.30907  0.05665  1.0000
  H   H5        1.0  0.81677  0.97244  0.57095  1.0000
  H   H6        1.0  0.18323  0.47244  0.42906  1.0000
  H   H7        1.0  0.31677  0.97245  0.92905  1.0000
  H   H8        1.0  0.68322  0.47244  0.07094  1.0000
  H   H9        1.0  0.80793  0.84397  0.46320  1.0000
  H   H10       1.0  0.19207  0.34397  0.53680  1.0000
  H   H11       1.0  0.30793  0.84397  0.03680  1.0000
  H   H12       1.0  0.69207  0.34397  0.96320  1.0000
  H   H13       1.0  0.37482  0.66220  0.60956  1.0000
  H   H14       1.0  0.62518  0.16221  0.39044  1.0000
  H   H15       1.0  0.87482  0.66220  0.89044  1.0000
  H   H16       1.0  0.12518  0.16220  0.10956  1.0000
  H   H17       1.0  0.42357  0.88702  0.59623  1.0000
  H   H18       1.0  0.57643  0.38703  0.40377  1.0000
  H   H19       1.0  0.92356  0.88703  0.90377  1.0000
  H   H20       1.0  0.07643  0.38702  0.09623  1.0000
  H   H21       1.0  0.71251  0.72786  0.67877  1.0000
  H   H22       1.0  0.28749  0.22786  0.32123  1.0000
  H   H23       1.0  0.21251  0.72787  0.82123  1.0000
  H   H24       1.0  0.78749  0.22787  0.17877  1.0000
  H   H25       1.0  0.73527  0.58692  0.56932  1.0000
  H   H26       1.0  0.26473  0.08692  0.43068  1.0000
  H   H27       1.0  0.23527  0.58692  0.93068  1.0000
  H   H28       1.0  0.76473  0.08692  0.06932  1.0000
  C   C1        1.0  0.42540  0.74661  0.45058  1.0000
  C   C2        1.0  0.57460  0.24661  0.54942  1.0000
  C   C3        1.0  0.92541  0.74661  0.04942  1.0000
  C   C4        1.0  0.07460  0.24662  0.95058  1.0000
  C   C5        1.0  0.47031  0.75662  0.56698  1.0000
  C   C6        1.0  0.52969  0.25662  0.43302  1.0000
  C   C7        1.0  0.97030  0.75663  0.93302  1.0000
  C   C8        1.0  0.02969  0.25662  0.06698  1.0000
  C   C9        1.0  0.69016  0.71916  0.59440  1.0000
  C   C10       1.0  0.30984  0.21916  0.40560  1.0000
  C   C11       1.0  0.19015  0.71916  0.90560  1.0000
  C   C12       1.0  0.80984  0.21916  0.09440  1.0000
  N   N1        1.0  0.83357  0.84477  0.54350  1.0000
  N   N2        1.0  0.16643  0.34477  0.45650  1.0000
  N   N3        1.0  0.33357  0.84478  0.95650  1.0000
  N   N4        1.0  0.66642  0.34477  0.04350  1.0000
  Cl  Cl1       1.0  0.41080  0.96320  0.20287  1.0000
  Cl  Cl2       1.0  0.58920  0.46320  0.79713  1.0000
  Cl  Cl3       1.0  0.91080  0.96320  0.29713  1.0000
  Cl  Cl4       1.0  0.08920  0.46320  0.70287  1.0000
  Cl  Cl5       1.0  0.39807  0.52968  0.21253  1.0000
  Cl  Cl6       1.0  0.60193  0.02968  0.78747  1.0000
  Cl  Cl7       1.0  0.89808  0.52968  0.28747  1.0000
  Cl  Cl8       1.0  0.10193  0.02968  0.71253  1.0000
  O   O1        1.0  0.57897  0.75559  0.39184  1.0000
  O   O2        1.0  0.42104  0.25560  0.60815  1.0000
  O   O3        1.0  0.07897  0.75560  0.10815  1.0000
  O   O4        1.0  0.92103  0.25559  0.89185  1.0000
  O   O5        1.0  0.24154  0.73152  0.42031  1.0000
  O   O6        1.0  0.75847  0.23152  0.57969  1.0000
  O   O7        1.0  0.74153  0.73152  0.07969  1.0000
  O   O8        1.0  0.25847  0.23152  0.92031  1.0000
