data_image0
_chemical_formula_structural       K4H60C40O32
_chemical_formula_sum              "K4 H60 C40 O32"
_cell_length_a       9.39826
_cell_length_b       11.1476
_cell_length_c       12.782
_cell_angle_alpha    90
_cell_angle_beta     90
_cell_angle_gamma    93.342

_space_group_name_H-M_alt    "P 1"
_space_group_IT_number       1

loop_
  _space_group_symop_operation_xyz
  'x, y, z'

loop_
  _atom_site_type_symbol
  _atom_site_label
  _atom_site_symmetry_multiplicity
  _atom_site_fract_x
  _atom_site_fract_y
  _atom_site_fract_z
  _atom_site_occupancy
  K   K1        1.0  0.56446  0.88182  0.58039  1.0000
  K   K2        1.0  0.93554  0.11818  0.08039  1.0000
  K   K3        1.0  0.43554  0.11818  0.41961  1.0000
  K   K4        1.0  0.06446  0.88182  0.91961  1.0000
  H   H1        1.0  0.20923  0.33557  0.45573  1.0000
  H   H2        1.0  0.29077  0.66443  0.95573  1.0000
  H   H3        1.0  0.79077  0.66443  0.54427  1.0000
  H   H4        1.0  0.70923  0.33557  0.04427  1.0000
  H   H5        1.0  0.74547  0.85819  0.79887  1.0000
  H   H6        1.0  0.75453  0.14181  0.29887  1.0000
  H   H7        1.0  0.25453  0.14181  0.20113  1.0000
  H   H8        1.0  0.24547  0.85819  0.70113  1.0000
  H   H9        1.0  0.09053  0.33209  0.91658  1.0000
  H   H10       1.0  0.40947  0.66791  0.41658  1.0000
  H   H11       1.0  0.90947  0.66791  0.08342  1.0000
  H   H12       1.0  0.59053  0.33209  0.58342  1.0000
  H   H13       1.0  0.43571  0.55575  0.86645  1.0000
  H   H14       1.0  0.06429  0.44425  0.36645  1.0000
  H   H15       1.0  0.56429  0.44425  0.13355  1.0000
  H   H16       1.0  0.93571  0.55575  0.63355  1.0000
  H   H17       1.0  0.57044  0.65824  0.81880  1.0000
  H   H18       1.0  0.92956  0.34176  0.31881  1.0000
  H   H19       1.0  0.42956  0.34176  0.18119  1.0000
  H   H20       1.0  0.07044  0.65824  0.68119  1.0000
  H   H21       1.0  0.52181  0.59521  0.63580  1.0000
  H   H22       1.0  0.97818  0.40479  0.13580  1.0000
  H   H23       1.0  0.47818  0.40478  0.36420  1.0000
  H   H24       1.0  0.02181  0.59522  0.86420  1.0000
  H   H25       1.0  0.55304  0.46909  0.71399  1.0000
  H   H26       1.0  0.94696  0.53091  0.21399  1.0000
  H   H27       1.0  0.44696  0.53091  0.28601  1.0000
  H   H28       1.0  0.05304  0.46909  0.78601  1.0000
  H   H29       1.0  0.25773  0.55202  0.65200  1.0000
  H   H30       1.0  0.24227  0.44798  0.15200  1.0000
  H   H31       1.0  0.74227  0.44798  0.34800  1.0000
  H   H32       1.0  0.75773  0.55202  0.84800  1.0000
  H   H33       1.0  0.28584  0.42759  0.73246  1.0000
  H   H34       1.0  0.21416  0.57241  0.23246  1.0000
  H   H35       1.0  0.71416  0.57241  0.26754  1.0000
  H   H36       1.0  0.78584  0.42759  0.76754  1.0000
  H   H37       1.0  0.40873  0.26156  0.79054  1.0000
  H   H38       1.0  0.09127  0.73844  0.29054  1.0000
  H   H39       1.0  0.59127  0.73844  0.20946  1.0000
  H   H40       1.0  0.90872  0.26156  0.70946  1.0000
  H   H41       1.0  0.45932  0.29258  0.91973  1.0000
  H   H42       1.0  0.04068  0.70742  0.41973  1.0000
  H   H43       1.0  0.54068  0.70742  0.08027  1.0000
  H   H44       1.0  0.95932  0.29258  0.58027  1.0000
  H   H45       1.0  0.45695  0.06675  0.95483  1.0000
  H   H46       1.0  0.04305  0.93325  0.45484  1.0000
  H   H47       1.0  0.54305  0.93325  0.04516  1.0000
  H   H48       1.0  0.95695  0.06675  0.54516  1.0000
  H   H49       1.0  0.41933  0.03994  0.82107  1.0000
  H   H50       1.0  0.08067  0.96006  0.32107  1.0000
  H   H51       1.0  0.58067  0.96006  0.17893  1.0000
  H   H52       1.0  0.91933  0.03994  0.67893  1.0000
  H   H53       1.0  0.67818  0.19270  0.90444  1.0000
  H   H54       1.0  0.82182  0.80730  0.40444  1.0000
  H   H55       1.0  0.32182  0.80730  0.09556  1.0000
  H   H56       1.0  0.17818  0.19270  0.59556  1.0000
  H   H57       1.0  0.63677  0.16775  0.77140  1.0000
  H   H58       1.0  0.86323  0.83225  0.27140  1.0000
  H   H59       1.0  0.36323  0.83225  0.22860  1.0000
  H   H60       1.0  0.13677  0.16774  0.72860  1.0000
  C   C1        1.0  0.36272  0.71326  0.79093  1.0000
  C   C2        1.0  0.13728  0.28674  0.29093  1.0000
  C   C3        1.0  0.63728  0.28674  0.20907  1.0000
  C   C4        1.0  0.86272  0.71326  0.70907  1.0000
  C   C5        1.0  0.46595  0.61362  0.79951  1.0000
  C   C6        1.0  0.03405  0.38638  0.29951  1.0000
  C   C7        1.0  0.53405  0.38638  0.20049  1.0000
  C   C8        1.0  0.96595  0.61362  0.70049  1.0000
  C   C9        1.0  0.47775  0.53896  0.69982  1.0000
  C   C10       1.0  0.02225  0.46104  0.19983  1.0000
  C   C11       1.0  0.52225  0.46104  0.30017  1.0000
  C   C12       1.0  0.97775  0.53896  0.80017  1.0000
  C   C13       1.0  0.33265  0.48230  0.66760  1.0000
  C   C14       1.0  0.16735  0.51770  0.16760  1.0000
  C   C15       1.0  0.66735  0.51770  0.33240  1.0000
  C   C16       1.0  0.83265  0.48230  0.83240  1.0000
  C   C17       1.0  0.33042  0.40152  0.57321  1.0000
  C   C18       1.0  0.16958  0.59848  0.07321  1.0000
  C   C19       1.0  0.66958  0.59848  0.42679  1.0000
  C   C20       1.0  0.83042  0.40152  0.92679  1.0000
  C   C21       1.0  0.24650  0.22281  0.90269  1.0000
  C   C22       1.0  0.25350  0.77719  0.40269  1.0000
  C   C23       1.0  0.75350  0.77719  0.09731  1.0000
  C   C24       1.0  0.74650  0.22281  0.59731  1.0000
  C   C25       1.0  0.40102  0.22485  0.87063  1.0000
  C   C26       1.0  0.09898  0.77515  0.37063  1.0000
  C   C27       1.0  0.59898  0.77515  0.12937  1.0000
  C   C28       1.0  0.90102  0.22485  0.62937  1.0000
  C   C29       1.0  0.47040  0.10478  0.87594  1.0000
  C   C30       1.0  0.02960  0.89522  0.37594  1.0000
  C   C31       1.0  0.52960  0.89522  0.12406  1.0000
  C   C32       1.0  0.97040  0.10477  0.62406  1.0000
  C   C33       1.0  0.62844  0.12709  0.84995  1.0000
  C   C34       1.0  0.87156  0.87291  0.34994  1.0000
  C   C35       1.0  0.37156  0.87291  0.15005  1.0000
  C   C36       1.0  0.12844  0.12709  0.65005  1.0000
  C   C37       1.0  0.72235  0.02208  0.84761  1.0000
  C   C38       1.0  0.77765  0.97792  0.34761  1.0000
  C   C39       1.0  0.27765  0.97792  0.15239  1.0000
  C   C40       1.0  0.22235  0.02208  0.65239  1.0000
  O   O1        1.0  0.66739  0.92342  0.80114  1.0000
  O   O2        1.0  0.83262  0.07658  0.30114  1.0000
  O   O3        1.0  0.33261  0.07658  0.19886  1.0000
  O   O4        1.0  0.16739  0.92342  0.69886  1.0000
  O   O5        1.0  0.35143  0.76621  0.70349  1.0000
  O   O6        1.0  0.14857  0.23379  0.20349  1.0000
  O   O7        1.0  0.64857  0.23379  0.29651  1.0000
  O   O8        1.0  0.85143  0.76621  0.79651  1.0000
  O   O9        1.0  0.29101  0.74144  0.87170  1.0000
  O   O10       1.0  0.20899  0.25856  0.37171  1.0000
  O   O11       1.0  0.70899  0.25856  0.12830  1.0000
  O   O12       1.0  0.79101  0.74144  0.62829  1.0000
  O   O13       1.0  0.20870  0.39664  0.52288  1.0000
  O   O14       1.0  0.29130  0.60336  0.02288  1.0000
  O   O15       1.0  0.79130  0.60336  0.47712  1.0000
  O   O16       1.0  0.70870  0.39664  0.97712  1.0000
  O   O17       1.0  0.43186  0.34047  0.54588  1.0000
  O   O18       1.0  0.06814  0.65953  0.04588  1.0000
  O   O19       1.0  0.56814  0.65953  0.45412  1.0000
  O   O20       1.0  0.93186  0.34047  0.95411  1.0000
  O   O21       1.0  0.19589  0.33235  0.89666  1.0000
  O   O22       1.0  0.30411  0.66765  0.39666  1.0000
  O   O23       1.0  0.80411  0.66765  0.10334  1.0000
  O   O24       1.0  0.69589  0.33235  0.60334  1.0000
  O   O25       1.0  0.17455  0.13223  0.92997  1.0000
  O   O26       1.0  0.32545  0.86777  0.42997  1.0000
  O   O27       1.0  0.82545  0.86777  0.07003  1.0000
  O   O28       1.0  0.67455  0.13223  0.57003  1.0000
  O   O29       1.0  0.84521  0.03122  0.88297  1.0000
  O   O30       1.0  0.65479  0.96878  0.38297  1.0000
  O   O31       1.0  0.15479  0.96878  0.11703  1.0000
  O   O32       1.0  0.34521  0.03122  0.61703  1.0000
