data_image0
_chemical_formula_structural       Bi4H40C52S4O12F12
_chemical_formula_sum              "Bi4 H40 C52 S4 O12 F12"
_cell_length_a       8.43866
_cell_length_b       8.98683
_cell_length_c       18.95
_cell_angle_alpha    90
_cell_angle_beta     90
_cell_angle_gamma    90

_space_group_name_H-M_alt    "P 1"
_space_group_IT_number       1

loop_
  _space_group_symop_operation_xyz
  'x, y, z'

loop_
  _atom_site_type_symbol
  _atom_site_label
  _atom_site_symmetry_multiplicity
  _atom_site_fract_x
  _atom_site_fract_y
  _atom_site_fract_z
  _atom_site_occupancy
  Bi  Bi1       1.0  0.41611  0.44676  0.53148  1.0000
  Bi  Bi2       1.0  0.58389  0.94676  0.46852  1.0000
  Bi  Bi3       1.0  0.08389  0.94676  0.03148  1.0000
  Bi  Bi4       1.0  0.91611  0.44677  0.96853  1.0000
  H   H1        1.0  0.06681  0.10029  0.76395  1.0000
  H   H2        1.0  0.93319  0.60028  0.23605  1.0000
  H   H3        1.0  0.43318  0.60028  0.26395  1.0000
  H   H4        1.0  0.56682  0.10028  0.73605  1.0000
  H   H5        1.0  0.87376  0.10075  0.64240  1.0000
  H   H6        1.0  0.12624  0.60076  0.35760  1.0000
  H   H7        1.0  0.62624  0.60076  0.14240  1.0000
  H   H8        1.0  0.37376  0.10076  0.85760  1.0000
  H   H9        1.0  0.26433  0.96813  0.68965  1.0000
  H   H10       1.0  0.73566  0.46813  0.31035  1.0000
  H   H11       1.0  0.23566  0.46813  0.18964  1.0000
  H   H12       1.0  0.76434  0.96813  0.81036  1.0000
  H   H13       1.0  0.71262  0.37944  0.42753  1.0000
  H   H14       1.0  0.28738  0.87944  0.57247  1.0000
  H   H15       1.0  0.78738  0.87944  0.92753  1.0000
  H   H16       1.0  0.21262  0.37944  0.07247  1.0000
  H   H17       1.0  0.01686  0.37133  0.74511  1.0000
  H   H18       1.0  0.98314  0.87133  0.25489  1.0000
  H   H19       1.0  0.48313  0.87133  0.24511  1.0000
  H   H20       1.0  0.51687  0.37132  0.75489  1.0000
  H   H21       1.0  0.04309  0.09339  0.53446  1.0000
  H   H22       1.0  0.95691  0.59339  0.46554  1.0000
  H   H23       1.0  0.45692  0.59339  0.03446  1.0000
  H   H24       1.0  0.54308  0.09339  0.96554  1.0000
  H   H25       1.0  0.16057  0.50677  0.65103  1.0000
  H   H26       1.0  0.83944  0.00677  0.34897  1.0000
  H   H27       1.0  0.33943  0.00677  0.15103  1.0000
  H   H28       1.0  0.66056  0.50676  0.84897  1.0000
  H   H29       1.0  0.40990  0.10292  0.59650  1.0000
  H   H30       1.0  0.59010  0.60292  0.40350  1.0000
  H   H31       1.0  0.09010  0.60293  0.09650  1.0000
  H   H32       1.0  0.90990  0.10293  0.90350  1.0000
  H   H33       1.0  0.96259  0.23796  0.42818  1.0000
  H   H34       1.0  0.03741  0.73797  0.57182  1.0000
  H   H35       1.0  0.53741  0.73796  0.92818  1.0000
  H   H36       1.0  0.46259  0.23796  0.07181  1.0000
  H   H37       1.0  0.62727  0.24719  0.64347  1.0000
  H   H38       1.0  0.37273  0.74719  0.35653  1.0000
  H   H39       1.0  0.87273  0.74719  0.14347  1.0000
  H   H40       1.0  0.12726  0.24719  0.85653  1.0000
  C   C1        1.0  0.13113  0.16101  0.72318  1.0000
  C   C2        1.0  0.86887  0.66101  0.27682  1.0000
  C   C3        1.0  0.36886  0.66101  0.22318  1.0000
  C   C4        1.0  0.63114  0.16101  0.77682  1.0000
  C   C5        1.0  0.83856  0.16136  0.59522  1.0000
  C   C6        1.0  0.16144  0.66136  0.40478  1.0000
  C   C7        1.0  0.66144  0.66136  0.09522  1.0000
  C   C8        1.0  0.33856  0.16136  0.90478  1.0000
  C   C9        1.0  0.24082  0.08605  0.68103  1.0000
  C   C10       1.0  0.75918  0.58605  0.31897  1.0000
  C   C11       1.0  0.25918  0.58605  0.18102  1.0000
  C   C12       1.0  0.74082  0.08605  0.81898  1.0000
  C   C13       1.0  0.74646  0.31916  0.47511  1.0000
  C   C14       1.0  0.25355  0.81916  0.52489  1.0000
  C   C15       1.0  0.75355  0.81916  0.97511  1.0000
  C   C16       1.0  0.24645  0.31915  0.02489  1.0000
  C   C17       1.0  0.10313  0.31266  0.71246  1.0000
  C   C18       1.0  0.89687  0.81266  0.28754  1.0000
  C   C19       1.0  0.39687  0.81266  0.21246  1.0000
  C   C20       1.0  0.60313  0.31266  0.78754  1.0000
  C   C21       1.0  0.93346  0.15749  0.53483  1.0000
  C   C22       1.0  0.06654  0.65749  0.46517  1.0000
  C   C23       1.0  0.56654  0.65749  0.03483  1.0000
  C   C24       1.0  0.43345  0.15749  0.96517  1.0000
  C   C25       1.0  0.64934  0.32140  0.53531  1.0000
  C   C26       1.0  0.35066  0.82140  0.46469  1.0000
  C   C27       1.0  0.85066  0.82140  0.03531  1.0000
  C   C28       1.0  0.14934  0.32140  0.96469  1.0000
  C   C29       1.0  0.18420  0.38874  0.65924  1.0000
  C   C30       1.0  0.81580  0.88874  0.34076  1.0000
  C   C31       1.0  0.31579  0.88874  0.15924  1.0000
  C   C32       1.0  0.68420  0.38874  0.84076  1.0000
  C   C33       1.0  0.32275  0.16255  0.62814  1.0000
  C   C34       1.0  0.67725  0.66255  0.37186  1.0000
  C   C35       1.0  0.17725  0.66255  0.12814  1.0000
  C   C36       1.0  0.82275  0.16255  0.87186  1.0000
  C   C37       1.0  0.29514  0.31425  0.61699  1.0000
  C   C38       1.0  0.70487  0.81425  0.38301  1.0000
  C   C39       1.0  0.20486  0.81425  0.11699  1.0000
  C   C40       1.0  0.79513  0.31425  0.88301  1.0000
  C   C41       1.0  0.88793  0.23796  0.47503  1.0000
  C   C42       1.0  0.11207  0.73796  0.52497  1.0000
  C   C43       1.0  0.61207  0.73796  0.97503  1.0000
  C   C44       1.0  0.38793  0.23795  0.02497  1.0000
  C   C45       1.0  0.21905  0.19823  0.31899  1.0000
  C   C46       1.0  0.78096  0.69823  0.68101  1.0000
  C   C47       1.0  0.28095  0.69823  0.81899  1.0000
  C   C48       1.0  0.71904  0.19823  0.18101  1.0000
  C   C49       1.0  0.69836  0.24407  0.59561  1.0000
  C   C50       1.0  0.30164  0.74407  0.40439  1.0000
  C   C51       1.0  0.80164  0.74407  0.09561  1.0000
  C   C52       1.0  0.19836  0.24407  0.90439  1.0000
  S   S1        1.0  0.39387  0.23424  0.37699  1.0000
  S   S2        1.0  0.60614  0.73424  0.62301  1.0000
  S   S3        1.0  0.10613  0.73425  0.87699  1.0000
  S   S4        1.0  0.89386  0.23424  0.12301  1.0000
  O   O1        1.0  0.32491  0.24472  0.44872  1.0000
  O   O2        1.0  0.67509  0.74472  0.55128  1.0000
  O   O3        1.0  0.17509  0.74472  0.94872  1.0000
  O   O4        1.0  0.82491  0.24472  0.05128  1.0000
  O   O5        1.0  0.49024  0.09820  0.36783  1.0000
  O   O6        1.0  0.50977  0.59820  0.63217  1.0000
  O   O7        1.0  0.00976  0.59820  0.86783  1.0000
  O   O8        1.0  0.99024  0.09820  0.13217  1.0000
  O   O9        1.0  0.46296  0.36957  0.34983  1.0000
  O   O10       1.0  0.53705  0.86956  0.65017  1.0000
  O   O11       1.0  0.03705  0.86956  0.84983  1.0000
  O   O12       1.0  0.96295  0.36957  0.15017  1.0000
  F   F1        1.0  0.14504  0.07119  0.33784  1.0000
  F   F2        1.0  0.85496  0.57119  0.66216  1.0000
  F   F3        1.0  0.35496  0.57119  0.83784  1.0000
  F   F4        1.0  0.64504  0.07119  0.16216  1.0000
  F   F5        1.0  0.26774  0.18709  0.25132  1.0000
  F   F6        1.0  0.73227  0.68709  0.74868  1.0000
  F   F7        1.0  0.23226  0.68709  0.75132  1.0000
  F   F8        1.0  0.76774  0.18710  0.24868  1.0000
  F   F9        1.0  0.11486  0.31259  0.32390  1.0000
  F   F10       1.0  0.88514  0.81258  0.67610  1.0000
  F   F11       1.0  0.38514  0.81259  0.82390  1.0000
  F   F12       1.0  0.61485  0.31259  0.17610  1.0000
