data_image0
_chemical_formula_structural       Na4Cu4P4H32C8S4O32
_chemical_formula_sum              "Na4 Cu4 P4 H32 C8 S4 O32"
_cell_length_a       7.51444
_cell_length_b       7.66922
_cell_length_c       14.6084
_cell_angle_alpha    90
_cell_angle_beta     92.9028
_cell_angle_gamma    89.9999

_space_group_name_H-M_alt    "P 1"
_space_group_IT_number       1

loop_
  _space_group_symop_operation_xyz
  'x, y, z'

loop_
  _atom_site_type_symbol
  _atom_site_label
  _atom_site_symmetry_multiplicity
  _atom_site_fract_x
  _atom_site_fract_y
  _atom_site_fract_z
  _atom_site_occupancy
  Na  Na1       1.0  0.07041  0.68514  0.96155  1.0000
  Na  Na2       1.0  0.42959  0.18514  0.03845  1.0000
  Na  Na3       1.0  0.92959  0.31486  0.03845  1.0000
  Na  Na4       1.0  0.57041  0.81486  0.96155  1.0000
  Cu  Cu1       1.0  0.93255  0.19274  0.52739  1.0000
  Cu  Cu2       1.0  0.56745  0.69274  0.47260  1.0000
  Cu  Cu3       1.0  0.06745  0.80726  0.47260  1.0000
  Cu  Cu4       1.0  0.43255  0.30726  0.52739  1.0000
  P   P1        1.0  0.86221  0.55388  0.60694  1.0000
  P   P2        1.0  0.63779  0.05388  0.39306  1.0000
  P   P3        1.0  0.13779  0.44612  0.39306  1.0000
  P   P4        1.0  0.36221  0.94612  0.60694  1.0000
  H   H1        1.0  0.71108  0.07083  0.63052  1.0000
  H   H2        1.0  0.78892  0.57082  0.36948  1.0000
  H   H3        1.0  0.28892  0.92918  0.36948  1.0000
  H   H4        1.0  0.21107  0.42917  0.63052  1.0000
  H   H5        1.0  0.87472  0.94026  0.62215  1.0000
  H   H6        1.0  0.62528  0.44026  0.37785  1.0000
  H   H7        1.0  0.12528  0.05974  0.37785  1.0000
  H   H8        1.0  0.37472  0.55974  0.62215  1.0000
  H   H9        1.0  0.69708  0.68517  0.72223  1.0000
  H   H10       1.0  0.80292  0.18516  0.27777  1.0000
  H   H11       1.0  0.30292  0.31484  0.27778  1.0000
  H   H12       1.0  0.19708  0.81484  0.72222  1.0000
  H   H13       1.0  0.91904  0.63136  0.76311  1.0000
  H   H14       1.0  0.58096  0.13136  0.23689  1.0000
  H   H15       1.0  0.08096  0.36864  0.23689  1.0000
  H   H16       1.0  0.41904  0.86864  0.76311  1.0000
  H   H17       1.0  0.62006  0.35915  0.72553  1.0000
  H   H18       1.0  0.87994  0.85915  0.27447  1.0000
  H   H19       1.0  0.37994  0.64085  0.27447  1.0000
  H   H20       1.0  0.12006  0.14085  0.72553  1.0000
  H   H21       1.0  0.83900  0.31727  0.77452  1.0000
  H   H22       1.0  0.66100  0.81727  0.22547  1.0000
  H   H23       1.0  0.16100  0.68273  0.22547  1.0000
  H   H24       1.0  0.33900  0.18273  0.77452  1.0000
  H   H25       1.0  0.14040  0.40942  0.85545  1.0000
  H   H26       1.0  0.35960  0.90942  0.14455  1.0000
  H   H27       1.0  0.85960  0.59058  0.14455  1.0000
  H   H28       1.0  0.64040  0.09058  0.85545  1.0000
  H   H29       1.0  0.29241  0.54078  0.83525  1.0000
  H   H30       1.0  0.20760  0.04078  0.16475  1.0000
  H   H31       1.0  0.70759  0.45922  0.16475  1.0000
  H   H32       1.0  0.79241  0.95922  0.83525  1.0000
  C   C1        1.0  0.80065  0.58382  0.72373  1.0000
  C   C2        1.0  0.69935  0.08382  0.27627  1.0000
  C   C3        1.0  0.19935  0.41618  0.27627  1.0000
  C   C4        1.0  0.30065  0.91618  0.72373  1.0000
  C   C5        1.0  0.73369  0.41578  0.76547  1.0000
  C   C6        1.0  0.76631  0.91578  0.23453  1.0000
  C   C7        1.0  0.26631  0.58422  0.23453  1.0000
  C   C8        1.0  0.23369  0.08422  0.76547  1.0000
  S   S1        1.0  0.65221  0.45638  0.87616  1.0000
  S   S2        1.0  0.84779  0.95638  0.12384  1.0000
  S   S3        1.0  0.34779  0.54361  0.12384  1.0000
  S   S4        1.0  0.15221  0.04361  0.87616  1.0000
  O   O1        1.0  0.84517  0.06390  0.63631  1.0000
  O   O2        1.0  0.65482  0.56390  0.36369  1.0000
  O   O3        1.0  0.15482  0.93610  0.36369  1.0000
  O   O4        1.0  0.34517  0.43610  0.63631  1.0000
  O   O5        1.0  0.99525  0.39863  0.60334  1.0000
  O   O6        1.0  0.50475  0.89863  0.39666  1.0000
  O   O7        1.0  0.00475  0.60137  0.39666  1.0000
  O   O8        1.0  0.49525  0.10137  0.60334  1.0000
  O   O9        1.0  0.95037  0.72930  0.58240  1.0000
  O   O10       1.0  0.54963  0.22929  0.41760  1.0000
  O   O11       1.0  0.04963  0.27071  0.41760  1.0000
  O   O12       1.0  0.45037  0.77071  0.58240  1.0000
  O   O13       1.0  0.69247  0.50955  0.54679  1.0000
  O   O14       1.0  0.80753  0.00955  0.45321  1.0000
  O   O15       1.0  0.30753  0.49045  0.45321  1.0000
  O   O16       1.0  0.19247  0.99045  0.54679  1.0000
  O   O17       1.0  0.79965  0.52509  0.93634  1.0000
  O   O18       1.0  0.70035  0.02509  0.06366  1.0000
  O   O19       1.0  0.20035  0.47491  0.06366  1.0000
  O   O20       1.0  0.29965  0.97492  0.93634  1.0000
  O   O21       1.0  0.51023  0.58776  0.86285  1.0000
  O   O22       1.0  0.98977  0.08776  0.13715  1.0000
  O   O23       1.0  0.48977  0.41224  0.13715  1.0000
  O   O24       1.0  0.01023  0.91224  0.86285  1.0000
  O   O25       1.0  0.58485  0.28838  0.90976  1.0000
  O   O26       1.0  0.91515  0.78838  0.09024  1.0000
  O   O27       1.0  0.41515  0.71162  0.09024  1.0000
  O   O28       1.0  0.08485  0.21162  0.90976  1.0000
  O   O29       1.0  0.16152  0.52882  0.83382  1.0000
  O   O30       1.0  0.33848  0.02882  0.16618  1.0000
  O   O31       1.0  0.83848  0.47118  0.16618  1.0000
  O   O32       1.0  0.66153  0.97118  0.83382  1.0000
