data_image0
_chemical_formula_structural       Zn4H36C32N12O24
_chemical_formula_sum              "Zn4 H36 C32 N12 O24"
_cell_length_a       9.14457
_cell_length_b       9.28871
_cell_length_c       16.3828
_cell_angle_alpha    92.826
_cell_angle_beta     105.933
_cell_angle_gamma    117.228

_space_group_name_H-M_alt    "P 1"
_space_group_IT_number       1

loop_
  _space_group_symop_operation_xyz
  'x, y, z'

loop_
  _atom_site_type_symbol
  _atom_site_label
  _atom_site_symmetry_multiplicity
  _atom_site_fract_x
  _atom_site_fract_y
  _atom_site_fract_z
  _atom_site_occupancy
  Zn  Zn1       1.0  0.86783  0.96521  0.32306  1.0000
  Zn  Zn2       1.0  0.14965  0.54719  0.17547  1.0000
  Zn  Zn3       1.0  0.13218  0.03479  0.67694  1.0000
  Zn  Zn4       1.0  0.85034  0.45281  0.82453  1.0000
  H   H1        1.0  0.36548  0.31201  0.22067  1.0000
  H   H2        1.0  0.59696  0.15051  0.27483  1.0000
  H   H3        1.0  0.63453  0.68800  0.77933  1.0000
  H   H4        1.0  0.40303  0.84947  0.72517  1.0000
  H   H5        1.0  0.40971  0.23632  0.31657  1.0000
  H   H6        1.0  0.41743  0.09027  0.17864  1.0000
  H   H7        1.0  0.59029  0.76369  0.68343  1.0000
  H   H8        1.0  0.58256  0.90972  0.82136  1.0000
  H   H9        1.0  0.99028  0.71447  0.43425  1.0000
  H   H10       1.0  0.77530  0.55290  0.06643  1.0000
  H   H11       1.0  0.00973  0.28554  0.56575  1.0000
  H   H12       1.0  0.22470  0.44709  0.93358  1.0000
  H   H13       1.0  0.53479  0.61902  0.23405  1.0000
  H   H14       1.0  0.89049  0.30094  0.25966  1.0000
  H   H15       1.0  0.46522  0.38097  0.76595  1.0000
  H   H16       1.0  0.10951  0.69905  0.74035  1.0000
  H   H17       1.0  0.81750  0.10191  0.05092  1.0000
  H   H18       1.0  0.55606  0.76081  0.45003  1.0000
  H   H19       1.0  0.18249  0.89810  0.94907  1.0000
  H   H20       1.0  0.44395  0.23920  0.54998  1.0000
  H   H21       1.0  0.77148  0.97584  0.46407  1.0000
  H   H22       1.0  0.02176  0.30487  0.03641  1.0000
  H   H23       1.0  0.22852  0.02415  0.53593  1.0000
  H   H24       1.0  0.97823  0.69514  0.96359  1.0000
  H   H25       1.0  0.76977  0.12242  0.41961  1.0000
  H   H26       1.0  0.21962  0.35609  0.08121  1.0000
  H   H27       1.0  0.23024  0.87758  0.58039  1.0000
  H   H28       1.0  0.78037  0.64391  0.91879  1.0000
  H   H29       1.0  0.07449  0.10590  0.23225  1.0000
  H   H30       1.0  0.38559  0.84524  0.27489  1.0000
  H   H31       1.0  0.92551  0.89410  0.76775  1.0000
  H   H32       1.0  0.61439  0.15475  0.72511  1.0000
  H   H33       1.0  0.95011  0.91577  0.19364  1.0000
  H   H34       1.0  0.22646  0.75275  0.30781  1.0000
  H   H35       1.0  0.04989  0.08424  0.80635  1.0000
  H   H36       1.0  0.77354  0.24725  0.69220  1.0000
  C   C1        1.0  0.46560  0.29824  0.26870  1.0000
  C   C2        1.0  0.52918  0.19680  0.22691  1.0000
  C   C3        1.0  0.53440  0.70176  0.73130  1.0000
  C   C4        1.0  0.47082  0.80320  0.77309  1.0000
  C   C5        1.0  0.85921  0.65116  0.38783  1.0000
  C   C6        1.0  0.76028  0.46934  0.11116  1.0000
  C   C7        1.0  0.14080  0.34885  0.61217  1.0000
  C   C8        1.0  0.23971  0.53065  0.88884  1.0000
  C   C9        1.0  0.62919  0.60622  0.28568  1.0000
  C   C10       1.0  0.82333  0.34344  0.20975  1.0000
  C   C11       1.0  0.37082  0.39378  0.71431  1.0000
  C   C12       1.0  0.17667  0.65655  0.79026  1.0000
  C   C13       1.0  0.57362  0.93702  0.06577  1.0000
  C   C14       1.0  0.36905  0.50565  0.43283  1.0000
  C   C15       1.0  0.42637  0.06299  0.93423  1.0000
  C   C16       1.0  0.63096  0.49435  0.56717  1.0000
  C   C17       1.0  0.39256  0.87716  0.03646  1.0000
  C   C18       1.0  0.33628  0.35764  0.46199  1.0000
  C   C19       1.0  0.60743  0.12284  0.96353  1.0000
  C   C20       1.0  0.66373  0.64236  0.53801  1.0000
  C   C21       1.0  0.67768  0.05734  0.02836  1.0000
  C   C22       1.0  0.53157  0.64589  0.47201  1.0000
  C   C23       1.0  0.32231  0.94266  0.97164  1.0000
  C   C24       1.0  0.46844  0.35411  0.52799  1.0000
  C   C25       1.0  0.67068  0.89004  0.13973  1.0000
  C   C26       1.0  0.24806  0.52820  0.35803  1.0000
  C   C27       1.0  0.32930  0.10997  0.86026  1.0000
  C   C28       1.0  0.75195  0.47180  0.64197  1.0000
  C   C29       1.0  0.27402  0.74471  0.07224  1.0000
  C   C30       1.0  0.16367  0.20494  0.42510  1.0000
  C   C31       1.0  0.72597  0.25530  0.92776  1.0000
  C   C32       1.0  0.83634  0.79506  0.57491  1.0000
  N   N1        1.0  0.60780  0.46428  0.31018  1.0000
  N   N2        1.0  0.65331  0.29759  0.18635  1.0000
  N   N3        1.0  0.39221  0.53572  0.68982  1.0000
  N   N4        1.0  0.34668  0.70239  0.81366  1.0000
  N   N5        1.0  0.75363  0.48984  0.37468  1.0000
  N   N6        1.0  0.61057  0.37756  0.12414  1.0000
  N   N7        1.0  0.24638  0.51017  0.62532  1.0000
  N   N8        1.0  0.38943  0.62243  0.87586  1.0000
  N   N9        1.0  0.78734  0.72797  0.33459  1.0000
  N   N10       1.0  0.89479  0.45149  0.16234  1.0000
  N   N11       1.0  0.21267  0.27203  0.66541  1.0000
  N   N12       1.0  0.10520  0.54849  0.83766  1.0000
  O   O1        1.0  0.68857  0.95583  0.21577  1.0000
  O   O2        1.0  0.23997  0.47128  0.28232  1.0000
  O   O3        1.0  0.31142  0.04415  0.78422  1.0000
  O   O4        1.0  0.76003  0.52872  0.71769  1.0000
  O   O5        1.0  0.74259  0.81000  0.12374  1.0000
  O   O6        1.0  0.18328  0.61547  0.37376  1.0000
  O   O7        1.0  0.25741  0.19002  0.87626  1.0000
  O   O8        1.0  0.81672  0.38453  0.62625  1.0000
  O   O9        1.0  0.34103  0.67569  0.12503  1.0000
  O   O10       1.0  0.03994  0.21467  0.36950  1.0000
  O   O11       1.0  0.65897  0.32431  0.87496  1.0000
  O   O12       1.0  0.96007  0.78533  0.63050  1.0000
  O   O13       1.0  0.11399  0.70380  0.05209  1.0000
  O   O14       1.0  0.14031  0.06832  0.44669  1.0000
  O   O15       1.0  0.88600  0.29621  0.94791  1.0000
  O   O16       1.0  0.85970  0.93168  0.55331  1.0000
  O   O17       1.0  0.72640  0.00362  0.40686  1.0000
  O   O18       1.0  0.11242  0.32471  0.09420  1.0000
  O   O19       1.0  0.27360  0.99638  0.59314  1.0000
  O   O20       1.0  0.88757  0.67530  0.90580  1.0000
  O   O21       1.0  0.04620  0.99756  0.24652  1.0000
  O   O22       1.0  0.25898  0.79658  0.25698  1.0000
  O   O23       1.0  0.95379  0.00244  0.75348  1.0000
  O   O24       1.0  0.74101  0.20341  0.74302  1.0000
