data_image0
_chemical_formula_structural       Cu2H10C4N10O8
_chemical_formula_sum              "Cu2 H10 C4 N10 O8"
_cell_length_a       6.37903
_cell_length_b       6.86183
_cell_length_c       7.81209
_cell_angle_alpha    71.7614
_cell_angle_beta     86.2985
_cell_angle_gamma    76.4344

_space_group_name_H-M_alt    "P 1"
_space_group_IT_number       1

loop_
  _space_group_symop_operation_xyz
  'x, y, z'

loop_
  _atom_site_type_symbol
  _atom_site_label
  _atom_site_symmetry_multiplicity
  _atom_site_fract_x
  _atom_site_fract_y
  _atom_site_fract_z
  _atom_site_occupancy
  Cu  Cu1       1.0  0.50000  0.00000  1.00000  1.0000
  Cu  Cu2       1.0  0.50000  0.50000  0.00000  1.0000
  H   H1        1.0  0.64347  0.13912  0.21153  1.0000
  H   H2        1.0  0.35653  0.86088  0.78847  1.0000
  H   H3        1.0  0.70860  0.43068  0.64415  1.0000
  H   H4        1.0  0.29140  0.56931  0.35585  1.0000
  H   H5        1.0  0.73072  0.67799  0.62261  1.0000
  H   H6        1.0  0.26928  0.32201  0.37740  1.0000
  H   H7        1.0  0.01621  0.11875  0.80588  1.0000
  H   H8        1.0  0.98380  0.88125  0.19411  1.0000
  H   H9        1.0  0.03739  0.73693  0.78245  1.0000
  H   H10       1.0  0.96259  0.26307  0.21756  1.0000
  C   C1        1.0  0.07609  0.24899  0.81834  1.0000
  C   C2        1.0  0.92392  0.75102  0.18165  1.0000
  C   C3        1.0  0.08813  0.56851  0.80595  1.0000
  C   C4        1.0  0.91186  0.43150  0.19406  1.0000
  N   N1        1.0  0.27127  0.44006  0.87884  1.0000
  N   N2        1.0  0.72873  0.55994  0.12117  1.0000
  N   N3        1.0  0.26468  0.24231  0.88556  1.0000
  N   N4        1.0  0.73532  0.75769  0.11443  1.0000
  N   N5        1.0  0.96304  0.45273  0.76603  1.0000
  N   N6        1.0  0.03696  0.54727  0.23397  1.0000
  N   N7        1.0  0.74829  0.52698  0.71008  1.0000
  N   N8        1.0  0.25172  0.47302  0.28993  1.0000
  N   N9        1.0  0.72047  0.08332  0.56419  1.0000
  N   N10       1.0  0.27952  0.91668  0.43581  1.0000
  O   O1        1.0  0.77768  0.99853  0.72815  1.0000
  O   O2        1.0  0.22231  0.00147  0.27185  1.0000
  O   O3        1.0  0.74139  0.96955  0.45978  1.0000
  O   O4        1.0  0.25860  0.03045  0.54022  1.0000
  O   O5        1.0  0.64279  0.27902  0.50389  1.0000
  O   O6        1.0  0.35721  0.72098  0.49611  1.0000
  O   O7        1.0  0.61809  0.19498  0.08004  1.0000
  O   O8        1.0  0.38190  0.80502  0.91996  1.0000
