data_image0
_chemical_formula_structural       CdH32C24S4N6O8
_chemical_formula_sum              "Cd1 H32 C24 S4 N6 O8"
_cell_length_a       8.39564
_cell_length_b       8.86774
_cell_length_c       10.7928
_cell_angle_alpha    79.2389
_cell_angle_beta     84.88
_cell_angle_gamma    81.8771

_space_group_name_H-M_alt    "P 1"
_space_group_IT_number       1

loop_
  _space_group_symop_operation_xyz
  'x, y, z'

loop_
  _atom_site_type_symbol
  _atom_site_label
  _atom_site_symmetry_multiplicity
  _atom_site_fract_x
  _atom_site_fract_y
  _atom_site_fract_z
  _atom_site_occupancy
  Cd  Cd1       1.0  1.00000  0.00000  0.50000  1.0000
  H   H1        1.0  0.97077  0.28636  0.57442  1.0000
  H   H2        1.0  0.02923  0.71364  0.42558  1.0000
  H   H3        1.0  0.89193  0.32877  0.42992  1.0000
  H   H4        1.0  0.10807  0.67123  0.57008  1.0000
  H   H5        1.0  0.16466  0.59931  0.92264  1.0000
  H   H6        1.0  0.83534  0.40069  0.07736  1.0000
  H   H7        1.0  0.07626  0.69849  0.04623  1.0000
  H   H8        1.0  0.92374  0.30151  0.95377  1.0000
  H   H9        1.0  0.28934  0.67524  0.01458  1.0000
  H   H10       1.0  0.71066  0.32477  0.98542  1.0000
  H   H11       1.0  0.17625  0.04314  0.97046  1.0000
  H   H12       1.0  0.82375  0.95686  0.02954  1.0000
  H   H13       1.0  0.52789  0.32593  0.86059  1.0000
  H   H14       1.0  0.47211  0.67407  0.13941  1.0000
  H   H15       1.0  0.80926  0.29182  0.75843  1.0000
  H   H16       1.0  0.19075  0.70819  0.24157  1.0000
  H   H17       1.0  0.61353  0.27361  0.40808  1.0000
  H   H18       1.0  0.38647  0.72639  0.59192  1.0000
  H   H19       1.0  0.33515  0.29990  0.50976  1.0000
  H   H20       1.0  0.66485  0.70010  0.49024  1.0000
  H   H21       1.0  0.90329  0.59881  0.78149  1.0000
  H   H22       1.0  0.09672  0.40119  0.21851  1.0000
  H   H23       1.0  0.69330  0.60024  0.75668  1.0000
  H   H24       1.0  0.30670  0.39976  0.24332  1.0000
  H   H25       1.0  0.75433  0.62145  0.90959  1.0000
  H   H26       1.0  0.24567  0.37855  0.09042  1.0000
  H   H27       1.0  0.51646  0.01817  0.76738  1.0000
  H   H28       1.0  0.48354  0.98183  0.23262  1.0000
  H   H29       1.0  0.52909  0.86163  0.90011  1.0000
  H   H30       1.0  0.47091  0.13837  0.09989  1.0000
  H   H31       1.0  0.48420  0.82789  0.74721  1.0000
  H   H32       1.0  0.51580  0.17211  0.25279  1.0000
  C   C1        1.0  0.17321  0.69587  0.97089  1.0000
  C   C2        1.0  0.82679  0.30413  0.02911  1.0000
  C   C3        1.0  0.15959  0.84350  0.87978  1.0000
  C   C4        1.0  0.84041  0.15650  0.12022  1.0000
  C   C5        1.0  0.16246  0.99485  0.88767  1.0000
  C   C6        1.0  0.83754  0.00515  0.11232  1.0000
  C   C7        1.0  0.13686  0.08018  0.76279  1.0000
  C   C8        1.0  0.86315  0.91982  0.23721  1.0000
  C   C9        1.0  0.41551  0.31889  0.69098  1.0000
  C   C10       1.0  0.58449  0.68111  0.30902  1.0000
  C   C11       1.0  0.54849  0.31445  0.76146  1.0000
  C   C12       1.0  0.45151  0.68555  0.23854  1.0000
  C   C13       1.0  0.70408  0.29527  0.70513  1.0000
  C   C14       1.0  0.29592  0.70473  0.29487  1.0000
  C   C15       1.0  0.72806  0.28304  0.57677  1.0000
  C   C16       1.0  0.27194  0.71696  0.42323  1.0000
  C   C17       1.0  0.59362  0.28558  0.50714  1.0000
  C   C18       1.0  0.40638  0.71442  0.49286  1.0000
  C   C19       1.0  0.43839  0.30251  0.56360  1.0000
  C   C20       1.0  0.56161  0.69749  0.43640  1.0000
  C   C21       1.0  0.77902  0.64577  0.80671  1.0000
  C   C22       1.0  0.22098  0.35423  0.19329  1.0000
  C   C23       1.0  0.55030  0.89370  0.79730  1.0000
  C   C24       1.0  0.44970  0.10630  0.20270  1.0000
  S   S1        1.0  0.21748  0.34746  0.76361  1.0000
  S   S2        1.0  0.78252  0.65254  0.23639  1.0000
  S   S3        1.0  0.76260  0.85176  0.75917  1.0000
  S   S4        1.0  0.23740  0.14824  0.24083  1.0000
  N   N1        1.0  0.11628  0.23498  0.71513  1.0000
  N   N2        1.0  0.88372  0.76502  0.28487  1.0000
  N   N3        1.0  0.88526  0.26400  0.51928  1.0000
  N   N4        1.0  0.11474  0.73600  0.48072  1.0000
  N   N5        1.0  0.12364  0.98129  0.68522  1.0000
  N   N6        1.0  0.87636  0.01871  0.31478  1.0000
  O   O1        1.0  0.23610  0.31519  0.90030  1.0000
  O   O2        1.0  0.76390  0.68481  0.09970  1.0000
  O   O3        1.0  0.14704  0.50505  0.71343  1.0000
  O   O4        1.0  0.85296  0.49495  0.28657  1.0000
  O   O5        1.0  0.78203  0.88063  0.61489  1.0000
  O   O6        1.0  0.21797  0.11937  0.38511  1.0000
  O   O7        1.0  0.13659  0.83173  0.75875  1.0000
  O   O8        1.0  0.86340  0.16827  0.24124  1.0000
