data_image0
_chemical_formula_structural       U2H10C20N4Cl4O14
_chemical_formula_sum              "U2 H10 C20 N4 Cl4 O14"
_cell_length_a       8.08016
_cell_length_b       8.56099
_cell_length_c       12.1713
_cell_angle_alpha    70.6853
_cell_angle_beta     72.23
_cell_angle_gamma    76.1234

_space_group_name_H-M_alt    "P 1"
_space_group_IT_number       1

loop_
  _space_group_symop_operation_xyz
  'x, y, z'

loop_
  _atom_site_type_symbol
  _atom_site_label
  _atom_site_symmetry_multiplicity
  _atom_site_fract_x
  _atom_site_fract_y
  _atom_site_fract_z
  _atom_site_occupancy
  U   U1        1.0  0.35624  0.33186  0.24249  1.0000
  U   U2        1.0  0.64375  0.66813  0.75752  1.0000
  H   H1        1.0  0.69666  0.09448  0.22754  1.0000
  H   H2        1.0  0.30335  0.90551  0.77245  1.0000
  H   H3        1.0  0.67140  0.12147  0.10139  1.0000
  H   H4        1.0  0.32860  0.87852  0.89861  1.0000
  H   H5        1.0  0.99895  0.01925  0.31368  1.0000
  H   H6        1.0  0.00106  0.98075  0.68631  1.0000
  H   H7        1.0  0.31494  0.87934  0.27723  1.0000
  H   H8        1.0  0.68507  0.12065  0.72276  1.0000
  H   H9        1.0  0.44804  0.80605  0.07838  1.0000
  H   H10       1.0  0.55198  0.19394  0.92161  1.0000
  C   C1        1.0  0.15562  0.39115  0.02967  1.0000
  C   C2        1.0  0.84439  0.60886  0.97035  1.0000
  C   C3        1.0  0.96822  0.50173  0.89094  1.0000
  C   C4        1.0  0.03179  0.49828  0.10907  1.0000
  C   C5        1.0  0.12275  0.40206  0.92043  1.0000
  C   C6        1.0  0.87725  0.59796  0.07957  1.0000
  C   C7        1.0  0.37048  0.50695  0.44012  1.0000
  C   C8        1.0  0.62950  0.49306  0.55987  1.0000
  C   C9        1.0  0.45641  0.61335  0.57176  1.0000
  C   C10       1.0  0.54357  0.38666  0.42823  1.0000
  C   C11       1.0  0.33191  0.61638  0.51177  1.0000
  C   C12       1.0  0.66808  0.38364  0.48823  1.0000
  C   C13       1.0  0.05096  0.97911  0.04666  1.0000
  C   C14       1.0  0.94905  0.02089  0.95334  1.0000
  C   C15       1.0  0.06491  0.98350  0.23085  1.0000
  C   C16       1.0  0.93511  0.01650  0.76914  1.0000
  C   C17       1.0  0.23944  0.90546  0.21130  1.0000
  C   C18       1.0  0.76057  0.09454  0.78869  1.0000
  C   C19       1.0  0.31246  0.86684  0.10264  1.0000
  C   C20       1.0  0.68754  0.13316  0.89735  1.0000
  N   N1        1.0  0.97046  0.02082  0.14951  1.0000
  N   N2        1.0  0.02955  0.97918  0.85049  1.0000
  N   N3        1.0  0.21833  0.90296  0.02124  1.0000
  N   N4        1.0  0.78168  0.09703  0.97875  1.0000
  Cl  Cl1       1.0  0.26130  0.28874  0.82572  1.0000
  Cl  Cl2       1.0  0.73870  0.71125  0.17430  1.0000
  Cl  Cl3       1.0  0.13420  0.74623  0.52974  1.0000
  Cl  Cl4       1.0  0.86578  0.25378  0.47025  1.0000
  O   O1        1.0  0.46756  0.49897  0.13384  1.0000
  O   O2        1.0  0.53245  0.50102  0.86617  1.0000
  O   O3        1.0  0.24629  0.16367  0.35219  1.0000
  O   O4        1.0  0.75370  0.83633  0.64782  1.0000
  O   O5        1.0  0.28177  0.29668  0.07283  1.0000
  O   O6        1.0  0.71822  0.70332  0.92718  1.0000
  O   O7        1.0  0.91838  0.51158  0.79920  1.0000
  O   O8        1.0  0.08162  0.48842  0.20080  1.0000
  O   O9        1.0  0.27026  0.49756  0.38041  1.0000
  O   O10       1.0  0.72972  0.50245  0.61960  1.0000
  O   O11       1.0  0.43804  0.70573  0.63918  1.0000
  O   O12       1.0  0.56194  0.29428  0.36083  1.0000
  O   O13       1.0  0.59930  0.12463  0.18849  1.0000
  O   O14       1.0  0.40071  0.87537  0.81150  1.0000
