data_image0
_chemical_formula_structural       Gd2H12C18Cl6O18
_chemical_formula_sum              "Gd2 H12 C18 Cl6 O18"
_cell_length_a       9.80825
_cell_length_b       9.80821
_cell_length_c       10.8886
_cell_angle_alpha    94.6781
_cell_angle_beta     94.6768
_cell_angle_gamma    115.54

_space_group_name_H-M_alt    "P 1"
_space_group_IT_number       1

loop_
  _space_group_symop_operation_xyz
  'x, y, z'

loop_
  _atom_site_type_symbol
  _atom_site_label
  _atom_site_symmetry_multiplicity
  _atom_site_fract_x
  _atom_site_fract_y
  _atom_site_fract_z
  _atom_site_occupancy
  Gd  Gd1       1.0  0.78185  0.78185  0.12638  1.0000
  Gd  Gd2       1.0  0.21816  0.21815  0.87362  1.0000
  H   H1        1.0  0.57895  0.67391  0.31628  1.0000
  H   H2        1.0  0.32609  0.42105  0.68372  1.0000
  H   H3        1.0  0.42105  0.32609  0.68372  1.0000
  H   H4        1.0  0.67391  0.57895  0.31628  1.0000
  H   H5        1.0  0.51665  0.60943  0.90383  1.0000
  H   H6        1.0  0.39057  0.48335  0.09617  1.0000
  H   H7        1.0  0.48334  0.39057  0.09617  1.0000
  H   H8        1.0  0.60943  0.51665  0.90383  1.0000
  H   H9        1.0  0.10526  0.01109  0.11639  1.0000
  H   H10       1.0  0.98891  0.89474  0.88361  1.0000
  H   H11       1.0  0.89474  0.98891  0.88361  1.0000
  H   H12       1.0  0.01109  0.10526  0.11639  1.0000
  C   C1        1.0  0.88265  0.97537  0.40045  1.0000
  C   C2        1.0  0.02464  0.11735  0.59956  1.0000
  C   C3        1.0  0.11735  0.02463  0.59955  1.0000
  C   C4        1.0  0.97536  0.88266  0.40045  1.0000
  C   C5        1.0  0.91137  0.08864  0.50001  1.0000
  C   C6        1.0  0.08863  0.91137  0.49999  1.0000
  C   C7        1.0  0.62886  0.97148  0.98159  1.0000
  C   C8        1.0  0.02851  0.37114  0.01840  1.0000
  C   C9        1.0  0.37114  0.02852  0.01840  1.0000
  C   C10       1.0  0.97148  0.62886  0.98159  1.0000
  C   C11       1.0  0.51563  0.88901  0.07037  1.0000
  C   C12       1.0  0.11099  0.48438  0.92963  1.0000
  C   C13       1.0  0.48438  0.11098  0.92964  1.0000
  C   C14       1.0  0.88901  0.51562  0.07036  1.0000
  C   C15       1.0  0.39594  0.92715  0.09006  1.0000
  C   C16       1.0  0.07285  0.60405  0.90993  1.0000
  C   C17       1.0  0.60406  0.07285  0.90994  1.0000
  C   C18       1.0  0.92714  0.39594  0.09006  1.0000
  Cl  Cl1       1.0  0.80752  0.19249  0.50001  1.0000
  Cl  Cl2       1.0  0.19249  0.80751  0.49999  1.0000
  Cl  Cl3       1.0  0.27419  0.84127  0.19526  1.0000
  Cl  Cl4       1.0  0.15873  0.72580  0.80473  1.0000
  Cl  Cl5       1.0  0.72580  0.15873  0.80474  1.0000
  Cl  Cl6       1.0  0.84127  0.27419  0.19526  1.0000
  O   O1        1.0  0.78174  0.93986  0.30721  1.0000
  O   O2        1.0  0.06014  0.21826  0.69280  1.0000
  O   O3        1.0  0.21826  0.06014  0.69279  1.0000
  O   O4        1.0  0.93986  0.78173  0.30720  1.0000
  O   O5        1.0  0.74169  0.93962  0.98021  1.0000
  O   O6        1.0  0.06038  0.25831  0.01979  1.0000
  O   O7        1.0  0.25831  0.06038  0.01979  1.0000
  O   O8        1.0  0.93962  0.74169  0.98021  1.0000
  O   O9        1.0  0.53781  0.78627  0.11989  1.0000
  O   O10       1.0  0.21374  0.46219  0.88011  1.0000
  O   O11       1.0  0.46219  0.21373  0.88011  1.0000
  O   O12       1.0  0.78626  0.53781  0.11988  1.0000
  O   O13       1.0  0.60721  0.60721  0.26386  1.0000
  O   O14       1.0  0.39279  0.39279  0.73614  1.0000
  O   O15       1.0  0.61515  0.61515  0.93513  1.0000
  O   O16       1.0  0.38485  0.38485  0.06487  1.0000
  O   O17       1.0  0.01433  0.01433  0.14721  1.0000
  O   O18       1.0  0.98568  0.98568  0.85279  1.0000
