data_image0
_chemical_formula_structural       Hg4H32C40S4I8N8
_chemical_formula_sum              "Hg4 H32 C40 S4 I8 N8"
_cell_length_a       5.48534
_cell_length_b       11.9297
_cell_length_c       21.5315
_cell_angle_alpha    90
_cell_angle_beta     92.2046
_cell_angle_gamma    90

_space_group_name_H-M_alt    "P 1"
_space_group_IT_number       1

loop_
  _space_group_symop_operation_xyz
  'x, y, z'

loop_
  _atom_site_type_symbol
  _atom_site_label
  _atom_site_symmetry_multiplicity
  _atom_site_fract_x
  _atom_site_fract_y
  _atom_site_fract_z
  _atom_site_occupancy
  Hg  Hg1       1.0  0.51528  0.69820  0.63900  1.0000
  Hg  Hg2       1.0  0.48472  0.19820  0.86100  1.0000
  Hg  Hg3       1.0  0.48472  0.30180  0.36100  1.0000
  Hg  Hg4       1.0  0.51528  0.80180  0.13900  1.0000
  H   H1        1.0  0.98418  0.59935  0.56408  1.0000
  H   H2        1.0  0.01582  0.09935  0.93592  1.0000
  H   H3        1.0  0.01582  0.40065  0.43592  1.0000
  H   H4        1.0  0.98418  0.90065  0.06408  1.0000
  H   H5        1.0  0.27745  0.64757  0.48236  1.0000
  H   H6        1.0  0.72255  0.14757  0.01764  1.0000
  H   H7        1.0  0.72256  0.35243  0.51764  1.0000
  H   H8        1.0  0.27744  0.85243  0.98236  1.0000
  H   H9        1.0  0.86365  0.95225  0.44863  1.0000
  H   H10       1.0  0.13635  0.45225  0.05137  1.0000
  H   H11       1.0  0.13636  0.04775  0.55137  1.0000
  H   H12       1.0  0.86365  0.54775  0.94863  1.0000
  H   H13       1.0  0.60088  0.89562  0.53668  1.0000
  H   H14       1.0  0.39912  0.39562  0.96332  1.0000
  H   H15       1.0  0.39913  0.10438  0.46331  1.0000
  H   H16       1.0  0.60087  0.60438  0.03668  1.0000
  H   H17       1.0  0.62616  0.68593  0.27100  1.0000
  H   H18       1.0  0.37383  0.18593  0.22900  1.0000
  H   H19       1.0  0.37383  0.31407  0.72900  1.0000
  H   H20       1.0  0.62617  0.81407  0.77100  1.0000
  H   H21       1.0  0.88358  0.69623  0.36776  1.0000
  H   H22       1.0  0.11642  0.19623  0.13224  1.0000
  H   H23       1.0  0.11642  0.30377  0.63224  1.0000
  H   H24       1.0  0.88359  0.80377  0.86776  1.0000
  H   H25       1.0  0.28583  0.96596  0.28336  1.0000
  H   H26       1.0  0.71417  0.46596  0.21664  1.0000
  H   H27       1.0  0.71417  0.03404  0.71664  1.0000
  H   H28       1.0  0.28584  0.53404  0.78336  1.0000
  H   H29       1.0  0.00484  0.94596  0.19015  1.0000
  H   H30       1.0  0.99516  0.44596  0.30985  1.0000
  H   H31       1.0  0.99516  0.05404  0.80985  1.0000
  H   H32       1.0  0.00484  0.55404  0.69015  1.0000
  C   C1        1.0  0.96662  0.67812  0.53843  1.0000
  C   C2        1.0  0.03337  0.17812  0.96157  1.0000
  C   C3        1.0  0.03338  0.32188  0.46157  1.0000
  C   C4        1.0  0.96663  0.82188  0.03843  1.0000
  C   C5        1.0  0.12954  0.70493  0.49251  1.0000
  C   C6        1.0  0.87047  0.20493  0.00749  1.0000
  C   C7        1.0  0.87047  0.29507  0.50749  1.0000
  C   C8        1.0  0.12954  0.79507  0.99251  1.0000
  C   C9        1.0  0.09330  0.80445  0.45924  1.0000
  C   C10       1.0  0.90670  0.30445  0.04076  1.0000
  C   C11       1.0  0.90670  0.19555  0.54076  1.0000
  C   C12       1.0  0.09330  0.69555  0.95923  1.0000
  C   C13       1.0  0.89840  0.87435  0.47397  1.0000
  C   C14       1.0  0.10160  0.37435  0.02603  1.0000
  C   C15       1.0  0.10160  0.12565  0.52603  1.0000
  C   C16       1.0  0.89839  0.62565  0.97397  1.0000
  C   C17       1.0  0.75003  0.84237  0.52181  1.0000
  C   C18       1.0  0.24997  0.34237  0.97819  1.0000
  C   C19       1.0  0.24997  0.15763  0.47819  1.0000
  C   C20       1.0  0.75003  0.65763  0.02181  1.0000
  C   C21       1.0  0.77331  0.74754  0.27565  1.0000
  C   C22       1.0  0.22669  0.24754  0.22435  1.0000
  C   C23       1.0  0.22669  0.25246  0.72435  1.0000
  C   C24       1.0  0.77331  0.75246  0.77565  1.0000
  C   C25       1.0  0.91778  0.75369  0.32981  1.0000
  C   C26       1.0  0.08222  0.25369  0.17019  1.0000
  C   C27       1.0  0.08222  0.24631  0.67019  1.0000
  C   C28       1.0  0.91778  0.74631  0.82981  1.0000
  C   C29       1.0  0.10508  0.83353  0.33398  1.0000
  C   C30       1.0  0.89492  0.33353  0.16602  1.0000
  C   C31       1.0  0.89492  0.16647  0.66602  1.0000
  C   C32       1.0  0.10508  0.66647  0.83398  1.0000
  C   C33       1.0  0.14273  0.90244  0.28240  1.0000
  C   C34       1.0  0.85727  0.40244  0.21760  1.0000
  C   C35       1.0  0.85727  0.09756  0.71760  1.0000
  C   C36       1.0  0.14273  0.59756  0.78240  1.0000
  C   C37       1.0  0.98673  0.89097  0.23024  1.0000
  C   C38       1.0  0.01327  0.39097  0.26976  1.0000
  C   C39       1.0  0.01327  0.10903  0.76976  1.0000
  C   C40       1.0  0.98673  0.60903  0.73024  1.0000
  S   S1        1.0  0.29694  0.84644  0.40112  1.0000
  S   S2        1.0  0.70306  0.34644  0.09888  1.0000
  S   S3        1.0  0.70306  0.15356  0.59888  1.0000
  S   S4        1.0  0.29694  0.65356  0.90112  1.0000
  I   I1        1.0  0.48072  0.47588  0.61239  1.0000
  I   I2        1.0  0.51928  0.97588  0.88761  1.0000
  I   I3        1.0  0.51928  0.52412  0.38761  1.0000
  I   I4        1.0  0.48072  0.02412  0.11239  1.0000
  I   I5        1.0  0.28234  0.89297  0.65965  1.0000
  I   I6        1.0  0.71766  0.39297  0.84035  1.0000
  I   I7        1.0  0.71766  0.10703  0.34035  1.0000
  I   I8        1.0  0.28234  0.60703  0.15965  1.0000
  N   N1        1.0  0.78266  0.74582  0.55306  1.0000
  N   N2        1.0  0.21735  0.24582  0.94694  1.0000
  N   N3        1.0  0.21735  0.25418  0.44694  1.0000
  N   N4        1.0  0.78265  0.75418  0.05306  1.0000
  N   N5        1.0  0.80503  0.81546  0.22683  1.0000
  N   N6        1.0  0.19497  0.31546  0.27317  1.0000
  N   N7        1.0  0.19497  0.18454  0.77317  1.0000
  N   N8        1.0  0.80504  0.68454  0.72683  1.0000
