data_image0
_chemical_formula_structural       Zn2H28C26N8Cl4O2
_chemical_formula_sum              "Zn2 H28 C26 N8 Cl4 O2"
_cell_length_a       4.60921
_cell_length_b       12.0852
_cell_length_c       13.6481
_cell_angle_alpha    107.082
_cell_angle_beta     90
_cell_angle_gamma    89.9999

_space_group_name_H-M_alt    "P 1"
_space_group_IT_number       1

loop_
  _space_group_symop_operation_xyz
  'x, y, z'

loop_
  _atom_site_type_symbol
  _atom_site_label
  _atom_site_symmetry_multiplicity
  _atom_site_fract_x
  _atom_site_fract_y
  _atom_site_fract_z
  _atom_site_occupancy
  Zn  Zn1       1.0  0.45156  0.75000  0.75000  1.0000
  Zn  Zn2       1.0  0.54844  0.25000  0.25000  1.0000
  H   H1        1.0  0.18850  0.96954  0.74280  1.0000
  H   H2        1.0  0.18850  0.53047  0.75720  1.0000
  H   H3        1.0  0.81150  0.03046  0.25720  1.0000
  H   H4        1.0  0.81150  0.46953  0.24280  1.0000
  H   H5        1.0  0.83966  0.03872  0.63231  1.0000
  H   H6        1.0  0.83966  0.46128  0.86769  1.0000
  H   H7        1.0  0.16034  0.96128  0.36769  1.0000
  H   H8        1.0  0.16034  0.53872  0.13231  1.0000
  H   H9        1.0  0.67552  0.89669  0.46603  1.0000
  H   H10       1.0  0.67551  0.60331  0.03397  1.0000
  H   H11       1.0  0.32449  0.10331  0.53397  1.0000
  H   H12       1.0  0.32448  0.39669  0.96603  1.0000
  H   H13       1.0  0.20827  0.63952  0.54067  1.0000
  H   H14       1.0  0.20827  0.86048  0.95933  1.0000
  H   H15       1.0  0.79173  0.36048  0.45933  1.0000
  H   H16       1.0  0.79173  0.13952  0.04067  1.0000
  H   H17       1.0  0.02610  0.61192  0.36005  1.0000
  H   H18       1.0  0.02610  0.88808  0.13995  1.0000
  H   H19       1.0  0.97390  0.38808  0.63995  1.0000
  H   H20       1.0  0.97390  0.11192  0.86005  1.0000
  H   H21       1.0  0.68271  0.60649  0.41403  1.0000
  H   H22       1.0  0.68271  0.89351  0.08597  1.0000
  H   H23       1.0  0.31729  0.39351  0.58597  1.0000
  H   H24       1.0  0.31729  0.10649  0.91403  1.0000
  H   H25       1.0  0.47855  0.71057  0.31119  1.0000
  H   H26       1.0  0.47855  0.78943  0.18881  1.0000
  H   H27       1.0  0.52146  0.28943  0.68881  1.0000
  H   H28       1.0  0.52146  0.21057  0.81119  1.0000
  C   C1        1.0  0.10794  0.91252  0.67083  1.0000
  C   C2        1.0  0.10793  0.58748  0.82917  1.0000
  C   C3        1.0  0.89206  0.08748  0.32917  1.0000
  C   C4        1.0  0.89206  0.41252  0.17083  1.0000
  C   C5        1.0  0.91680  0.94954  0.60835  1.0000
  C   C6        1.0  0.91679  0.55046  0.89165  1.0000
  C   C7        1.0  0.08321  0.05046  0.39165  1.0000
  C   C8        1.0  0.08320  0.44954  0.10835  1.0000
  C   C9        1.0  0.82614  0.87066  0.51683  1.0000
  C   C10       1.0  0.82614  0.62934  0.98317  1.0000
  C   C11       1.0  0.17386  0.12934  0.48317  1.0000
  C   C12       1.0  0.17386  0.37066  0.01683  1.0000
  C   C13       1.0  0.93048  0.75729  0.48940  1.0000
  C   C14       1.0  0.93048  0.74271  0.01060  1.0000
  C   C15       1.0  0.06952  0.24271  0.51060  1.0000
  C   C16       1.0  0.06952  0.25729  0.98940  1.0000
  C   C17       1.0  0.12057  0.72702  0.55701  1.0000
  C   C18       1.0  0.12057  0.77298  0.94299  1.0000
  C   C19       1.0  0.87943  0.27298  0.44299  1.0000
  C   C20       1.0  0.87943  0.22702  0.05701  1.0000
  C   C21       1.0  0.83698  0.66549  0.39313  1.0000
  C   C22       1.0  0.83698  0.83451  0.10687  1.0000
  C   C23       1.0  0.16302  0.33451  0.60687  1.0000
  C   C24       1.0  0.16303  0.16549  0.89313  1.0000
  C   C25       1.0  0.85727  0.75000  0.25000  1.0000
  C   C26       1.0  0.14273  0.25000  0.75000  1.0000
  N   N1        1.0  0.20568  0.80278  0.64571  1.0000
  N   N2        1.0  0.20568  0.69721  0.85429  1.0000
  N   N3        1.0  0.79432  0.19721  0.35429  1.0000
  N   N4        1.0  0.79432  0.30278  0.14571  1.0000
  N   N5        1.0  0.70007  0.70877  0.31636  1.0000
  N   N6        1.0  0.70007  0.79123  0.18364  1.0000
  N   N7        1.0  0.29993  0.29123  0.68364  1.0000
  N   N8        1.0  0.29993  0.20877  0.81636  1.0000
  Cl  Cl1       1.0  0.65072  0.91461  0.85086  1.0000
  Cl  Cl2       1.0  0.65072  0.58539  0.64914  1.0000
  Cl  Cl3       1.0  0.34928  0.08539  0.14914  1.0000
  Cl  Cl4       1.0  0.34928  0.41461  0.35086  1.0000
  O   O1        1.0  0.13125  0.74999  0.25000  1.0000
  O   O2        1.0  0.86875  0.24999  0.75000  1.0000
