data_image0
_chemical_formula_structural       Zn4H56C52N16Cl8O4
_chemical_formula_sum              "Zn4 H56 C52 N16 Cl8 O4"
_cell_length_a       8.97095
_cell_length_b       12.8988
_cell_length_c       18.154
_cell_angle_alpha    103.11
_cell_angle_beta     90
_cell_angle_gamma    110.35

_space_group_name_H-M_alt    "P 1"
_space_group_IT_number       1

loop_
  _space_group_symop_operation_xyz
  'x, y, z'

loop_
  _atom_site_type_symbol
  _atom_site_label
  _atom_site_symmetry_multiplicity
  _atom_site_fract_x
  _atom_site_fract_y
  _atom_site_fract_z
  _atom_site_occupancy
  Zn  Zn1       1.0  0.49575  0.75741  0.90735  1.0000
  Zn  Zn2       1.0  0.73825  0.24279  0.59266  1.0000
  Zn  Zn3       1.0  0.50426  0.24259  0.09265  1.0000
  Zn  Zn4       1.0  0.26175  0.75721  0.40734  1.0000
  H   H1        1.0  0.40008  0.53199  0.94215  1.0000
  H   H2        1.0  0.86785  0.46811  0.55768  1.0000
  H   H3        1.0  0.59993  0.46800  0.05785  1.0000
  H   H4        1.0  0.13212  0.53190  0.44232  1.0000
  H   H5        1.0  0.28808  0.44145  0.04972  1.0000
  H   H6        1.0  0.84594  0.55843  0.45009  1.0000
  H   H7        1.0  0.71192  0.55855  0.95028  1.0000
  H   H8        1.0  0.15403  0.44158  0.54992  1.0000
  H   H9        1.0  0.24929  0.56621  0.16981  1.0000
  H   H10       1.0  0.68243  0.43344  0.33001  1.0000
  H   H11       1.0  0.75070  0.43379  0.83019  1.0000
  H   H12       1.0  0.31755  0.56657  0.67000  1.0000
  H   H13       1.0  0.43615  0.85229  0.06833  1.0000
  H   H14       1.0  0.58396  0.14759  0.43166  1.0000
  H   H15       1.0  0.56385  0.14770  0.93166  1.0000
  H   H16       1.0  0.41606  0.85241  0.56834  1.0000
  H   H17       1.0  0.20118  0.81227  0.18982  1.0000
  H   H18       1.0  0.38867  0.18730  0.31018  1.0000
  H   H19       1.0  0.79882  0.18773  0.81018  1.0000
  H   H20       1.0  0.61134  0.81271  0.68981  1.0000
  H   H21       1.0  0.28677  0.74774  0.24453  1.0000
  H   H22       1.0  0.53866  0.25166  0.25535  1.0000
  H   H23       1.0  0.71322  0.25227  0.75546  1.0000
  H   H24       1.0  0.46136  0.74834  0.74465  1.0000
  H   H25       1.0  0.55462  0.90859  0.22808  1.0000
  H   H26       1.0  0.64579  0.09093  0.27201  1.0000
  H   H27       1.0  0.44536  0.09140  0.77192  1.0000
  H   H28       1.0  0.35421  0.90906  0.72799  1.0000
  H   H29       1.0  0.34069  0.92795  0.91496  1.0000
  H   H30       1.0  0.41259  0.07238  0.58519  1.0000
  H   H31       1.0  0.65931  0.07205  0.08504  1.0000
  H   H32       1.0  0.58741  0.92762  0.41481  1.0000
  H   H33       1.0  0.86930  0.75266  0.79870  1.0000
  H   H34       1.0  0.11674  0.24791  0.70137  1.0000
  H   H35       1.0  0.13071  0.24733  0.20131  1.0000
  H   H36       1.0  0.88327  0.75209  0.29863  1.0000
  H   H37       1.0  0.93494  0.57407  0.76729  1.0000
  H   H38       1.0  0.36095  0.42654  0.73251  1.0000
  H   H39       1.0  0.06507  0.42593  0.23271  1.0000
  H   H40       1.0  0.63905  0.57347  0.26747  1.0000
  H   H41       1.0  0.20262  0.58271  0.81350  1.0000
  H   H42       1.0  0.61994  0.41778  0.68627  1.0000
  H   H43       1.0  0.79739  0.41729  0.18650  1.0000
  H   H44       1.0  0.38005  0.58223  0.31371  1.0000
  H   H45       1.0  0.98074  0.96270  0.91923  1.0000
  H   H46       1.0  0.01803  0.03756  0.58104  1.0000
  H   H47       1.0  0.01926  0.03729  0.08078  1.0000
  H   H48       1.0  0.98197  0.96243  0.41896  1.0000
  H   H49       1.0  0.18070  0.03628  0.90289  1.0000
  H   H50       1.0  0.14462  0.96417  0.59741  1.0000
  H   H51       1.0  0.81930  0.96372  0.09712  1.0000
  H   H52       1.0  0.85539  0.03583  0.40260  1.0000
  H   H53       1.0  0.88992  0.98566  0.80828  1.0000
  H   H54       1.0  0.90440  0.01467  0.69201  1.0000
  H   H55       1.0  0.11008  0.01434  0.19173  1.0000
  H   H56       1.0  0.09561  0.98533  0.30800  1.0000
  C   C1        1.0  0.37978  0.58145  0.99591  1.0000
  C   C2        1.0  0.79802  0.41856  0.50396  1.0000
  C   C3        1.0  0.62022  0.41855  0.00408  1.0000
  C   C4        1.0  0.20196  0.58144  0.49604  1.0000
  C   C5        1.0  0.31718  0.53229  0.05507  1.0000
  C   C6        1.0  0.78436  0.46759  0.44477  1.0000
  C   C7        1.0  0.68282  0.46771  0.94493  1.0000
  C   C8        1.0  0.21562  0.53242  0.55523  1.0000
  C   C9        1.0  0.29651  0.60197  0.12203  1.0000
  C   C10       1.0  0.69405  0.39778  0.37782  1.0000
  C   C11       1.0  0.70348  0.39803  0.87796  1.0000
  C   C12       1.0  0.30593  0.60223  0.62218  1.0000
  C   C13       1.0  0.33748  0.71881  0.12839  1.0000
  C   C14       1.0  0.61845  0.28092  0.37151  1.0000
  C   C15       1.0  0.66252  0.28119  0.87161  1.0000
  C   C16       1.0  0.38155  0.71909  0.62849  1.0000
  C   C17       1.0  0.40107  0.76162  0.06647  1.0000
  C   C18       1.0  0.63939  0.23826  0.43349  1.0000
  C   C19       1.0  0.59892  0.23837  0.93353  1.0000
  C   C20       1.0  0.36061  0.76175  0.56651  1.0000
  C   C21       1.0  0.31004  0.79432  0.19934  1.0000
  C   C22       1.0  0.51548  0.20524  0.30062  1.0000
  C   C23       1.0  0.68995  0.20568  0.80065  1.0000
  C   C24       1.0  0.48452  0.79476  0.69937  1.0000
  C   C25       1.0  0.40612  0.99977  0.25002  1.0000
  C   C26       1.0  0.59386  0.00023  0.74998  1.0000
  C   C27       1.0  0.24630  0.85168  0.88238  1.0000
  C   C28       1.0  0.39458  0.14874  0.61771  1.0000
  C   C29       1.0  0.75371  0.14832  0.11763  1.0000
  C   C30       1.0  0.60542  0.85125  0.38229  1.0000
  C   C31       1.0  0.10033  0.85531  0.85916  1.0000
  C   C32       1.0  0.24503  0.14515  0.64098  1.0000
  C   C33       1.0  0.89967  0.14469  0.14085  1.0000
  C   C34       1.0  0.75498  0.85484  0.35902  1.0000
  C   C35       1.0  0.98540  0.75388  0.81770  1.0000
  C   C36       1.0  0.23158  0.24666  0.68233  1.0000
  C   C37       1.0  0.01460  0.24611  0.18231  1.0000
  C   C38       1.0  0.76842  0.75334  0.31766  1.0000
  C   C39       1.0  0.02014  0.65424  0.80074  1.0000
  C   C40       1.0  0.36595  0.34632  0.69914  1.0000
  C   C41       1.0  0.97987  0.34576  0.19927  1.0000
  C   C42       1.0  0.63404  0.65368  0.30085  1.0000
  C   C43       1.0  0.16876  0.65798  0.82589  1.0000
  C   C44       1.0  0.51080  0.34253  0.67397  1.0000
  C   C45       1.0  0.83125  0.34203  0.17412  1.0000
  C   C46       1.0  0.48920  0.65747  0.32602  1.0000
  C   C47       1.0  0.06967  0.96612  0.87724  1.0000
  C   C48       1.0  0.10364  0.03429  0.62302  1.0000
  C   C49       1.0  0.93033  0.03388  0.12277  1.0000
  C   C50       1.0  0.89637  0.96570  0.37698  1.0000
  C   C51       1.0  0.09008  0.00029  0.75015  1.0000
  C   C52       1.0  0.90994  0.99971  0.24986  1.0000
  N   N1        1.0  0.42164  0.69431  0.00187  1.0000
  N   N2        1.0  0.72725  0.30568  0.49806  1.0000
  N   N3        1.0  0.57836  0.30569  0.99813  1.0000
  N   N4        1.0  0.27274  0.69432  0.50194  1.0000
  N   N5        1.0  0.43826  0.90314  0.22244  1.0000
  N   N6        1.0  0.53488  0.09639  0.27766  1.0000
  N   N7        1.0  0.56175  0.09686  0.77756  1.0000
  N   N8        1.0  0.46513  0.90361  0.72234  1.0000
  N   N9        1.0  0.27979  0.75532  0.86625  1.0000
  N   N10       1.0  0.52440  0.24510  0.63371  1.0000
  N   N11       1.0  0.72023  0.24468  0.13376  1.0000
  N   N12       1.0  0.47559  0.75490  0.36628  1.0000
  N   N13       1.0  0.00492  0.98770  0.81159  1.0000
  N   N14       1.0  0.01741  0.01273  0.68869  1.0000
  N   N15       1.0  0.99507  0.01229  0.18842  1.0000
  N   N16       1.0  0.98259  0.98727  0.31131  1.0000
  Cl  Cl1       1.0  0.66525  0.93630  0.93906  1.0000
  Cl  Cl2       1.0  0.72893  0.06391  0.56096  1.0000
  Cl  Cl3       1.0  0.33476  0.06370  0.06095  1.0000
  Cl  Cl4       1.0  0.27107  0.93609  0.43904  1.0000
  Cl  Cl5       1.0  0.55513  0.61960  0.82663  1.0000
  Cl  Cl6       1.0  0.93539  0.38075  0.67335  1.0000
  Cl  Cl7       1.0  0.44487  0.38040  0.17337  1.0000
  Cl  Cl8       1.0  0.06460  0.61924  0.32664  1.0000
  O   O1        1.0  0.26622  0.99979  0.24995  1.0000
  O   O2        1.0  0.73380  0.00022  0.75005  1.0000
  O   O3        1.0  0.23088  0.00036  0.75017  1.0000
  O   O4        1.0  0.76911  0.99963  0.24984  1.0000
