data_image0
_chemical_formula_structural       Co2H32C48N12O12
_chemical_formula_sum              "Co2 H32 C48 N12 O12"
_cell_length_a       6.06929
_cell_length_b       10.5945
_cell_length_c       17.4652
_cell_angle_alpha    90
_cell_angle_beta     90
_cell_angle_gamma    95.7525

_space_group_name_H-M_alt    "P 1"
_space_group_IT_number       1

loop_
  _space_group_symop_operation_xyz
  'x, y, z'

loop_
  _atom_site_type_symbol
  _atom_site_label
  _atom_site_symmetry_multiplicity
  _atom_site_fract_x
  _atom_site_fract_y
  _atom_site_fract_z
  _atom_site_occupancy
  Co  Co1       1.0  0.00000  0.50001  1.00000  1.0000
  Co  Co2       1.0  0.50000  1.00000  0.50000  1.0000
  H   H1        1.0  0.56770  0.35236  0.97778  1.0000
  H   H2        1.0  0.93229  0.14766  0.47777  1.0000
  H   H3        1.0  0.43229  0.64767  0.02223  1.0000
  H   H4        1.0  0.06772  0.85233  0.52223  1.0000
  H   H5        1.0  0.49636  0.27247  0.42431  1.0000
  H   H6        1.0  0.00364  0.22754  0.92431  1.0000
  H   H7        1.0  0.50364  0.72752  0.57569  1.0000
  H   H8        1.0  0.99635  0.77248  0.07569  1.0000
  H   H9        1.0  0.20378  0.12178  0.62378  1.0000
  H   H10       1.0  0.29624  0.37822  0.12378  1.0000
  H   H11       1.0  0.79622  0.87820  0.37622  1.0000
  H   H12       1.0  0.70381  0.62180  0.87622  1.0000
  H   H13       1.0  0.33039  0.47466  0.44327  1.0000
  H   H14       1.0  0.16959  0.02535  0.94327  1.0000
  H   H15       1.0  0.66960  0.52534  0.55673  1.0000
  H   H16       1.0  0.83038  0.97466  0.05673  1.0000
  H   H17       1.0  0.10676  0.50499  0.56213  1.0000
  H   H18       1.0  0.39323  0.99500  0.06212  1.0000
  H   H19       1.0  0.89322  0.49499  0.43787  1.0000
  H   H20       1.0  0.60675  0.00501  0.93787  1.0000
  H   H21       1.0  0.55644  0.28022  0.73425  1.0000
  H   H22       1.0  0.94355  0.21979  0.23424  1.0000
  H   H23       1.0  0.44355  0.71978  0.26576  1.0000
  H   H24       1.0  0.05646  0.78022  0.76575  1.0000
  H   H25       1.0  0.37514  0.24996  0.86191  1.0000
  H   H26       1.0  0.12484  0.25005  0.36190  1.0000
  H   H27       1.0  0.62483  0.75005  0.13810  1.0000
  H   H28       1.0  0.87517  0.74995  0.63809  1.0000
  H   H29       1.0  0.97905  0.23028  0.69541  1.0000
  H   H30       1.0  0.52095  0.26971  0.19541  1.0000
  H   H31       1.0  0.02094  0.76970  0.30459  1.0000
  H   H32       1.0  0.47906  0.73030  0.80458  1.0000
  C   C1        1.0  0.94223  0.44583  0.84679  1.0000
  C   C2        1.0  0.55778  0.05417  0.34680  1.0000
  C   C3        1.0  0.05778  0.55417  0.15321  1.0000
  C   C4        1.0  0.44222  0.94583  0.65321  1.0000
  C   C5        1.0  0.16575  0.52242  0.85300  1.0000
  C   C6        1.0  0.33426  0.97758  0.35301  1.0000
  C   C7        1.0  0.83426  0.47758  0.14699  1.0000
  C   C8        1.0  0.66575  0.02242  0.64699  1.0000
  C   C9        1.0  0.84091  0.39515  0.78006  1.0000
  C   C10       1.0  0.65909  0.10484  0.28006  1.0000
  C   C11       1.0  0.15908  0.60483  0.21994  1.0000
  C   C12       1.0  0.34093  0.89516  0.71994  1.0000
  C   C13       1.0  0.23480  0.20224  0.58510  1.0000
  C   C14       1.0  0.26521  0.29775  0.08510  1.0000
  C   C15       1.0  0.76519  0.79774  0.41490  1.0000
  C   C16       1.0  0.73483  0.70226  0.91490  1.0000
  C   C17       1.0  0.93950  0.42093  0.70223  1.0000
  C   C18       1.0  0.56048  0.07906  0.20223  1.0000
  C   C19       1.0  0.06047  0.57905  0.29777  1.0000
  C   C20       1.0  0.43952  0.92095  0.79777  1.0000
  C   C21       1.0  0.63924  0.36030  0.92069  1.0000
  C   C22       1.0  0.86076  0.13972  0.42068  1.0000
  C   C23       1.0  0.36074  0.63971  0.07932  1.0000
  C   C24       1.0  0.13926  0.86028  0.57931  1.0000
  C   C25       1.0  0.14111  0.31491  0.60201  1.0000
  C   C26       1.0  0.35888  0.18508  0.10201  1.0000
  C   C27       1.0  0.85888  0.68507  0.39799  1.0000
  C   C28       1.0  0.64113  0.81493  0.89799  1.0000
  C   C29       1.0  0.17665  0.41660  0.55066  1.0000
  C   C30       1.0  0.32334  0.08339  0.05066  1.0000
  C   C31       1.0  0.82335  0.58339  0.44934  1.0000
  C   C32       1.0  0.67664  0.91661  0.94934  1.0000
  C   C33       1.0  0.53395  0.30606  0.85639  1.0000
  C   C34       1.0  0.96604  0.19395  0.35638  1.0000
  C   C35       1.0  0.46603  0.69393  0.14362  1.0000
  C   C36       1.0  0.03397  0.80606  0.64361  1.0000
  C   C37       1.0  0.39341  0.28576  0.47415  1.0000
  C   C38       1.0  0.10657  0.21424  0.97415  1.0000
  C   C39       1.0  0.60657  0.71423  0.52585  1.0000
  C   C40       1.0  0.89343  0.78578  0.02585  1.0000
  C   C41       1.0  0.63578  0.32266  0.78534  1.0000
  C   C42       1.0  0.86422  0.17734  0.28533  1.0000
  C   C43       1.0  0.36422  0.67733  0.21467  1.0000
  C   C44       1.0  0.13579  0.82267  0.71467  1.0000
  C   C45       1.0  0.30310  0.39967  0.48570  1.0000
  C   C46       1.0  0.19688  0.10032  0.98571  1.0000
  C   C47       1.0  0.69688  0.60031  0.51429  1.0000
  C   C48       1.0  0.80311  0.89969  0.01429  1.0000
  N   N1        1.0  0.84006  0.42688  0.91589  1.0000
  N   N2        1.0  0.65995  0.07313  0.41589  1.0000
  N   N3        1.0  0.15993  0.57312  0.08411  1.0000
  N   N4        1.0  0.34008  0.92687  0.58411  1.0000
  N   N5        1.0  0.35834  0.18748  0.52299  1.0000
  N   N6        1.0  0.14168  0.31252  0.02299  1.0000
  N   N7        1.0  0.64168  0.81251  0.47701  1.0000
  N   N8        1.0  0.85834  0.68749  0.97701  1.0000
  N   N9        1.0  0.02083  0.31714  0.66995  1.0000
  N   N10       1.0  0.47917  0.18286  0.16995  1.0000
  N   N11       1.0  0.97916  0.68285  0.33005  1.0000
  N   N12       1.0  0.52084  0.81715  0.83005  1.0000
  O   O1        1.0  0.22136  0.54987  0.92346  1.0000
  O   O2        1.0  0.27864  0.95014  0.42347  1.0000
  O   O3        1.0  0.77864  0.45015  0.07653  1.0000
  O   O4        1.0  0.72137  0.04985  0.57654  1.0000
  O   O5        1.0  0.28197  0.55448  0.79590  1.0000
  O   O6        1.0  0.21804  0.94553  0.29591  1.0000
  O   O7        1.0  0.71805  0.44552  0.20409  1.0000
  O   O8        1.0  0.78197  0.05447  0.70409  1.0000
  O   O9        1.0  0.93436  0.52503  0.67099  1.0000
  O   O10       1.0  0.56563  0.97497  0.17099  1.0000
  O   O11       1.0  0.06564  0.47496  0.32901  1.0000
  O   O12       1.0  0.43436  0.02504  0.82901  1.0000
