data_image0
_chemical_formula_structural       Hg3Te3H45C33S6N3
_chemical_formula_sum              "Hg3 Te3 H45 C33 S6 N3"
_cell_length_a       10.2923
_cell_length_b       11.099
_cell_length_c       11.0983
_cell_angle_alpha    119.998
_cell_angle_beta     90.0012
_cell_angle_gamma    89.9755

_space_group_name_H-M_alt    "P 1"
_space_group_IT_number       1

loop_
  _space_group_symop_operation_xyz
  'x, y, z'

loop_
  _atom_site_type_symbol
  _atom_site_label
  _atom_site_symmetry_multiplicity
  _atom_site_fract_x
  _atom_site_fract_y
  _atom_site_fract_z
  _atom_site_occupancy
  Hg  Hg1       1.0  0.32991  0.06094  0.99413  1.0000
  Hg  Hg2       1.0  0.99688  0.00546  0.06677  1.0000
  Hg  Hg3       1.0  0.66347  0.93313  0.93898  1.0000
  Te  Te1       1.0  0.48929  0.98915  0.15611  1.0000
  Te  Te2       1.0  0.15620  0.84342  0.83276  1.0000
  Te  Te3       1.0  0.82291  0.16684  0.01080  1.0000
  H   H1        1.0  0.27443  0.52786  0.34238  1.0000
  H   H2        1.0  0.94110  0.65731  0.18539  1.0000
  H   H3        1.0  0.60786  0.81464  0.47202  1.0000
  H   H4        1.0  0.24234  0.61690  0.52490  1.0000
  H   H5        1.0  0.90895  0.47484  0.09195  1.0000
  H   H6        1.0  0.57555  0.90810  0.38303  1.0000
  H   H7        1.0  0.10519  0.71333  0.40536  1.0000
  H   H8        1.0  0.77160  0.59470  0.30787  1.0000
  H   H9        1.0  0.43851  0.69218  0.28682  1.0000
  H   H10       1.0  0.00397  0.63113  0.47233  1.0000
  H   H11       1.0  0.67054  0.52774  0.15857  1.0000
  H   H12       1.0  0.33728  0.84137  0.36910  1.0000
  H   H13       1.0  0.04262  0.54343  0.29175  1.0000
  H   H14       1.0  0.70925  0.70827  0.25135  1.0000
  H   H15       1.0  0.37602  0.74853  0.45682  1.0000
  H   H16       1.0  0.06279  0.34294  0.52431  1.0000
  H   H17       1.0  0.72958  0.47556  0.81848  1.0000
  H   H18       1.0  0.39591  0.18142  0.65719  1.0000
  H   H19       1.0  0.08693  0.52669  0.61072  1.0000
  H   H20       1.0  0.75378  0.38911  0.91582  1.0000
  H   H21       1.0  0.42011  0.08413  0.47339  1.0000
  H   H22       1.0  0.22202  0.41563  0.71873  1.0000
  H   H23       1.0  0.88904  0.28128  0.69680  1.0000
  H   H24       1.0  0.55508  0.30322  0.58448  1.0000
  H   H25       1.0  0.32281  0.49320  0.64703  1.0000
  H   H26       1.0  0.98975  0.35298  0.84619  1.0000
  H   H27       1.0  0.65599  0.15397  0.50687  1.0000
  H   H28       1.0  0.29913  0.30931  0.55504  1.0000
  H   H29       1.0  0.96591  0.44505  0.75435  1.0000
  H   H30       1.0  0.63218  0.24581  0.69077  1.0000
  H   H31       1.0  0.49395  0.44299  0.91575  1.0000
  H   H32       1.0  0.16063  0.08427  0.52737  1.0000
  H   H33       1.0  0.82733  0.47278  0.55690  1.0000
  H   H34       1.0  0.26052  0.41989  0.95649  1.0000
  H   H35       1.0  0.92718  0.04358  0.46346  1.0000
  H   H36       1.0  0.59389  0.53691  0.58012  1.0000
  H   H37       1.0  0.11924  0.63189  0.06738  1.0000
  H   H38       1.0  0.78596  0.93288  0.56466  1.0000
  H   H39       1.0  0.45258  0.43568  0.36823  1.0000
  H   H40       1.0  0.21326  0.86413  0.14555  1.0000
  H   H41       1.0  0.87991  0.85458  0.71866  1.0000
  H   H42       1.0  0.54649  0.28128  0.13596  1.0000
  H   H43       1.0  0.58802  0.67601  0.98902  1.0000
  H   H44       1.0  0.25474  0.01079  0.68704  1.0000
  H   H45       1.0  0.92132  0.31278  0.32378  1.0000
  C   C1        1.0  0.17181  0.29382  0.29307  1.0000
  C   C2        1.0  0.83857  0.70680  0.00077  1.0000
  C   C3        1.0  0.50524  0.99929  0.70620  1.0000
  C   C4        1.0  0.20044  0.54814  0.42145  1.0000
  C   C5        1.0  0.86711  0.57832  0.12658  1.0000
  C   C6        1.0  0.53378  0.87344  0.45187  1.0000
  C   C7        1.0  0.08060  0.61298  0.39642  1.0000
  C   C8        1.0  0.74717  0.60359  0.21639  1.0000
  C   C9        1.0  0.41395  0.78360  0.38722  1.0000
  C   C10       1.0  0.13400  0.42503  0.54657  1.0000
  C   C11       1.0  0.80079  0.45328  0.87835  1.0000
  C   C12       1.0  0.46715  0.12163  0.57504  1.0000
  C   C13       1.0  0.25172  0.40995  0.62110  1.0000
  C   C14       1.0  0.91861  0.37887  0.78883  1.0000
  C   C15       1.0  0.58482  0.21125  0.59012  1.0000
  C   C16       1.0  0.43250  0.53552  0.96567  1.0000
  C   C17       1.0  0.09923  0.03438  0.56997  1.0000
  C   C18       1.0  0.76589  0.43021  0.46442  1.0000
  C   C19       1.0  0.30094  0.52219  0.98770  1.0000
  C   C20       1.0  0.96763  0.01242  0.53460  1.0000
  C   C21       1.0  0.63433  0.46570  0.47783  1.0000
  C   C22       1.0  0.22223  0.64053  0.05046  1.0000
  C   C23       1.0  0.88896  0.94975  0.59025  1.0000
  C   C24       1.0  0.55561  0.41005  0.35953  1.0000
  C   C25       1.0  0.27494  0.77198  0.09377  1.0000
  C   C26       1.0  0.94165  0.90629  0.67831  1.0000
  C   C27       1.0  0.60825  0.32175  0.22801  1.0000
  C   C28       1.0  0.48572  0.66649  0.00762  1.0000
  C   C29       1.0  0.15243  0.99224  0.65889  1.0000
  C   C30       1.0  0.81904  0.34108  0.33339  1.0000
  C   C31       1.0  0.40723  0.78518  0.07285  1.0000
  C   C32       1.0  0.07399  0.92696  0.71227  1.0000
  C   C33       1.0  0.74057  0.28764  0.21474  1.0000
  S   S1        1.0  0.20766  0.29705  0.14305  1.0000
  S   S2        1.0  0.87447  0.85673  0.15406  1.0000
  S   S3        1.0  0.54136  0.84600  0.70280  1.0000
  S   S4        1.0  0.13521  0.14345  0.29605  1.0000
  S   S5        1.0  0.80202  0.70393  0.84745  1.0000
  S   S6        1.0  0.46854  0.15256  0.85664  1.0000
  N   N1        1.0  0.16985  0.41562  0.41427  1.0000
  N   N2        1.0  0.83657  0.58556  0.00126  1.0000
  N   N3        1.0  0.50314  0.99875  0.58442  1.0000
