data_image0
_chemical_formula_structural       Hg4Te4H52C44S8N4
_chemical_formula_sum              "Hg4 Te4 H52 C44 S8 N4"
_cell_length_a       6.40264
_cell_length_b       9.36478
_cell_length_c       22.43
_cell_angle_alpha    94.4504
_cell_angle_beta     90
_cell_angle_gamma    90

_space_group_name_H-M_alt    "P 1"
_space_group_IT_number       1

loop_
  _space_group_symop_operation_xyz
  'x, y, z'

loop_
  _atom_site_type_symbol
  _atom_site_label
  _atom_site_symmetry_multiplicity
  _atom_site_fract_x
  _atom_site_fract_y
  _atom_site_fract_z
  _atom_site_occupancy
  Hg  Hg1       1.0  0.77364  0.48278  0.69332  1.0000
  Hg  Hg2       1.0  0.27364  0.51722  0.80668  1.0000
  Hg  Hg3       1.0  0.22635  0.51722  0.30668  1.0000
  Hg  Hg4       1.0  0.72636  0.48278  0.19332  1.0000
  Te  Te1       1.0  0.44760  0.67159  0.71470  1.0000
  Te  Te2       1.0  0.94760  0.32842  0.78530  1.0000
  Te  Te3       1.0  0.55240  0.32842  0.28530  1.0000
  Te  Te4       1.0  0.05241  0.67158  0.21470  1.0000
  H   H1        1.0  0.42974  0.40239  0.54598  1.0000
  H   H2        1.0  0.92974  0.59761  0.95401  1.0000
  H   H3        1.0  0.57026  0.59761  0.45401  1.0000
  H   H4        1.0  0.07025  0.40239  0.04599  1.0000
  H   H5        1.0  0.26882  0.50403  0.49993  1.0000
  H   H6        1.0  0.76881  0.49598  0.00007  1.0000
  H   H7        1.0  0.73118  0.49597  0.50007  1.0000
  H   H8        1.0  0.23117  0.50403  0.99993  1.0000
  H   H9        1.0  0.79603  0.10785  0.89934  1.0000
  H   H10       1.0  0.29604  0.89214  0.60067  1.0000
  H   H11       1.0  0.20398  0.89213  0.10067  1.0000
  H   H12       1.0  0.70397  0.10785  0.39933  1.0000
  H   H13       1.0  0.95872  0.19036  0.46976  1.0000
  H   H14       1.0  0.45872  0.80965  0.03024  1.0000
  H   H15       1.0  0.04128  0.80964  0.53024  1.0000
  H   H16       1.0  0.54125  0.19035  0.96976  1.0000
  H   H17       1.0  0.04009  0.10823  0.53511  1.0000
  H   H18       1.0  0.54008  0.89177  0.96489  1.0000
  H   H19       1.0  0.95992  0.89177  0.46489  1.0000
  H   H20       1.0  0.45989  0.10823  0.03511  1.0000
  H   H21       1.0  0.29370  0.32995  0.41651  1.0000
  H   H22       1.0  0.79369  0.67006  0.08349  1.0000
  H   H23       1.0  0.70630  0.67005  0.58349  1.0000
  H   H24       1.0  0.20629  0.32996  0.91651  1.0000
  H   H25       1.0  0.54237  0.30149  0.44851  1.0000
  H   H26       1.0  0.04237  0.69852  0.05149  1.0000
  H   H27       1.0  0.45763  0.69851  0.55149  1.0000
  H   H28       1.0  0.95762  0.30150  0.94851  1.0000
  H   H29       1.0  0.33319  0.97051  0.76792  1.0000
  H   H30       1.0  0.83319  0.02949  0.73208  1.0000
  H   H31       1.0  0.66683  0.02949  0.23208  1.0000
  H   H32       1.0  0.16682  0.97052  0.26791  1.0000
  H   H33       1.0  0.99142  0.88054  0.87677  1.0000
  H   H34       1.0  0.49143  0.11946  0.62324  1.0000
  H   H35       1.0  0.00859  0.11944  0.12323  1.0000
  H   H36       1.0  0.50859  0.88054  0.37677  1.0000
  H   H37       1.0  0.85777  0.69648  0.80086  1.0000
  H   H38       1.0  0.35777  0.30353  0.69915  1.0000
  H   H39       1.0  0.14224  0.30351  0.19914  1.0000
  H   H40       1.0  0.64224  0.69648  0.30085  1.0000
  H   H41       1.0  0.46732  0.15322  0.84425  1.0000
  H   H42       1.0  0.96732  0.84678  0.65575  1.0000
  H   H43       1.0  0.53271  0.84678  0.15575  1.0000
  H   H44       1.0  0.03268  0.15322  0.34425  1.0000
  H   H45       1.0  0.40300  0.10357  0.50351  1.0000
  H   H46       1.0  0.90299  0.89643  0.99649  1.0000
  H   H47       1.0  0.59701  0.89643  0.49649  1.0000
  H   H48       1.0  0.09698  0.10358  0.00351  1.0000
  H   H49       1.0  0.27865  0.07197  0.43265  1.0000
  H   H50       1.0  0.77864  0.92804  0.06735  1.0000
  H   H51       1.0  0.72135  0.92803  0.56735  1.0000
  H   H52       1.0  0.22133  0.07198  0.93265  1.0000
  C   C1        1.0  0.30858  0.39508  0.51095  1.0000
  C   C2        1.0  0.80858  0.60492  0.98905  1.0000
  C   C3        1.0  0.69142  0.60492  0.48905  1.0000
  C   C4        1.0  0.19141  0.39509  0.01095  1.0000
  C   C5        1.0  0.73653  0.02742  0.86592  1.0000
  C   C6        1.0  0.23654  0.97259  0.63409  1.0000
  C   C7        1.0  0.26347  0.97257  0.13409  1.0000
  C   C8        1.0  0.76347  0.02741  0.36591  1.0000
  C   C9        1.0  0.08643  0.18347  0.50236  1.0000
  C   C10       1.0  0.58642  0.81653  0.99764  1.0000
  C   C11       1.0  0.91358  0.81653  0.49764  1.0000
  C   C12       1.0  0.41356  0.18347  0.00236  1.0000
  C   C13       1.0  0.37364  0.29682  0.45652  1.0000
  C   C14       1.0  0.87364  0.70319  0.04347  1.0000
  C   C15       1.0  0.62635  0.70319  0.54348  1.0000
  C   C16       1.0  0.12634  0.29682  0.95653  1.0000
  C   C17       1.0  0.58744  0.82215  0.77950  1.0000
  C   C18       1.0  0.08744  0.17785  0.72050  1.0000
  C   C19       1.0  0.41257  0.17785  0.22050  1.0000
  C   C20       1.0  0.91258  0.82215  0.27950  1.0000
  C   C21       1.0  0.47732  0.95043  0.79180  1.0000
  C   C22       1.0  0.97733  0.04958  0.70820  1.0000
  C   C23       1.0  0.52269  0.04957  0.20821  1.0000
  C   C24       1.0  0.02268  0.95043  0.29179  1.0000
  C   C25       1.0  0.84631  0.89983  0.85323  1.0000
  C   C26       1.0  0.34632  0.10017  0.64678  1.0000
  C   C27       1.0  0.15370  0.10015  0.14678  1.0000
  C   C28       1.0  0.65370  0.89983  0.35322  1.0000
  C   C29       1.0  0.77222  0.79653  0.81005  1.0000
  C   C30       1.0  0.27223  0.20347  0.68995  1.0000
  C   C31       1.0  0.22778  0.20346  0.18995  1.0000
  C   C32       1.0  0.72779  0.79652  0.31005  1.0000
  C   C33       1.0  0.55221  0.05286  0.83507  1.0000
  C   C34       1.0  0.05222  0.94714  0.66494  1.0000
  C   C35       1.0  0.44780  0.94714  0.16494  1.0000
  C   C36       1.0  0.94780  0.05286  0.33506  1.0000
  C   C37       1.0  0.29561  0.14917  0.47171  1.0000
  C   C38       1.0  0.79560  0.85084  0.02828  1.0000
  C   C39       1.0  0.70439  0.85083  0.52829  1.0000
  C   C40       1.0  0.20437  0.14917  0.97171  1.0000
  C   C41       1.0  0.00755  0.38048  0.57932  1.0000
  C   C42       1.0  0.50755  0.61952  0.92068  1.0000
  C   C43       1.0  0.99245  0.61952  0.42068  1.0000
  C   C44       1.0  0.49244  0.38048  0.07932  1.0000
  S   S1        1.0  0.08735  0.53768  0.61808  1.0000
  S   S2        1.0  0.58734  0.46231  0.88192  1.0000
  S   S3        1.0  0.91266  0.46231  0.38193  1.0000
  S   S4        1.0  0.41266  0.53769  0.11807  1.0000
  S   S5        1.0  0.78246  0.29494  0.59845  1.0000
  S   S6        1.0  0.28245  0.70506  0.90155  1.0000
  S   S7        1.0  0.21755  0.70506  0.40155  1.0000
  S   S8        1.0  0.71754  0.29493  0.09845  1.0000
  N   N1        1.0  0.12246  0.32507  0.53362  1.0000
  N   N2        1.0  0.62245  0.67494  0.96638  1.0000
  N   N3        1.0  0.87755  0.67493  0.46638  1.0000
  N   N4        1.0  0.37753  0.32507  0.03362  1.0000
