data_image0
_chemical_formula_structural       Hg4Te4H68C52S8N4O8
_chemical_formula_sum              "Hg4 Te4 H68 C52 S8 N4 O8"
_cell_length_a       7.31463
_cell_length_b       10.2874
_cell_length_c       22.0348
_cell_angle_alpha    81.4848
_cell_angle_beta     88.2987
_cell_angle_gamma    73.0891

_space_group_name_H-M_alt    "P 1"
_space_group_IT_number       1

loop_
  _space_group_symop_operation_xyz
  'x, y, z'

loop_
  _atom_site_type_symbol
  _atom_site_label
  _atom_site_symmetry_multiplicity
  _atom_site_fract_x
  _atom_site_fract_y
  _atom_site_fract_z
  _atom_site_occupancy
  Hg  Hg1       1.0  0.25657  0.47794  0.71364  1.0000
  Hg  Hg2       1.0  0.74343  0.52207  0.28636  1.0000
  Hg  Hg3       1.0  0.71703  0.55129  0.74419  1.0000
  Hg  Hg4       1.0  0.28298  0.44871  0.25581  1.0000
  Te  Te1       1.0  0.02552  0.30550  0.74336  1.0000
  Te  Te2       1.0  0.97449  0.69450  0.25664  1.0000
  Te  Te3       1.0  0.43842  0.49569  0.82397  1.0000
  Te  Te4       1.0  0.56158  0.50431  0.17603  1.0000
  H   H1        1.0  0.78274  0.46442  0.51264  1.0000
  H   H2        1.0  0.21727  0.53559  0.48736  1.0000
  H   H3        1.0  0.84809  0.57138  0.55944  1.0000
  H   H4        1.0  0.15191  0.42862  0.44056  1.0000
  H   H5        1.0  0.90221  0.68737  0.45927  1.0000
  H   H6        1.0  0.09779  0.31264  0.54072  1.0000
  H   H7        1.0  0.72486  0.63563  0.42409  1.0000
  H   H8        1.0  0.27513  0.36437  0.57591  1.0000
  H   H9        1.0  0.55365  0.87456  0.43350  1.0000
  H   H10       1.0  0.44635  0.12544  0.56650  1.0000
  H   H11       1.0  0.65569  0.85940  0.50747  1.0000
  H   H12       1.0  0.34431  0.14061  0.49253  1.0000
  H   H13       1.0  0.35439  0.81518  0.53650  1.0000
  H   H14       1.0  0.64561  0.18482  0.46350  1.0000
  H   H15       1.0  0.35635  0.72782  0.47207  1.0000
  H   H16       1.0  0.64365  0.27218  0.52793  1.0000
  H   H17       1.0  0.22781  0.83455  0.70074  1.0000
  H   H18       1.0  0.77219  0.16545  0.29926  1.0000
  H   H19       1.0  0.06852  0.98625  0.72299  1.0000
  H   H20       1.0  0.93148  0.01375  0.27701  1.0000
  H   H21       1.0  0.22434  0.09589  0.64315  1.0000
  H   H22       1.0  0.77566  0.90410  0.35685  1.0000
  H   H23       1.0  0.29000  0.94889  0.60501  1.0000
  H   H24       1.0  0.71000  0.05111  0.39499  1.0000
  H   H25       1.0  0.02278  0.09873  0.53980  1.0000
  H   H26       1.0  0.97721  0.90127  0.46020  1.0000
  H   H27       1.0  0.89828  0.16503  0.60388  1.0000
  H   H28       1.0  0.10172  0.83497  0.39612  1.0000
  H   H29       1.0  0.74119  0.99221  0.59336  1.0000
  H   H30       1.0  0.25880  0.00779  0.40664  1.0000
  H   H31       1.0  0.95225  0.87991  0.56681  1.0000
  H   H32       1.0  0.04775  0.12009  0.43319  1.0000
  H   H33       1.0  0.12952  0.35892  0.97500  1.0000
  H   H34       1.0  0.87047  0.64108  0.02501  1.0000
  H   H35       1.0  0.33939  0.12080  0.00182  1.0000
  H   H36       1.0  0.66059  0.87920  0.99818  1.0000
  H   H37       1.0  0.41401  0.96203  0.92496  1.0000
  H   H38       1.0  0.58599  0.03797  0.07504  1.0000
  H   H39       1.0  0.40199  0.84320  0.78120  1.0000
  H   H40       1.0  0.59802  0.15680  0.21880  1.0000
  H   H41       1.0  0.30765  0.83307  0.85707  1.0000
  H   H42       1.0  0.69236  0.16693  0.14293  1.0000
  H   H43       1.0  0.52840  0.87689  0.84225  1.0000
  H   H44       1.0  0.47160  0.12311  0.15775  1.0000
  H   H45       1.0  0.82148  0.65076  0.88382  1.0000
  H   H46       1.0  0.17852  0.34924  0.11618  1.0000
  H   H47       1.0  0.04795  0.57625  0.92271  1.0000
  H   H48       1.0  0.95205  0.42375  0.07729  1.0000
  H   H49       1.0  0.84513  0.51603  0.94746  1.0000
  H   H50       1.0  0.15487  0.48397  0.05254  1.0000
  H   H51       1.0  0.80671  0.97455  0.80956  1.0000
  H   H52       1.0  0.19328  0.02545  0.19044  1.0000
  H   H53       1.0  0.93488  0.92467  0.91531  1.0000
  H   H54       1.0  0.06511  0.07533  0.08469  1.0000
  H   H55       1.0  0.84871  0.09994  0.98492  1.0000
  H   H56       1.0  0.15129  0.90006  0.01508  1.0000
  H   H57       1.0  0.60827  0.41811  0.03643  1.0000
  H   H58       1.0  0.39173  0.58189  0.96357  1.0000
  H   H59       1.0  0.82504  0.28800  0.02366  1.0000
  H   H60       1.0  0.17496  0.71200  0.97634  1.0000
  H   H61       1.0  0.60533  0.24447  0.03644  1.0000
  H   H62       1.0  0.39467  0.75553  0.96356  1.0000
  H   H63       1.0  0.52189  0.16613  0.67925  1.0000
  H   H64       1.0  0.47811  0.83388  0.32075  1.0000
  H   H65       1.0  0.56989  0.02532  0.74094  1.0000
  H   H66       1.0  0.43011  0.97468  0.25906  1.0000
  H   H67       1.0  0.75985  0.09161  0.70958  1.0000
  H   H68       1.0  0.24016  0.90839  0.29042  1.0000
  C   C1        1.0  0.75107  0.57037  0.52232  1.0000
  C   C2        1.0  0.24893  0.42963  0.47768  1.0000
  C   C3        1.0  0.75973  0.67300  0.46522  1.0000
  C   C4        1.0  0.24027  0.32701  0.53478  1.0000
  C   C5        1.0  0.60409  0.80393  0.47591  1.0000
  C   C6        1.0  0.39591  0.19607  0.52409  1.0000
  C   C7        1.0  0.44681  0.74853  0.50643  1.0000
  C   C8        1.0  0.55318  0.25147  0.49357  1.0000
  C   C9        1.0  0.11401  0.92852  0.68417  1.0000
  C   C10       1.0  0.88599  0.07147  0.31583  1.0000
  C   C11       1.0  0.17338  0.01469  0.62890  1.0000
  C   C12       1.0  0.82662  0.98530  0.37110  1.0000
  C   C13       1.0  0.99262  0.07179  0.58834  1.0000
  C   C14       1.0  0.00738  0.92820  0.41166  1.0000
  C   C15       1.0  0.89749  0.95655  0.59813  1.0000
  C   C16       1.0  0.10251  0.04345  0.40187  1.0000
  C   C17       1.0  0.48278  0.55596  0.59205  1.0000
  C   C18       1.0  0.51723  0.44404  0.40795  1.0000
  C   C19       1.0  0.87306  0.80060  0.69345  1.0000
  C   C20       1.0  0.12694  0.19940  0.30655  1.0000
  C   C21       1.0  0.12547  0.24579  0.83647  1.0000
  C   C22       1.0  0.87453  0.75421  0.16353  1.0000
  C   C23       1.0  0.08225  0.33418  0.88125  1.0000
  C   C24       1.0  0.91775  0.66582  0.11875  1.0000
  C   C25       1.0  0.15995  0.28956  0.94085  1.0000
  C   C26       1.0  0.84004  0.71045  0.05915  1.0000
  C   C27       1.0  0.27840  0.15589  0.95567  1.0000
  C   C28       1.0  0.72160  0.84411  0.04433  1.0000
  C   C29       1.0  0.31919  0.06536  0.91269  1.0000
  C   C30       1.0  0.68081  0.93463  0.08731  1.0000
  C   C31       1.0  0.24279  0.11054  0.85312  1.0000
  C   C32       1.0  0.75720  0.88945  0.14688  1.0000
  C   C33       1.0  0.38556  0.88748  0.82395  1.0000
  C   C34       1.0  0.61445  0.11252  0.17605  1.0000
  C   C35       1.0  0.91794  0.55575  0.90775  1.0000
  C   C36       1.0  0.08207  0.44425  0.09225  1.0000
  C   C37       1.0  0.60452  0.28966  0.85544  1.0000
  C   C38       1.0  0.39547  0.71034  0.14455  1.0000
  C   C39       1.0  0.64689  0.18582  0.81773  1.0000
  C   C40       1.0  0.35311  0.81418  0.18227  1.0000
  C   C41       1.0  0.76762  0.05433  0.83905  1.0000
  C   C42       1.0  0.23237  0.94567  0.16095  1.0000
  C   C43       1.0  0.83941  0.02642  0.89887  1.0000
  C   C44       1.0  0.16058  0.97359  0.10113  1.0000
  C   C45       1.0  0.79202  0.12509  0.93823  1.0000
  C   C46       1.0  0.20798  0.87491  0.06177  1.0000
  C   C47       1.0  0.67476  0.25688  0.91612  1.0000
  C   C48       1.0  0.32524  0.74312  0.08388  1.0000
  C   C49       1.0  0.66924  0.32475  0.01564  1.0000
  C   C50       1.0  0.33076  0.67525  0.98436  1.0000
  C   C51       1.0  0.60760  0.11801  0.72083  1.0000
  C   C52       1.0  0.39240  0.88198  0.27917  1.0000
  S   S1        1.0  0.24736  0.63108  0.61121  1.0000
  S   S2        1.0  0.75264  0.36892  0.38879  1.0000
  S   S3        1.0  0.61954  0.40912  0.63371  1.0000
  S   S4        1.0  0.38047  0.59087  0.36629  1.0000
  S   S5        1.0  0.95323  0.72811  0.76617  1.0000
  S   S6        1.0  0.04677  0.27189  0.23383  1.0000
  S   S7        1.0  0.69210  0.75864  0.65925  1.0000
  S   S8        1.0  0.30790  0.24136  0.34075  1.0000
  N   N1        1.0  0.55254  0.61845  0.54301  1.0000
  N   N2        1.0  0.44746  0.38155  0.45699  1.0000
  N   N3        1.0  0.95233  0.89081  0.66124  1.0000
  N   N4        1.0  0.04767  0.10919  0.33876  1.0000
  O   O1        1.0  0.96224  0.46271  0.86379  1.0000
  O   O2        1.0  0.03777  0.53729  0.13621  1.0000
  O   O3        1.0  0.27844  0.02869  0.80797  1.0000
  O   O4        1.0  0.72157  0.97131  0.19203  1.0000
  O   O5        1.0  0.56350  0.21974  0.76098  1.0000
  O   O6        1.0  0.43649  0.78026  0.23902  1.0000
  O   O7        1.0  0.62342  0.36083  0.95157  1.0000
  O   O8        1.0  0.37658  0.63917  0.04843  1.0000
