data_image0
_chemical_formula_structural       Cd2H32C46N16O10
_chemical_formula_sum              "Cd2 H32 C46 N16 O10"
_cell_length_a       9.07342
_cell_length_b       9.60389
_cell_length_c       14.6922
_cell_angle_alpha    88.2926
_cell_angle_beta     86.1537
_cell_angle_gamma    64.5205

_space_group_name_H-M_alt    "P 1"
_space_group_IT_number       1

loop_
  _space_group_symop_operation_xyz
  'x, y, z'

loop_
  _atom_site_type_symbol
  _atom_site_label
  _atom_site_symmetry_multiplicity
  _atom_site_fract_x
  _atom_site_fract_y
  _atom_site_fract_z
  _atom_site_occupancy
  Cd  Cd1       1.0  0.95997  0.05520  0.87552  1.0000
  Cd  Cd2       1.0  0.04003  0.94480  0.12448  1.0000
  H   H1        1.0  0.96452  0.35511  0.77266  1.0000
  H   H2        1.0  0.03548  0.64489  0.22734  1.0000
  H   H3        1.0  0.08741  0.43769  0.63753  1.0000
  H   H4        1.0  0.91259  0.56231  0.36247  1.0000
  H   H5        1.0  0.28834  0.96856  0.53997  1.0000
  H   H6        1.0  0.71166  0.03144  0.46003  1.0000
  H   H7        1.0  0.16105  0.90315  0.68226  1.0000
  H   H8        1.0  0.83895  0.09684  0.31774  1.0000
  H   H9        1.0  0.20216  0.68754  0.45218  1.0000
  H   H10       1.0  0.79784  0.31246  0.54782  1.0000
  H   H11       1.0  0.27425  0.89858  0.38975  1.0000
  H   H12       1.0  0.72575  0.10142  0.61025  1.0000
  H   H13       1.0  0.66570  0.59132  0.23097  1.0000
  H   H14       1.0  0.33431  0.40868  0.76904  1.0000
  H   H15       1.0  0.61837  0.36823  0.28707  1.0000
  H   H16       1.0  0.38163  0.63177  0.71293  1.0000
  H   H17       1.0  0.53630  0.09200  0.26836  1.0000
  H   H18       1.0  0.46370  0.90801  0.73164  1.0000
  H   H19       1.0  0.46444  0.29034  0.23646  1.0000
  H   H20       1.0  0.53556  0.70967  0.76353  1.0000
  H   H21       1.0  0.38480  0.95061  0.21571  1.0000
  H   H22       1.0  0.61520  0.04939  0.78429  1.0000
  H   H23       1.0  0.93831  0.33085  0.16564  1.0000
  H   H24       1.0  0.06169  0.66915  0.83436  1.0000
  H   H25       1.0  0.41787  0.93814  0.03925  1.0000
  H   H26       1.0  0.58214  0.06186  0.96075  1.0000
  H   H27       1.0  0.88416  0.54001  0.03595  1.0000
  H   H28       1.0  0.11585  0.45999  0.96405  1.0000
  H   H29       1.0  0.50420  0.54292  0.87508  1.0000
  H   H30       1.0  0.49580  0.45708  0.12491  1.0000
  H   H31       1.0  0.82951  0.77582  0.09872  1.0000
  H   H32       1.0  0.17049  0.22418  0.90128  1.0000
  C   C1        1.0  0.03819  0.27185  0.72040  1.0000
  C   C2        1.0  0.96181  0.72814  0.27960  1.0000
  C   C3        1.0  0.10596  0.31820  0.64465  1.0000
  C   C4        1.0  0.89405  0.68180  0.35535  1.0000
  C   C5        1.0  0.19907  0.20907  0.57800  1.0000
  C   C6        1.0  0.80093  0.79092  0.42200  1.0000
  C   C7        1.0  0.21695  0.05712  0.59018  1.0000
  C   C8        1.0  0.78305  0.94288  0.40983  1.0000
  C   C9        1.0  0.14617  0.02068  0.66866  1.0000
  C   C10       1.0  0.85383  0.97932  0.33135  1.0000
  C   C11       1.0  0.27363  0.25477  0.49851  1.0000
  C   C12       1.0  0.72637  0.74523  0.50149  1.0000
  C   C13       1.0  0.35883  0.38837  0.41072  1.0000
  C   C14       1.0  0.64117  0.61163  0.58928  1.0000
  C   C15       1.0  0.40214  0.51013  0.37403  1.0000
  C   C16       1.0  0.59786  0.48987  0.62597  1.0000
  C   C17       1.0  0.30669  0.66225  0.40375  1.0000
  C   C18       1.0  0.69331  0.33775  0.59625  1.0000
  C   C19       1.0  0.34689  0.77855  0.36892  1.0000
  C   C20       1.0  0.65311  0.22145  0.63108  1.0000
  C   C21       1.0  0.56448  0.60849  0.28082  1.0000
  C   C22       1.0  0.43552  0.39151  0.71918  1.0000
  C   C23       1.0  0.53608  0.48308  0.31214  1.0000
  C   C24       1.0  0.46392  0.51693  0.68786  1.0000
  C   C25       1.0  0.43227  0.20598  0.27360  1.0000
  C   C26       1.0  0.56773  0.79402  0.72640  1.0000
  C   C27       1.0  0.28763  0.06642  0.20739  1.0000
  C   C28       1.0  0.71237  0.93358  0.79261  1.0000
  C   C29       1.0  0.06230  0.26324  0.18550  1.0000
  C   C30       1.0  0.93770  0.73676  0.81450  1.0000
  C   C31       1.0  0.81409  0.36755  0.91867  1.0000
  C   C32       1.0  0.18591  0.63245  0.08133  1.0000
  C   C33       1.0  0.27816  0.83265  0.91775  1.0000
  C   C34       1.0  0.72183  0.16735  0.08225  1.0000
  C   C35       1.0  0.44429  0.74975  0.95334  1.0000
  C   C36       1.0  0.55571  0.25025  0.04666  1.0000
  C   C37       1.0  0.49834  0.82203  0.01592  1.0000
  C   C38       1.0  0.50166  0.17797  0.98408  1.0000
  C   C39       1.0  0.65716  0.74690  0.04570  1.0000
  C   C40       1.0  0.34284  0.25310  0.95430  1.0000
  C   C41       1.0  0.76009  0.59831  0.01364  1.0000
  C   C42       1.0  0.23991  0.40168  0.98635  1.0000
  C   C43       1.0  0.70493  0.52639  0.95181  1.0000
  C   C44       1.0  0.29507  0.47360  0.04819  1.0000
  C   C45       1.0  0.54697  0.60173  0.92155  1.0000
  C   C46       1.0  0.45303  0.39827  0.07845  1.0000
  N   N1        1.0  0.05936  0.12530  0.73346  1.0000
  N   N2        1.0  0.94065  0.87470  0.26654  1.0000
  N   N3        1.0  0.28580  0.39185  0.49295  1.0000
  N   N4        1.0  0.71420  0.60815  0.50705  1.0000
  N   N5        1.0  0.33432  0.16632  0.42413  1.0000
  N   N6        1.0  0.66568  0.83368  0.57587  1.0000
  N   N7        1.0  0.38830  0.25196  0.36864  1.0000
  N   N8        1.0  0.61170  0.74804  0.63136  1.0000
  N   N9        1.0  0.47262  0.75400  0.30787  1.0000
  N   N10       1.0  0.52739  0.24600  0.69214  1.0000
  N   N11       1.0  0.29685  0.19563  0.23269  1.0000
  N   N12       1.0  0.70315  0.80437  0.76731  1.0000
  N   N13       1.0  0.15386  0.32283  0.21995  1.0000
  N   N14       1.0  0.84614  0.67717  0.78005  1.0000
  N   N15       1.0  0.13985  0.10589  0.17678  1.0000
  N   N16       1.0  0.86015  0.89411  0.82322  1.0000
  O   O1        1.0  0.96262  0.30457  0.94063  1.0000
  O   O2        1.0  0.03738  0.69543  0.05937  1.0000
  O   O3        1.0  0.75251  0.29937  0.87048  1.0000
  O   O4        1.0  0.24749  0.70063  0.12951  1.0000
  O   O5        1.0  0.24999  0.79845  0.84042  1.0000
  O   O6        1.0  0.75000  0.20155  0.15958  1.0000
  O   O7        1.0  0.16863  0.94188  0.96752  1.0000
  O   O8        1.0  0.83137  0.05812  0.03248  1.0000
  O   O9        1.0  0.70809  0.82020  0.10585  1.0000
  O   O10       1.0  0.29191  0.17980  0.89415  1.0000
