data_image0
_chemical_formula_structural       Zn2H22C30N4O10
_chemical_formula_sum              "Zn2 H22 C30 N4 O10"
_cell_length_a       7.68807
_cell_length_b       8.84478
_cell_length_c       10.7568
_cell_angle_alpha    80.1354
_cell_angle_beta     69.6656
_cell_angle_gamma    78.1896

_space_group_name_H-M_alt    "P 1"
_space_group_IT_number       1

loop_
  _space_group_symop_operation_xyz
  'x, y, z'

loop_
  _atom_site_type_symbol
  _atom_site_label
  _atom_site_symmetry_multiplicity
  _atom_site_fract_x
  _atom_site_fract_y
  _atom_site_fract_z
  _atom_site_occupancy
  Zn  Zn1       1.0  0.31357  0.37670  0.22127  1.0000
  Zn  Zn2       1.0  0.68643  0.62330  0.77873  1.0000
  H   H1        1.0  0.47054  0.69760  0.12339  1.0000
  H   H2        1.0  0.52946  0.30240  0.87661  1.0000
  H   H3        1.0  0.50465  0.91514  0.23337  1.0000
  H   H4        1.0  0.49534  0.08486  0.76663  1.0000
  H   H5        1.0  0.40753  0.88890  0.48342  1.0000
  H   H6        1.0  0.59246  0.11110  0.51658  1.0000
  H   H7        1.0  0.26781  0.66043  0.61377  1.0000
  H   H8        1.0  0.73219  0.33957  0.38623  1.0000
  H   H9        1.0  0.14956  0.46392  0.70876  1.0000
  H   H10       1.0  0.85043  0.53608  0.29124  1.0000
  H   H11       1.0  0.02808  0.21656  0.80766  1.0000
  H   H12       1.0  0.97192  0.78345  0.19234  1.0000
  H   H13       1.0  0.02926  0.02870  0.65676  1.0000
  H   H14       1.0  0.97074  0.97130  0.34325  1.0000
  H   H15       1.0  0.14158  0.10711  0.40776  1.0000
  H   H16       1.0  0.85842  0.89289  0.59224  1.0000
  H   H17       1.0  0.68251  0.98172  0.00023  1.0000
  H   H18       1.0  0.31750  0.01828  0.99977  1.0000
  H   H19       1.0  0.28850  0.59837  0.01340  1.0000
  H   H20       1.0  0.71150  0.40163  0.98660  1.0000
  H   H21       1.0  0.11012  0.50196  0.07609  1.0000
  H   H22       1.0  0.88988  0.49803  0.92392  1.0000
  C   C1        1.0  0.42800  0.69373  0.23174  1.0000
  C   C2        1.0  0.57200  0.30627  0.76826  1.0000
  C   C3        1.0  0.44621  0.81378  0.29259  1.0000
  C   C4        1.0  0.55378  0.18623  0.70741  1.0000
  C   C5        1.0  0.39044  0.80034  0.43152  1.0000
  C   C6        1.0  0.60955  0.19966  0.56848  1.0000
  C   C7        1.0  0.31299  0.67070  0.50523  1.0000
  C   C8        1.0  0.68700  0.32930  0.49477  1.0000
  C   C9        1.0  0.29671  0.55552  0.43710  1.0000
  C   C10       1.0  0.70329  0.44448  0.56290  1.0000
  C   C11       1.0  0.21507  0.41367  0.50560  1.0000
  C   C12       1.0  0.78493  0.58633  0.49440  1.0000
  C   C13       1.0  0.14926  0.38147  0.64431  1.0000
  C   C14       1.0  0.85074  0.61853  0.35570  1.0000
  C   C15       1.0  0.08077  0.24251  0.69985  1.0000
  C   C16       1.0  0.91923  0.75749  0.30015  1.0000
  C   C17       1.0  0.07905  0.13918  0.61625  1.0000
  C   C18       1.0  0.92095  0.86082  0.38375  1.0000
  C   C19       1.0  0.14183  0.18081  0.47910  1.0000
  C   C20       1.0  0.85817  0.81919  0.52090  1.0000
  C   C21       1.0  0.66883  0.18764  0.16297  1.0000
  C   C22       1.0  0.33117  0.81236  0.83703  1.0000
  C   C23       1.0  0.84298  0.09865  0.07343  1.0000
  C   C24       1.0  0.15702  0.90135  0.92656  1.0000
  C   C25       1.0  0.02401  0.10849  0.07185  1.0000
  C   C26       1.0  0.97599  0.89151  0.92815  1.0000
  C   C27       1.0  0.82157  0.99142  0.00037  1.0000
  C   C28       1.0  0.17843  0.00858  0.99963  1.0000
  C   C29       1.0  0.05642  0.23437  0.13567  1.0000
  C   C30       1.0  0.94359  0.76562  0.86433  1.0000
  N   N1        1.0  0.35681  0.56738  0.30262  1.0000
  N   N2        1.0  0.64319  0.43262  0.69738  1.0000
  N   N3        1.0  0.20757  0.31455  0.42543  1.0000
  N   N4        1.0  0.79243  0.68545  0.57457  1.0000
  O   O1        1.0  0.20942  0.54009  0.09488  1.0000
  O   O2        1.0  0.79058  0.45991  0.90513  1.0000
  O   O3        1.0  0.57338  0.29703  0.10360  1.0000
  O   O4        1.0  0.42663  0.70297  0.89640  1.0000
  O   O5        1.0  0.61871  0.14618  0.28477  1.0000
  O   O6        1.0  0.38130  0.85382  0.71522  1.0000
  O   O7        1.0  0.94625  0.36246  0.13805  1.0000
  O   O8        1.0  0.05375  0.63754  0.86195  1.0000
  O   O9        1.0  0.19858  0.20365  0.17727  1.0000
  O   O10       1.0  0.80142  0.79635  0.82273  1.0000
