data_image0
_chemical_formula_structural       Tb2Cu3H42C42N6O36
_chemical_formula_sum              "Tb2 Cu3 H42 C42 N6 O36"
_cell_length_a       7.36018
_cell_length_b       13.4787
_cell_length_c       15.1709
_cell_angle_alpha    72.5032
_cell_angle_beta     76.1657
_cell_angle_gamma    80.1534

_space_group_name_H-M_alt    "P 1"
_space_group_IT_number       1

loop_
  _space_group_symop_operation_xyz
  'x, y, z'

loop_
  _atom_site_type_symbol
  _atom_site_label
  _atom_site_symmetry_multiplicity
  _atom_site_fract_x
  _atom_site_fract_y
  _atom_site_fract_z
  _atom_site_occupancy
  Tb  Tb1       1.0  0.46700  0.04946  0.18967  1.0000
  Tb  Tb2       1.0  0.53300  0.95053  0.81033  1.0000
  Cu  Cu1       1.0  0.44497  0.60926  0.15577  1.0000
  Cu  Cu2       1.0  0.55503  0.39074  0.84423  1.0000
  Cu  Cu3       1.0  0.49996  0.50000  0.50000  1.0000
  H   H1        1.0  0.95599  0.60753  0.44089  1.0000
  H   H2        1.0  0.04402  0.39246  0.55911  1.0000
  H   H3        1.0  0.79285  0.78803  0.37810  1.0000
  H   H4        1.0  0.20716  0.21196  0.62190  1.0000
  H   H5        1.0  0.22075  0.82363  0.12558  1.0000
  H   H6        1.0  0.77925  0.17637  0.87442  1.0000
  H   H7        1.0  0.19680  0.41151  0.15883  1.0000
  H   H8        1.0  0.80321  0.58849  0.84117  1.0000
  H   H9        1.0  0.03136  0.59096  0.10827  1.0000
  H   H10       1.0  0.96865  0.40904  0.89172  1.0000
  H   H11       1.0  0.31046  0.60129  0.82093  1.0000
  H   H12       1.0  0.68955  0.39871  0.17907  1.0000
  H   H13       1.0  0.44983  0.72818  0.38458  1.0000
  H   H14       1.0  0.55015  0.27182  0.61542  1.0000
  H   H15       1.0  0.98229  0.85901  0.56217  1.0000
  H   H16       1.0  0.01770  0.14100  0.43783  1.0000
  H   H17       1.0  0.99237  0.68397  0.68632  1.0000
  H   H18       1.0  0.00762  0.31604  0.31368  1.0000
  H   H19       1.0  0.75767  0.64288  0.20740  1.0000
  H   H20       1.0  0.24233  0.35712  0.79260  1.0000
  H   H21       1.0  0.78414  0.71129  0.10143  1.0000
  H   H22       1.0  0.21586  0.28871  0.89857  1.0000
  H   H23       1.0  0.83799  0.06131  0.07068  1.0000
  H   H24       1.0  0.16201  0.93869  0.92932  1.0000
  H   H25       1.0  0.70211  0.16447  0.01755  1.0000
  H   H26       1.0  0.29788  0.83553  0.98246  1.0000
  H   H27       1.0  0.20553  0.02381  0.08212  1.0000
  H   H28       1.0  0.79446  0.97619  0.91789  1.0000
  H   H29       1.0  0.21016  0.14539  0.05067  1.0000
  H   H30       1.0  0.78984  0.85461  0.94933  1.0000
  H   H31       1.0  0.57518  0.91507  0.05752  1.0000
  H   H32       1.0  0.42483  0.08493  0.94248  1.0000
  H   H33       1.0  0.57814  0.83068  0.15524  1.0000
  H   H34       1.0  0.42186  0.16932  0.84476  1.0000
  H   H35       1.0  0.49131  0.21083  0.27599  1.0000
  H   H36       1.0  0.50870  0.78917  0.72401  1.0000
  H   H37       1.0  0.70168  0.17906  0.23498  1.0000
  H   H38       1.0  0.29832  0.82094  0.76502  1.0000
  H   H39       1.0  0.07939  0.16423  0.21845  1.0000
  H   H40       1.0  0.92061  0.83577  0.78154  1.0000
  H   H41       1.0  0.10629  0.06629  0.31086  1.0000
  H   H42       1.0  0.89371  0.93371  0.68914  1.0000
  C   C1        1.0  0.27163  0.51253  0.33765  1.0000
  C   C2        1.0  0.72840  0.48747  0.66235  1.0000
  C   C3        1.0  0.16626  0.62047  0.31310  1.0000
  C   C4        1.0  0.83376  0.37952  0.68690  1.0000
  C   C5        1.0  0.00931  0.65739  0.37112  1.0000
  C   C6        1.0  0.99069  0.34261  0.62888  1.0000
  C   C7        1.0  0.91998  0.75715  0.33664  1.0000
  C   C8        1.0  0.08003  0.24284  0.66337  1.0000
  C   C9        1.0  0.99411  0.81856  0.24696  1.0000
  C   C10       1.0  0.00589  0.18143  0.75304  1.0000
  C   C11       1.0  0.15606  0.77755  0.19447  1.0000
  C   C12       1.0  0.84394  0.22245  0.80553  1.0000
  C   C13       1.0  0.90129  0.92389  0.20134  1.0000
  C   C14       1.0  0.09872  0.07611  0.79866  1.0000
  C   C15       1.0  0.44446  0.30626  0.03871  1.0000
  C   C16       1.0  0.55555  0.69374  0.96129  1.0000
  C   C17       1.0  0.33925  0.41365  0.01697  1.0000
  C   C18       1.0  0.66075  0.58635  0.98303  1.0000
  C   C19       1.0  0.21816  0.45623  0.08502  1.0000
  C   C20       1.0  0.78185  0.54377  0.91498  1.0000
  C   C21       1.0  0.12700  0.55641  0.05622  1.0000
  C   C22       1.0  0.87301  0.44359  0.94377  1.0000
  C   C23       1.0  0.15653  0.61055  0.96050  1.0000
  C   C24       1.0  0.84348  0.38945  0.03949  1.0000
  C   C25       1.0  0.28204  0.56291  0.89628  1.0000
  C   C26       1.0  0.71797  0.43708  0.10371  1.0000
  C   C27       1.0  0.05129  0.71596  0.92512  1.0000
  C   C28       1.0  0.94871  0.28404  0.07487  1.0000
  C   C29       1.0  0.34526  0.72170  0.44986  1.0000
  C   C30       1.0  0.65472  0.27830  0.55014  1.0000
  C   C31       1.0  0.21346  0.80585  0.46469  1.0000
  C   C32       1.0  0.78654  0.19416  0.53531  1.0000
  C   C33       1.0  0.08430  0.79316  0.55039  1.0000
  C   C34       1.0  0.91569  0.20685  0.44961  1.0000
  C   C35       1.0  0.08908  0.69687  0.61834  1.0000
  C   C36       1.0  0.91091  0.30313  0.38166  1.0000
  C   C37       1.0  0.21930  0.61534  0.59722  1.0000
  C   C38       1.0  0.78068  0.38466  0.40279  1.0000
  C   C39       1.0  0.23404  0.50584  0.66085  1.0000
  C   C40       1.0  0.76594  0.49416  0.33916  1.0000
  C   C41       1.0  0.20581  0.90615  0.38730  1.0000
  C   C42       1.0  0.79418  0.09385  0.61270  1.0000
  N   N1        1.0  0.34424  0.62883  0.51428  1.0000
  N   N2        1.0  0.65573  0.37118  0.48572  1.0000
  N   N3        1.0  0.23641  0.68068  0.22661  1.0000
  N   N4        1.0  0.76360  0.31932  0.77339  1.0000
  N   N5        1.0  0.37151  0.46733  0.92469  1.0000
  N   N6        1.0  0.62850  0.53267  0.07530  1.0000
  O   O1        1.0  0.09480  0.76320  0.83823  1.0000
  O   O2        1.0  0.90521  0.23680  0.16177  1.0000
  O   O3        1.0  0.92105  0.74870  0.98521  1.0000
  O   O4        1.0  0.07895  0.25129  0.01478  1.0000
  O   O5        1.0  0.56666  0.28365  0.96904  1.0000
  O   O6        1.0  0.43334  0.71635  0.03096  1.0000
  O   O7        1.0  0.41023  0.24595  0.12005  1.0000
  O   O8        1.0  0.58978  0.75405  0.87995  1.0000
  O   O9        1.0  0.99129  0.97636  0.12306  1.0000
  O   O10       1.0  0.00871  0.02364  0.87694  1.0000
  O   O11       1.0  0.73651  0.95089  0.24149  1.0000
  O   O12       1.0  0.26349  0.04911  0.75852  1.0000
  O   O13       1.0  0.40064  0.48992  0.26877  1.0000
  O   O14       1.0  0.59931  0.51007  0.73120  1.0000
  O   O15       1.0  0.23565  0.45243  0.41825  1.0000
  O   O16       1.0  0.76445  0.54758  0.58175  1.0000
  O   O17       1.0  0.34833  0.91804  0.31859  1.0000
  O   O18       1.0  0.65166  0.08196  0.68141  1.0000
  O   O19       1.0  0.05925  0.96936  0.39497  1.0000
  O   O20       1.0  0.94075  0.03065  0.60503  1.0000
  O   O21       1.0  0.35532  0.43899  0.62633  1.0000
  O   O22       1.0  0.64466  0.56101  0.37368  1.0000
  O   O23       1.0  0.13201  0.48299  0.74156  1.0000
  O   O24       1.0  0.86798  0.51702  0.25845  1.0000
  O   O25       1.0  0.69413  0.70073  0.16277  1.0000
  O   O26       1.0  0.30588  0.29927  0.83722  1.0000
  O   O27       1.0  0.70903  0.09201  0.05761  1.0000
  O   O28       1.0  0.29097  0.90798  0.94239  1.0000
  O   O29       1.0  0.29598  0.07745  0.06410  1.0000
  O   O30       1.0  0.70403  0.92255  0.93590  1.0000
  O   O31       1.0  0.51942  0.90105  0.12593  1.0000
  O   O32       1.0  0.48058  0.09894  0.87407  1.0000
  O   O33       1.0  0.58178  0.14990  0.27093  1.0000
  O   O34       1.0  0.41822  0.85010  0.72907  1.0000
  O   O35       1.0  0.17273  0.12258  0.25697  1.0000
  O   O36       1.0  0.82727  0.87742  0.74303  1.0000
