data_image0
_chemical_formula_structural       MnH28C32O10
_chemical_formula_sum              "Mn1 H28 C32 O10"
_cell_length_a       4.55459
_cell_length_b       11.6231
_cell_length_c       13.4214
_cell_angle_alpha    90.0729
_cell_angle_beta     96.9896
_cell_angle_gamma    98.6983

_space_group_name_H-M_alt    "P 1"
_space_group_IT_number       1

loop_
  _space_group_symop_operation_xyz
  'x, y, z'

loop_
  _atom_site_type_symbol
  _atom_site_label
  _atom_site_symmetry_multiplicity
  _atom_site_fract_x
  _atom_site_fract_y
  _atom_site_fract_z
  _atom_site_occupancy
  Mn  Mn1       1.0  0.50000  0.50000  0.50000  1.0000
  H   H1        1.0  0.01422  0.39509  0.40444  1.0000
  H   H2        1.0  0.98578  0.60491  0.59556  1.0000
  H   H3        1.0  0.25645  0.32106  0.36947  1.0000
  H   H4        1.0  0.74356  0.67894  0.63053  1.0000
  H   H5        1.0  0.74206  0.18507  0.65541  1.0000
  H   H6        1.0  0.25794  0.81493  0.34459  1.0000
  H   H7        1.0  0.90019  0.04329  0.78214  1.0000
  H   H8        1.0  0.09981  0.95671  0.21786  1.0000
  H   H9        1.0  0.65406  0.29552  0.89896  1.0000
  H   H10       1.0  0.34594  0.70448  0.10104  1.0000
  H   H11       1.0  0.49865  0.43536  0.76850  1.0000
  H   H12       1.0  0.50135  0.56464  0.23150  1.0000
  H   H13       1.0  0.14631  0.86996  0.59967  1.0000
  H   H14       1.0  0.85369  0.13004  0.40033  1.0000
  H   H15       1.0  0.37841  0.81323  0.51930  1.0000
  H   H16       1.0  0.62159  0.18677  0.48070  1.0000
  H   H17       1.0  0.51207  0.94929  0.58734  1.0000
  H   H18       1.0  0.48793  0.05071  0.41266  1.0000
  H   H19       1.0  0.33532  0.98783  0.73670  1.0000
  H   H20       1.0  0.66468  0.01217  0.26330  1.0000
  H   H21       1.0  0.19768  0.25920  0.00689  1.0000
  H   H22       1.0  0.80233  0.74080  0.99311  1.0000
  H   H23       1.0  0.02631  0.54117  0.82293  1.0000
  H   H24       1.0  0.97369  0.45883  0.17707  1.0000
  H   H25       1.0  0.79924  0.55919  0.92091  1.0000
  H   H26       1.0  0.20076  0.44081  0.07909  1.0000
  H   H27       1.0  0.13406  0.66105  0.91068  1.0000
  H   H28       1.0  0.86594  0.33895  0.08932  1.0000
  C   C1        1.0  0.01138  0.40448  0.63010  1.0000
  C   C2        1.0  0.98863  0.59552  0.36990  1.0000
  C   C3        1.0  0.11196  0.31859  0.70403  1.0000
  C   C4        1.0  0.88804  0.68141  0.29597  1.0000
  C   C5        1.0  0.94563  0.20747  0.70773  1.0000
  C   C6        1.0  0.05437  0.79253  0.29227  1.0000
  C   C7        1.0  0.03408  0.12875  0.77895  1.0000
  C   C8        1.0  0.96592  0.87125  0.22105  1.0000
  C   C9        1.0  0.28737  0.15913  0.84991  1.0000
  C   C10       1.0  0.71264  0.84086  0.15009  1.0000
  C   C11       1.0  0.45251  0.27135  0.84588  1.0000
  C   C12       1.0  0.54748  0.72865  0.15412  1.0000
  C   C13       1.0  0.36765  0.34955  0.77356  1.0000
  C   C14       1.0  0.63235  0.65045  0.22644  1.0000
  C   C15       1.0  0.37812  0.86212  0.58904  1.0000
  C   C16       1.0  0.62188  0.13788  0.41096  1.0000
  C   C17       1.0  0.52627  0.83298  0.76378  1.0000
  C   C18       1.0  0.47373  0.16702  0.23622  1.0000
  C   C19       1.0  0.43022  0.93257  0.79321  1.0000
  C   C20       1.0  0.56978  0.06743  0.20679  1.0000
  C   C21       1.0  0.46114  0.96841  0.89632  1.0000
  C   C22       1.0  0.53886  0.03159  0.10368  1.0000
  C   C23       1.0  0.38510  0.07589  0.92605  1.0000
  C   C24       1.0  0.61490  0.92411  0.07395  1.0000
  C   C25       1.0  0.41513  0.10621  0.02933  1.0000
  C   C26       1.0  0.58487  0.89379  0.97067  1.0000
  C   C27       1.0  0.30761  0.20720  0.06280  1.0000
  C   C28       1.0  0.69239  0.79280  0.93720  1.0000
  C   C29       1.0  0.66941  0.76307  0.83725  1.0000
  C   C30       1.0  0.33058  0.23693  0.16276  1.0000
  C   C31       1.0  0.94344  0.60470  0.86840  1.0000
  C   C32       1.0  0.05656  0.39530  0.13160  1.0000
  O   O1        1.0  0.19569  0.49800  0.61830  1.0000
  O   O2        1.0  0.80431  0.50200  0.38170  1.0000
  O   O3        1.0  0.18725  0.35387  0.42823  1.0000
  O   O4        1.0  0.81275  0.64613  0.57178  1.0000
  O   O5        1.0  0.74676  0.38234  0.58499  1.0000
  O   O6        1.0  0.25324  0.61766  0.41501  1.0000
  O   O7        1.0  0.50799  0.79444  0.66693  1.0000
  O   O8        1.0  0.49201  0.20556  0.33307  1.0000
  O   O9        1.0  0.77700  0.67115  0.79893  1.0000
  O   O10       1.0  0.22299  0.32885  0.20107  1.0000
