data_image0
_chemical_formula_structural       Zn4H24C28N4O22
_chemical_formula_sum              "Zn4 H24 C28 N4 O22"
_cell_length_a       8.04931
_cell_length_b       8.04931
_cell_length_c       12.9326
_cell_angle_alpha    83.0877
_cell_angle_beta     83.0879
_cell_angle_gamma    74.2766

_space_group_name_H-M_alt    "P 1"
_space_group_IT_number       1

loop_
  _space_group_symop_operation_xyz
  'x, y, z'

loop_
  _atom_site_type_symbol
  _atom_site_label
  _atom_site_symmetry_multiplicity
  _atom_site_fract_x
  _atom_site_fract_y
  _atom_site_fract_z
  _atom_site_occupancy
  Zn  Zn1       1.0  0.47445  0.42712  0.87498  1.0000
  Zn  Zn2       1.0  0.57288  0.52555  0.62502  1.0000
  Zn  Zn3       1.0  0.52555  0.57288  0.12502  1.0000
  Zn  Zn4       1.0  0.42711  0.47445  0.37498  1.0000
  H   H1        1.0  0.19200  0.47686  0.00413  1.0000
  H   H2        1.0  0.52313  0.80800  0.49587  1.0000
  H   H3        1.0  0.80800  0.52314  0.99587  1.0000
  H   H4        1.0  0.47686  0.19200  0.50413  1.0000
  H   H5        1.0  0.13272  0.40801  0.90742  1.0000
  H   H6        1.0  0.59199  0.86728  0.59258  1.0000
  H   H7        1.0  0.86728  0.59199  0.09258  1.0000
  H   H8        1.0  0.40801  0.13272  0.40742  1.0000
  H   H9        1.0  0.35514  0.74074  0.78486  1.0000
  H   H10       1.0  0.25925  0.64485  0.71514  1.0000
  H   H11       1.0  0.64486  0.25925  0.21514  1.0000
  H   H12       1.0  0.74075  0.35514  0.28487  1.0000
  H   H13       1.0  0.15445  0.17899  0.79394  1.0000
  H   H14       1.0  0.82102  0.84555  0.70606  1.0000
  H   H15       1.0  0.84555  0.82102  0.20606  1.0000
  H   H16       1.0  0.17899  0.15445  0.29393  1.0000
  H   H17       1.0  0.27904  0.01922  0.63726  1.0000
  H   H18       1.0  0.98079  0.72096  0.86274  1.0000
  H   H19       1.0  0.72095  0.98078  0.36274  1.0000
  H   H20       1.0  0.01922  0.27905  0.13726  1.0000
  H   H21       1.0  0.12559  0.10432  0.47295  1.0000
  H   H22       1.0  0.89569  0.87440  0.02705  1.0000
  H   H23       1.0  0.87440  0.89568  0.52706  1.0000
  H   H24       1.0  0.10432  0.12559  0.97294  1.0000
  C   C1        1.0  0.84303  0.43040  0.81093  1.0000
  C   C2        1.0  0.56961  0.15697  0.68907  1.0000
  C   C3        1.0  0.15697  0.56961  0.18907  1.0000
  C   C4        1.0  0.43040  0.84303  0.31093  1.0000
  C   C5        1.0  0.93322  0.33853  0.71730  1.0000
  C   C6        1.0  0.66148  0.06678  0.78270  1.0000
  C   C7        1.0  0.06678  0.66147  0.28270  1.0000
  C   C8        1.0  0.33853  0.93322  0.21730  1.0000
  C   C9        1.0  0.09044  0.21188  0.72209  1.0000
  C   C10       1.0  0.78813  0.90956  0.77791  1.0000
  C   C11       1.0  0.90955  0.78813  0.27791  1.0000
  C   C12       1.0  0.21187  0.09045  0.22209  1.0000
  C   C13       1.0  0.15958  0.12235  0.63464  1.0000
  C   C14       1.0  0.87766  0.84042  0.86536  1.0000
  C   C15       1.0  0.84042  0.87765  0.36536  1.0000
  C   C16       1.0  0.12235  0.15958  0.13464  1.0000
  C   C17       1.0  0.07469  0.16809  0.54381  1.0000
  C   C18       1.0  0.83191  0.92532  0.95619  1.0000
  C   C19       1.0  0.92531  0.83191  0.45619  1.0000
  C   C20       1.0  0.16809  0.07469  0.04381  1.0000
  C   C21       1.0  0.91881  0.29708  0.54495  1.0000
  C   C22       1.0  0.70292  0.08119  0.95505  1.0000
  C   C23       1.0  0.08119  0.70292  0.45505  1.0000
  C   C24       1.0  0.29709  0.91881  0.04495  1.0000
  C   C25       1.0  0.81590  0.34828  0.45115  1.0000
  C   C26       1.0  0.65173  0.18409  0.04886  1.0000
  C   C27       1.0  0.18409  0.65172  0.54885  1.0000
  C   C28       1.0  0.34828  0.81591  0.95114  1.0000
  N   N1        1.0  0.84679  0.37702  0.63103  1.0000
  N   N2        1.0  0.62298  0.15321  0.86896  1.0000
  N   N3        1.0  0.15321  0.62298  0.36897  1.0000
  N   N4        1.0  0.37702  0.84679  0.13103  1.0000
  O   O1        1.0  0.68654  0.51645  0.80314  1.0000
  O   O2        1.0  0.48356  0.31346  0.69686  1.0000
  O   O3        1.0  0.31346  0.48356  0.19686  1.0000
  O   O4        1.0  0.51644  0.68654  0.30314  1.0000
  O   O5        1.0  0.92355  0.41400  0.89163  1.0000
  O   O6        1.0  0.58601  0.07644  0.60837  1.0000
  O   O7        1.0  0.07644  0.58600  0.10837  1.0000
  O   O8        1.0  0.41399  0.92356  0.39163  1.0000
  O   O9        1.0  0.65602  0.42558  0.47088  1.0000
  O   O10       1.0  0.57441  0.34398  0.02912  1.0000
  O   O11       1.0  0.34398  0.57442  0.52912  1.0000
  O   O12       1.0  0.42559  0.65601  0.97088  1.0000
  O   O13       1.0  0.89083  0.31045  0.36250  1.0000
  O   O14       1.0  0.68955  0.10917  0.13749  1.0000
  O   O15       1.0  0.10917  0.68954  0.63750  1.0000
  O   O16       1.0  0.31046  0.89082  0.86250  1.0000
  O   O17       1.0  0.23626  0.41234  0.94069  1.0000
  O   O18       1.0  0.58765  0.76374  0.55932  1.0000
  O   O19       1.0  0.76374  0.58766  0.05932  1.0000
  O   O20       1.0  0.41234  0.23626  0.44069  1.0000
  O   O21       1.0  0.36975  0.63024  0.75000  1.0000
  O   O22       1.0  0.63024  0.36975  0.25000  1.0000
