data_image0
_chemical_formula_structural       Er4H32C28N4O32
_chemical_formula_sum              "Er4 H32 C28 N4 O32"
_cell_length_a       7.443
_cell_length_b       9.2431
_cell_length_c       15.6577
_cell_angle_alpha    105.431
_cell_angle_beta     89.9986
_cell_angle_gamma    89.9996

_space_group_name_H-M_alt    "P 1"
_space_group_IT_number       1

loop_
  _space_group_symop_operation_xyz
  'x, y, z'

loop_
  _atom_site_type_symbol
  _atom_site_label
  _atom_site_symmetry_multiplicity
  _atom_site_fract_x
  _atom_site_fract_y
  _atom_site_fract_z
  _atom_site_occupancy
  Er  Er1       1.0  0.17943  0.99445  0.74961  1.0000
  Er  Er2       1.0  0.67944  0.50555  0.75040  1.0000
  Er  Er3       1.0  0.82058  0.00557  0.25040  1.0000
  Er  Er4       1.0  0.32056  0.49444  0.24960  1.0000
  H   H1        1.0  0.88386  0.19234  0.80501  1.0000
  H   H2        1.0  0.38386  0.30767  0.69500  1.0000
  H   H3        1.0  0.11614  0.80766  0.19499  1.0000
  H   H4        1.0  0.61614  0.69233  0.30501  1.0000
  H   H5        1.0  0.91983  0.14619  0.89745  1.0000
  H   H6        1.0  0.41984  0.35381  0.60255  1.0000
  H   H7        1.0  0.08016  0.85380  0.10255  1.0000
  H   H8        1.0  0.58016  0.64619  0.39745  1.0000
  H   H9        1.0  0.50198  0.80618  0.69688  1.0000
  H   H10       1.0  0.00198  0.69383  0.80311  1.0000
  H   H11       1.0  0.49801  0.19382  0.30312  1.0000
  H   H12       1.0  0.99802  0.30617  0.19688  1.0000
  H   H13       1.0  0.47206  0.82285  0.79531  1.0000
  H   H14       1.0  0.97206  0.67717  0.70469  1.0000
  H   H15       1.0  0.52794  0.17716  0.20469  1.0000
  H   H16       1.0  0.02795  0.32283  0.29530  1.0000
  H   H17       1.0  0.43754  0.88065  0.57437  1.0000
  H   H18       1.0  0.93753  0.61936  0.92563  1.0000
  H   H19       1.0  0.56247  0.11936  0.42564  1.0000
  H   H20       1.0  0.06247  0.38065  0.07437  1.0000
  H   H21       1.0  0.28978  0.99376  0.56116  1.0000
  H   H22       1.0  0.78976  0.50625  0.93883  1.0000
  H   H23       1.0  0.71023  0.00624  0.43884  1.0000
  H   H24       1.0  0.21024  0.49376  0.06116  1.0000
  H   H25       1.0  0.54247  0.38345  0.01611  1.0000
  H   H26       1.0  0.04249  0.11653  0.48389  1.0000
  H   H27       1.0  0.45753  0.61653  0.98390  1.0000
  H   H28       1.0  0.95753  0.88347  0.51610  1.0000
  H   H29       1.0  0.27144  0.03627  0.10504  1.0000
  H   H30       1.0  0.77146  0.46373  0.39496  1.0000
  H   H31       1.0  0.72854  0.96371  0.89496  1.0000
  H   H32       1.0  0.22854  0.53629  0.60504  1.0000
  C   C1        1.0  0.14923  0.88161  0.93402  1.0000
  C   C2        1.0  0.64922  0.61839  0.56597  1.0000
  C   C3        1.0  0.85077  0.11839  0.06597  1.0000
  C   C4        1.0  0.35077  0.38161  0.43402  1.0000
  C   C5        1.0  0.25851  0.02439  0.96532  1.0000
  C   C6        1.0  0.75850  0.47561  0.53468  1.0000
  C   C7        1.0  0.74147  0.97558  0.03467  1.0000
  C   C8        1.0  0.24148  0.52440  0.46532  1.0000
  C   C9        1.0  0.39882  0.21375  0.91843  1.0000
  C   C10       1.0  0.89882  0.28625  0.58157  1.0000
  C   C11       1.0  0.60118  0.78624  0.08158  1.0000
  C   C12       1.0  0.10118  0.71375  0.41843  1.0000
  C   C13       1.0  0.43158  0.27630  0.84062  1.0000
  C   C14       1.0  0.93158  0.22371  0.65938  1.0000
  C   C15       1.0  0.56843  0.72368  0.15938  1.0000
  C   C16       1.0  0.06843  0.77630  0.34062  1.0000
  C   C17       1.0  0.46052  0.28251  0.00284  1.0000
  C   C18       1.0  0.96052  0.21748  0.49717  1.0000
  C   C19       1.0  0.53950  0.71748  0.99717  1.0000
  C   C20       1.0  0.03949  0.78253  0.50283  1.0000
  C   C21       1.0  0.40898  0.22329  0.07373  1.0000
  C   C22       1.0  0.90899  0.27671  0.42627  1.0000
  C   C23       1.0  0.59101  0.77670  0.92627  1.0000
  C   C24       1.0  0.09101  0.72332  0.57373  1.0000
  C   C25       1.0  0.30995  0.08730  0.05255  1.0000
  C   C26       1.0  0.80997  0.41270  0.44744  1.0000
  C   C27       1.0  0.69002  0.91268  0.94744  1.0000
  C   C28       1.0  0.19003  0.58732  0.55255  1.0000
  N   N1        1.0  0.29815  0.08842  0.89971  1.0000
  N   N2        1.0  0.79814  0.41158  0.60028  1.0000
  N   N3        1.0  0.70186  0.91157  0.10029  1.0000
  N   N4        1.0  0.20186  0.58843  0.39971  1.0000
  O   O1        1.0  0.10074  0.80563  0.98601  1.0000
  O   O2        1.0  0.60073  0.69437  0.51398  1.0000
  O   O3        1.0  0.89925  0.19436  0.01398  1.0000
  O   O4        1.0  0.39926  0.30563  0.48602  1.0000
  O   O5        1.0  0.11120  0.84716  0.85094  1.0000
  O   O6        1.0  0.61119  0.65284  0.64905  1.0000
  O   O7        1.0  0.88880  0.15283  0.14906  1.0000
  O   O8        1.0  0.38879  0.34716  0.35094  1.0000
  O   O9        1.0  0.34095  0.21574  0.77053  1.0000
  O   O10       1.0  0.84096  0.28428  0.72947  1.0000
  O   O11       1.0  0.65906  0.78425  0.22947  1.0000
  O   O12       1.0  0.15905  0.71572  0.27052  1.0000
  O   O13       1.0  0.54110  0.38330  0.84780  1.0000
  O   O14       1.0  0.04109  0.11671  0.65221  1.0000
  O   O15       1.0  0.45893  0.61669  0.15221  1.0000
  O   O16       1.0  0.95892  0.88331  0.34779  1.0000
  O   O17       1.0  0.45110  0.29324  0.15589  1.0000
  O   O18       1.0  0.95112  0.20674  0.34411  1.0000
  O   O19       1.0  0.54887  0.70673  0.84411  1.0000
  O   O20       1.0  0.04888  0.79327  0.65589  1.0000
  O   O21       1.0  0.93620  0.11504  0.83202  1.0000
  O   O22       1.0  0.43620  0.38498  0.66798  1.0000
  O   O23       1.0  0.06380  0.88496  0.16798  1.0000
  O   O24       1.0  0.56379  0.61503  0.33202  1.0000
  O   O25       1.0  0.44157  0.87621  0.74891  1.0000
  O   O26       1.0  0.94156  0.62381  0.75109  1.0000
  O   O27       1.0  0.55843  0.12380  0.25109  1.0000
  O   O28       1.0  0.05844  0.37619  0.24890  1.0000
  O   O29       1.0  0.36520  0.96823  0.60579  1.0000
  O   O30       1.0  0.86519  0.53179  0.89421  1.0000
  O   O31       1.0  0.63482  0.03179  0.39421  1.0000
  O   O32       1.0  0.13483  0.46822  0.10579  1.0000
