data_image0
_chemical_formula_structural       Sn4H40C20S8N8
_chemical_formula_sum              "Sn4 H40 C20 S8 N8"
_cell_length_a       8.76241
_cell_length_b       10.101
_cell_length_c       10.9146
_cell_angle_alpha    89.9994
_cell_angle_beta     90.0001
_cell_angle_gamma    92.6167

_space_group_name_H-M_alt    "P 1"
_space_group_IT_number       1

loop_
  _space_group_symop_operation_xyz
  'x, y, z'

loop_
  _atom_site_type_symbol
  _atom_site_label
  _atom_site_symmetry_multiplicity
  _atom_site_fract_x
  _atom_site_fract_y
  _atom_site_fract_z
  _atom_site_occupancy
  Sn  Sn1       1.0  0.79704  0.66058  0.78060  1.0000
  Sn  Sn2       1.0  0.70295  0.83942  0.28061  1.0000
  Sn  Sn3       1.0  0.20297  0.33941  0.21940  1.0000
  Sn  Sn4       1.0  0.29703  0.16058  0.71940  1.0000
  H   H1        1.0  0.12269  0.83891  0.30302  1.0000
  H   H2        1.0  0.37727  0.66109  0.80300  1.0000
  H   H3        1.0  0.87729  0.16110  0.69699  1.0000
  H   H4        1.0  0.62272  0.33890  0.19697  1.0000
  H   H5        1.0  0.83723  0.60039  0.54095  1.0000
  H   H6        1.0  0.66279  0.89959  0.04095  1.0000
  H   H7        1.0  0.16280  0.39958  0.45906  1.0000
  H   H8        1.0  0.33721  0.10042  0.95905  1.0000
  H   H9        1.0  0.76900  0.45486  0.62033  1.0000
  H   H10       1.0  0.73101  0.04513  0.12032  1.0000
  H   H11       1.0  0.23103  0.54513  0.37969  1.0000
  H   H12       1.0  0.26898  0.95487  0.87969  1.0000
  H   H13       1.0  0.96709  0.50663  0.62959  1.0000
  H   H14       1.0  0.53292  0.99336  0.12957  1.0000
  H   H15       1.0  0.03294  0.49334  0.37043  1.0000
  H   H16       1.0  0.46707  0.00665  0.87043  1.0000
  H   H17       1.0  0.72939  0.53662  0.99600  1.0000
  H   H18       1.0  0.77061  0.96339  0.49601  1.0000
  H   H19       1.0  0.27060  0.46339  0.00401  1.0000
  H   H20       1.0  0.22940  0.03662  0.50400  1.0000
  H   H21       1.0  0.57688  0.50216  0.88846  1.0000
  H   H22       1.0  0.92312  0.99784  0.38846  1.0000
  H   H23       1.0  0.42312  0.49785  0.11153  1.0000
  H   H24       1.0  0.07688  0.00215  0.61153  1.0000
  H   H25       1.0  0.59344  0.65882  0.96599  1.0000
  H   H26       1.0  0.90656  0.84118  0.46599  1.0000
  H   H27       1.0  0.40657  0.34119  0.03400  1.0000
  H   H28       1.0  0.09343  0.15881  0.53400  1.0000
  H   H29       1.0  0.71779  0.91782  0.77975  1.0000
  H   H30       1.0  0.78220  0.58218  0.27976  1.0000
  H   H31       1.0  0.28221  0.08216  0.22024  1.0000
  H   H32       1.0  0.21780  0.41784  0.72025  1.0000
  H   H33       1.0  0.88688  0.90280  0.69120  1.0000
  H   H34       1.0  0.61313  0.59721  0.19120  1.0000
  H   H35       1.0  0.11313  0.09720  0.30880  1.0000
  H   H36       1.0  0.38688  0.40279  0.80881  1.0000
  H   H37       1.0  0.89834  0.90390  0.85565  1.0000
  H   H38       1.0  0.60165  0.59609  0.35565  1.0000
  H   H39       1.0  0.10166  0.09610  0.14435  1.0000
  H   H40       1.0  0.39835  0.40390  0.64436  1.0000
  C   C1        1.0  0.05612  0.70586  0.01240  1.0000
  C   C2        1.0  0.44386  0.79415  0.51240  1.0000
  C   C3        1.0  0.94388  0.29414  0.98760  1.0000
  C   C4        1.0  0.55613  0.20585  0.48758  1.0000
  C   C5        1.0  0.08662  0.80069  0.21406  1.0000
  C   C6        1.0  0.41335  0.69931  0.71404  1.0000
  C   C7        1.0  0.91336  0.19932  0.78595  1.0000
  C   C8        1.0  0.58664  0.30068  0.28593  1.0000
  C   C9        1.0  0.85029  0.54072  0.62389  1.0000
  C   C10       1.0  0.64971  0.95927  0.12389  1.0000
  C   C11       1.0  0.14972  0.45926  0.37612  1.0000
  C   C12       1.0  0.35029  0.04073  0.87611  1.0000
  C   C13       1.0  0.65677  0.57840  0.92553  1.0000
  C   C14       1.0  0.84322  0.92160  0.42553  1.0000
  C   C15       1.0  0.34324  0.42161  0.07447  1.0000
  C   C16       1.0  0.15677  0.07840  0.57447  1.0000
  C   C17       1.0  0.82916  0.87276  0.77637  1.0000
  C   C18       1.0  0.67084  0.62724  0.27638  1.0000
  C   C19       1.0  0.17085  0.12723  0.22363  1.0000
  C   C20       1.0  0.32916  0.37277  0.72363  1.0000
  S   S1        1.0  0.07492  0.62817  0.87426  1.0000
  S   S2        1.0  0.42507  0.87185  0.37424  1.0000
  S   S3        1.0  0.92509  0.37183  0.12576  1.0000
  S   S4        1.0  0.57492  0.12816  0.62574  1.0000
  S   S5        1.0  0.21085  0.73204  0.11417  1.0000
  S   S6        1.0  0.28912  0.76796  0.61415  1.0000
  S   S7        1.0  0.78914  0.26796  0.88585  1.0000
  S   S8        1.0  0.71087  0.23203  0.38582  1.0000
  N   N1        1.0  0.92772  0.75059  0.05759  1.0000
  N   N2        1.0  0.57226  0.74943  0.55757  1.0000
  N   N3        1.0  0.07229  0.24942  0.94242  1.0000
  N   N4        1.0  0.42774  0.25059  0.44240  1.0000
  N   N5        1.0  0.94664  0.80287  0.17181  1.0000
  N   N6        1.0  0.55334  0.69713  0.67180  1.0000
  N   N7        1.0  0.05336  0.19714  0.82819  1.0000
  N   N8        1.0  0.44666  0.30287  0.32818  1.0000
