data_image0
_chemical_formula_structural       Bi4H36C40Cl8O16
_chemical_formula_sum              "Bi4 H36 C40 Cl8 O16"
_cell_length_a       8.72499
_cell_length_b       9.96363
_cell_length_c       14.452
_cell_angle_alpha    90
_cell_angle_beta     90
_cell_angle_gamma    90

_space_group_name_H-M_alt    "P 1"
_space_group_IT_number       1

loop_
  _space_group_symop_operation_xyz
  'x, y, z'

loop_
  _atom_site_type_symbol
  _atom_site_label
  _atom_site_symmetry_multiplicity
  _atom_site_fract_x
  _atom_site_fract_y
  _atom_site_fract_z
  _atom_site_occupancy
  Bi  Bi1       1.0  0.36548  0.75815  0.17763  1.0000
  Bi  Bi2       1.0  0.86548  0.24185  0.82237  1.0000
  Bi  Bi3       1.0  0.36548  0.25815  0.82237  1.0000
  Bi  Bi4       1.0  0.86548  0.74185  0.17763  1.0000
  H   H1        1.0  0.99917  0.11624  0.14007  1.0000
  H   H2        1.0  0.49917  0.88376  0.85993  1.0000
  H   H3        1.0  0.99917  0.61624  0.85993  1.0000
  H   H4        1.0  0.49917  0.38377  0.14006  1.0000
  H   H5        1.0  0.01232  0.04535  0.02690  1.0000
  H   H6        1.0  0.51232  0.95465  0.97310  1.0000
  H   H7        1.0  0.01232  0.54535  0.97310  1.0000
  H   H8        1.0  0.51232  0.45466  0.02689  1.0000
  H   H9        1.0  0.20942  0.99019  0.31371  1.0000
  H   H10       1.0  0.70942  0.00981  0.68629  1.0000
  H   H11       1.0  0.20942  0.49019  0.68630  1.0000
  H   H12       1.0  0.70942  0.50981  0.31371  1.0000
  H   H13       1.0  0.23770  0.06430  0.47621  1.0000
  H   H14       1.0  0.73769  0.93570  0.52379  1.0000
  H   H15       1.0  0.23769  0.56429  0.52379  1.0000
  H   H16       1.0  0.73769  0.43570  0.47621  1.0000
  H   H17       1.0  0.40503  0.93653  0.58478  1.0000
  H   H18       1.0  0.90502  0.06347  0.41522  1.0000
  H   H19       1.0  0.40502  0.43653  0.41523  1.0000
  H   H20       1.0  0.90502  0.56347  0.58478  1.0000
  H   H21       1.0  0.54433  0.73357  0.52888  1.0000
  H   H22       1.0  0.04433  0.26643  0.47112  1.0000
  H   H23       1.0  0.54433  0.23357  0.47112  1.0000
  H   H24       1.0  0.04433  0.76643  0.52888  1.0000
  H   H25       1.0  0.51735  0.65955  0.36704  1.0000
  H   H26       1.0  0.01735  0.34044  0.63296  1.0000
  H   H27       1.0  0.51735  0.15956  0.63296  1.0000
  H   H28       1.0  0.01735  0.84045  0.36704  1.0000
  H   H29       1.0  0.02051  0.38067  0.20168  1.0000
  H   H30       1.0  0.52051  0.61933  0.79832  1.0000
  H   H31       1.0  0.02051  0.88067  0.79832  1.0000
  H   H32       1.0  0.52051  0.11933  0.20168  1.0000
  H   H33       1.0  0.02666  0.43740  0.31827  1.0000
  H   H34       1.0  0.52666  0.56260  0.68172  1.0000
  H   H35       1.0  0.02666  0.93740  0.68172  1.0000
  H   H36       1.0  0.52666  0.06260  0.31827  1.0000
  C   C1        1.0  0.19810  0.99424  0.11687  1.0000
  C   C2        1.0  0.69810  0.00575  0.88313  1.0000
  C   C3        1.0  0.19810  0.49425  0.88313  1.0000
  C   C4        1.0  0.69810  0.50575  0.11687  1.0000
  C   C5        1.0  0.07794  0.09255  0.08323  1.0000
  C   C6        1.0  0.57795  0.90745  0.91678  1.0000
  C   C7        1.0  0.07794  0.59255  0.91678  1.0000
  C   C8        1.0  0.57794  0.40745  0.08322  1.0000
  C   C9        1.0  0.36248  0.82007  0.32854  1.0000
  C   C10       1.0  0.86248  0.17993  0.67146  1.0000
  C   C11       1.0  0.36248  0.32007  0.67146  1.0000
  C   C12       1.0  0.86248  0.67992  0.32854  1.0000
  C   C13       1.0  0.28392  0.93382  0.36018  1.0000
  C   C14       1.0  0.78392  0.06618  0.63982  1.0000
  C   C15       1.0  0.28392  0.43382  0.63982  1.0000
  C   C16       1.0  0.78392  0.56618  0.36018  1.0000
  C   C17       1.0  0.29910  0.97557  0.45221  1.0000
  C   C18       1.0  0.79909  0.02443  0.54779  1.0000
  C   C19       1.0  0.29909  0.47557  0.54779  1.0000
  C   C20       1.0  0.79909  0.52443  0.45221  1.0000
  C   C21       1.0  0.39311  0.90407  0.51307  1.0000
  C   C22       1.0  0.89310  0.09593  0.48693  1.0000
  C   C23       1.0  0.39310  0.40407  0.48694  1.0000
  C   C24       1.0  0.89310  0.59593  0.51307  1.0000
  C   C25       1.0  0.47076  0.79009  0.48189  1.0000
  C   C26       1.0  0.97076  0.20991  0.51811  1.0000
  C   C27       1.0  0.47075  0.29009  0.51811  1.0000
  C   C28       1.0  0.97076  0.70991  0.48189  1.0000
  C   C29       1.0  0.45544  0.74833  0.39007  1.0000
  C   C30       1.0  0.95544  0.25167  0.60992  1.0000
  C   C31       1.0  0.45544  0.24833  0.60993  1.0000
  C   C32       1.0  0.95544  0.75167  0.39007  1.0000
  C   C33       1.0  0.20011  0.52021  0.23181  1.0000
  C   C34       1.0  0.70011  0.47979  0.76819  1.0000
  C   C35       1.0  0.20011  0.02021  0.76819  1.0000
  C   C36       1.0  0.70011  0.97979  0.23181  1.0000
  C   C37       1.0  0.09730  0.40501  0.25938  1.0000
  C   C38       1.0  0.59730  0.59499  0.74062  1.0000
  C   C39       1.0  0.09730  0.90501  0.74062  1.0000
  C   C40       1.0  0.59729  0.09499  0.25938  1.0000
  Cl  Cl1       1.0  0.15649  0.24511  0.04033  1.0000
  Cl  Cl2       1.0  0.65649  0.75488  0.95967  1.0000
  Cl  Cl3       1.0  0.15649  0.74512  0.95967  1.0000
  Cl  Cl4       1.0  0.65648  0.25489  0.04033  1.0000
  Cl  Cl5       1.0  0.19866  0.25812  0.29242  1.0000
  Cl  Cl6       1.0  0.69866  0.74189  0.70757  1.0000
  Cl  Cl7       1.0  0.19866  0.75811  0.70757  1.0000
  Cl  Cl8       1.0  0.69866  0.24189  0.29243  1.0000
  O   O1        1.0  0.14334  0.89207  0.16168  1.0000
  O   O2        1.0  0.64334  0.10793  0.83832  1.0000
  O   O3        1.0  0.14334  0.39207  0.83833  1.0000
  O   O4        1.0  0.64334  0.60793  0.16168  1.0000
  O   O5        1.0  0.33871  0.00623  0.10123  1.0000
  O   O6        1.0  0.83871  0.99377  0.89878  1.0000
  O   O7        1.0  0.33871  0.50623  0.89878  1.0000
  O   O8        1.0  0.83871  0.49377  0.10122  1.0000
  O   O9        1.0  0.34284  0.51927  0.24347  1.0000
  O   O10       1.0  0.84284  0.48073  0.75653  1.0000
  O   O11       1.0  0.34284  0.01927  0.75653  1.0000
  O   O12       1.0  0.84284  0.98073  0.24347  1.0000
  O   O13       1.0  0.13332  0.62397  0.19582  1.0000
  O   O14       1.0  0.63333  0.37603  0.80418  1.0000
  O   O15       1.0  0.13333  0.12397  0.80419  1.0000
  O   O16       1.0  0.63332  0.87603  0.19582  1.0000
