data_image0
_chemical_formula_structural       H8Pb2C16N8O4
_chemical_formula_sum              "H8 Pb2 C16 N8 O4"
_cell_length_a       7.10896
_cell_length_b       7.38977
_cell_length_c       9.34322
_cell_angle_alpha    89.9997
_cell_angle_beta     112.311
_cell_angle_gamma    90.0016

_space_group_name_H-M_alt    "P 1"
_space_group_IT_number       1

loop_
  _space_group_symop_operation_xyz
  'x, y, z'

loop_
  _atom_site_type_symbol
  _atom_site_label
  _atom_site_symmetry_multiplicity
  _atom_site_fract_x
  _atom_site_fract_y
  _atom_site_fract_z
  _atom_site_occupancy
  H   H1        1.0  0.01218  0.77156  0.40088  1.0000
  H   H2        1.0  0.98781  0.27158  0.59912  1.0000
  H   H3        1.0  0.38859  0.22829  0.40052  1.0000
  H   H4        1.0  0.61142  0.72829  0.59948  1.0000
  H   H5        1.0  0.16449  0.76497  0.68955  1.0000
  H   H6        1.0  0.83551  0.26497  0.31046  1.0000
  H   H7        1.0  0.52504  0.23496  0.68923  1.0000
  H   H8        1.0  0.47497  0.73496  0.31076  1.0000
  Pb  Pb1       1.0  0.93922  0.00010  0.87791  1.0000
  Pb  Pb2       1.0  0.06078  0.50009  0.12209  1.0000
  C   C1        1.0  0.10600  0.00004  0.21180  1.0000
  C   C2        1.0  0.89399  0.50005  0.78821  1.0000
  C   C3        1.0  0.19175  0.99995  0.38342  1.0000
  C   C4        1.0  0.80824  0.49994  0.61658  1.0000
  C   C5        1.0  0.12743  0.87033  0.46473  1.0000
  C   C6        1.0  0.87256  0.37033  0.53528  1.0000
  C   C7        1.0  0.33727  0.12958  0.46454  1.0000
  C   C8        1.0  0.66273  0.62958  0.53546  1.0000
  C   C9        1.0  0.20769  0.87001  0.62577  1.0000
  C   C10       1.0  0.79230  0.37002  0.37422  1.0000
  C   C11       1.0  0.41811  0.12994  0.62558  1.0000
  C   C12       1.0  0.58190  0.62993  0.37442  1.0000
  C   C13       1.0  0.35375  0.99997  0.70733  1.0000
  C   C14       1.0  0.64624  0.49997  0.29267  1.0000
  C   C15       1.0  0.43839  0.99999  0.87663  1.0000
  C   C16       1.0  0.56161  0.50000  0.12337  1.0000
  N   N1        1.0  0.46565  0.98910  0.11424  1.0000
  N   N2        1.0  0.53435  0.48909  0.88576  1.0000
  N   N3        1.0  0.64866  0.01098  0.11412  1.0000
  N   N4        1.0  0.35135  0.51098  0.88588  1.0000
  N   N5        1.0  0.33006  0.98060  0.96645  1.0000
  N   N6        1.0  0.66996  0.48059  0.03355  1.0000
  N   N7        1.0  0.63648  0.01944  0.96625  1.0000
  N   N8        1.0  0.36352  0.51944  0.03375  1.0000
  O   O1        1.0  0.08497  0.14850  0.13736  1.0000
  O   O2        1.0  0.91503  0.64849  0.86264  1.0000
  O   O3        1.0  0.05254  0.85170  0.13720  1.0000
  O   O4        1.0  0.94746  0.35170  0.86280  1.0000
