data_image0
_chemical_formula_structural       Ag4H24C28N20
_chemical_formula_sum              "Ag4 H24 C28 N20"
_cell_length_a       6.63807
_cell_length_b       9.60641
_cell_length_c       12.5382
_cell_angle_alpha    106.269
_cell_angle_beta     89.9997
_cell_angle_gamma    90.0001

_space_group_name_H-M_alt    "P 1"
_space_group_IT_number       1

loop_
  _space_group_symop_operation_xyz
  'x, y, z'

loop_
  _atom_site_type_symbol
  _atom_site_label
  _atom_site_symmetry_multiplicity
  _atom_site_fract_x
  _atom_site_fract_y
  _atom_site_fract_z
  _atom_site_occupancy
  Ag  Ag1       1.0  0.33379  0.60035  0.28436  1.0000
  Ag  Ag2       1.0  0.83378  0.39965  0.21564  1.0000
  Ag  Ag3       1.0  0.66622  0.39965  0.71564  1.0000
  Ag  Ag4       1.0  0.16621  0.60035  0.78436  1.0000
  H   H1        1.0  0.31526  0.29144  0.78627  1.0000
  H   H2        1.0  0.81526  0.70856  0.71373  1.0000
  H   H3        1.0  0.68474  0.70856  0.21373  1.0000
  H   H4        1.0  0.18474  0.29144  0.28627  1.0000
  H   H5        1.0  0.27304  0.30197  0.65371  1.0000
  H   H6        1.0  0.77304  0.69803  0.84629  1.0000
  H   H7        1.0  0.72696  0.69803  0.34630  1.0000
  H   H8        1.0  0.22696  0.30197  0.15370  1.0000
  H   H9        1.0  0.18486  0.83647  0.43317  1.0000
  H   H10       1.0  0.68486  0.16353  0.06683  1.0000
  H   H11       1.0  0.81514  0.16353  0.56683  1.0000
  H   H12       1.0  0.31514  0.83646  0.93317  1.0000
  H   H13       1.0  0.43071  0.79310  0.74049  1.0000
  H   H14       1.0  0.93071  0.20690  0.75951  1.0000
  H   H15       1.0  0.56929  0.20690  0.25951  1.0000
  H   H16       1.0  0.06930  0.79311  0.24049  1.0000
  H   H17       1.0  0.45679  0.05961  0.81187  1.0000
  H   H18       1.0  0.95679  0.94038  0.68812  1.0000
  H   H19       1.0  0.54321  0.94038  0.18813  1.0000
  H   H20       1.0  0.04321  0.05962  0.31188  1.0000
  H   H21       1.0  0.22244  0.10252  0.50201  1.0000
  H   H22       1.0  0.72244  0.89748  0.99799  1.0000
  H   H23       1.0  0.77756  0.89748  0.49799  1.0000
  H   H24       1.0  0.27756  0.10252  0.00201  1.0000
  C   C1        1.0  0.33643  0.09954  0.66282  1.0000
  C   C2        1.0  0.83644  0.90047  0.83718  1.0000
  C   C3        1.0  0.66356  0.90046  0.33718  1.0000
  C   C4        1.0  0.16356  0.09953  0.16282  1.0000
  C   C5        1.0  0.27388  0.63878  0.54456  1.0000
  C   C6        1.0  0.77389  0.36122  0.95544  1.0000
  C   C7        1.0  0.72611  0.36122  0.45544  1.0000
  C   C8        1.0  0.22612  0.63878  0.04457  1.0000
  C   C9        1.0  0.24757  0.88460  0.51570  1.0000
  C   C10       1.0  0.74757  0.11540  0.98430  1.0000
  C   C11       1.0  0.75243  0.11540  0.48430  1.0000
  C   C12       1.0  0.25243  0.88460  0.01570  1.0000
  C   C13       1.0  0.37983  0.86098  0.68905  1.0000
  C   C14       1.0  0.87984  0.13902  0.81095  1.0000
  C   C15       1.0  0.62016  0.13902  0.31095  1.0000
  C   C16       1.0  0.12017  0.86098  0.18906  1.0000
  C   C17       1.0  0.39616  0.01043  0.72910  1.0000
  C   C18       1.0  0.89616  0.98956  0.77090  1.0000
  C   C19       1.0  0.60383  0.98956  0.27090  1.0000
  C   C20       1.0  0.10384  0.01044  0.22910  1.0000
  C   C21       1.0  0.26589  0.03420  0.55450  1.0000
  C   C22       1.0  0.76589  0.96579  0.94550  1.0000
  C   C23       1.0  0.73411  0.96580  0.44550  1.0000
  C   C24       1.0  0.23411  0.03420  0.05450  1.0000
  C   C25       1.0  0.30215  0.79500  0.58247  1.0000
  C   C26       1.0  0.80216  0.20500  0.91752  1.0000
  C   C27       1.0  0.69784  0.20500  0.41753  1.0000
  C   C28       1.0  0.19785  0.79500  0.08247  1.0000
  N   N1        1.0  0.28242  0.55457  0.43873  1.0000
  N   N2        1.0  0.78242  0.44543  0.06127  1.0000
  N   N3        1.0  0.71758  0.44543  0.56127  1.0000
  N   N4        1.0  0.21758  0.55458  0.93873  1.0000
  N   N5        1.0  0.22977  0.55355  0.61050  1.0000
  N   N6        1.0  0.72977  0.44645  0.88950  1.0000
  N   N7        1.0  0.77023  0.44645  0.38950  1.0000
  N   N8        1.0  0.27023  0.55354  0.11050  1.0000
  N   N9        1.0  0.34860  0.25025  0.70307  1.0000
  N   N10       1.0  0.84860  0.74974  0.79693  1.0000
  N   N11       1.0  0.65140  0.74974  0.29693  1.0000
  N   N12       1.0  0.15140  0.25026  0.20307  1.0000
  N   N13       1.0  0.21159  0.41664  0.54374  1.0000
  N   N14       1.0  0.71159  0.58336  0.95625  1.0000
  N   N15       1.0  0.78841  0.58336  0.45625  1.0000
  N   N16       1.0  0.28841  0.41664  0.04374  1.0000
  N   N17       1.0  0.24254  0.41722  0.44099  1.0000
  N   N18       1.0  0.74254  0.58278  0.05901  1.0000
  N   N19       1.0  0.75746  0.58278  0.55901  1.0000
  N   N20       1.0  0.25746  0.41722  0.94099  1.0000
