data_image0
_chemical_formula_structural       Mn4H32C64N16O32
_chemical_formula_sum              "Mn4 H32 C64 N16 O32"
_cell_length_a       8.29004
_cell_length_b       11.8294
_cell_length_c       16.45
_cell_angle_alpha    90
_cell_angle_beta     90
_cell_angle_gamma    93.1011

_space_group_name_H-M_alt    "P 1"
_space_group_IT_number       1

loop_
  _space_group_symop_operation_xyz
  'x, y, z'

loop_
  _atom_site_type_symbol
  _atom_site_label
  _atom_site_symmetry_multiplicity
  _atom_site_fract_x
  _atom_site_fract_y
  _atom_site_fract_z
  _atom_site_occupancy
  Mn  Mn1       1.0  0.99809  0.81900  0.43677  1.0000
  Mn  Mn2       1.0  0.00192  0.68101  0.93677  1.0000
  Mn  Mn3       1.0  0.00188  0.18100  0.56325  1.0000
  Mn  Mn4       1.0  0.99809  0.31900  0.06324  1.0000
  H   H1        1.0  0.62900  0.90038  0.35698  1.0000
  H   H2        1.0  0.37100  0.59962  0.85698  1.0000
  H   H3        1.0  0.37101  0.09962  0.64302  1.0000
  H   H4        1.0  0.62899  0.40038  0.14302  1.0000
  H   H5        1.0  0.14130  0.66656  0.14312  1.0000
  H   H6        1.0  0.85869  0.83343  0.64313  1.0000
  H   H7        1.0  0.85869  0.33343  0.85688  1.0000
  H   H8        1.0  0.14131  0.16657  0.35687  1.0000
  H   H9        1.0  0.46575  0.79010  0.61722  1.0000
  H   H10       1.0  0.53425  0.70990  0.11722  1.0000
  H   H11       1.0  0.53424  0.20989  0.38278  1.0000
  H   H12       1.0  0.46575  0.29011  0.88278  1.0000
  H   H13       1.0  0.76924  0.46706  0.30647  1.0000
  H   H14       1.0  0.23075  0.03293  0.80647  1.0000
  H   H15       1.0  0.23077  0.53294  0.69353  1.0000
  H   H16       1.0  0.76924  0.96706  0.19352  1.0000
  H   H17       1.0  0.51291  0.05604  0.28285  1.0000
  H   H18       1.0  0.48709  0.44396  0.78285  1.0000
  H   H19       1.0  0.48708  0.94396  0.71715  1.0000
  H   H20       1.0  0.51291  0.55605  0.21715  1.0000
  H   H21       1.0  0.46563  0.12460  0.14364  1.0000
  H   H22       1.0  0.53437  0.37540  0.64364  1.0000
  H   H23       1.0  0.53437  0.87540  0.85636  1.0000
  H   H24       1.0  0.46563  0.62460  0.35636  1.0000
  H   H25       1.0  0.25530  0.02442  0.05597  1.0000
  H   H26       1.0  0.74470  0.47557  0.55597  1.0000
  H   H27       1.0  0.74470  0.97557  0.94403  1.0000
  H   H28       1.0  0.25530  0.52443  0.44403  1.0000
  H   H29       1.0  0.09518  0.86008  0.11043  1.0000
  H   H30       1.0  0.90482  0.63992  0.61043  1.0000
  H   H31       1.0  0.90482  0.13992  0.88957  1.0000
  H   H32       1.0  0.09518  0.36008  0.38957  1.0000
  C   C1        1.0  0.65607  0.84352  0.52523  1.0000
  C   C2        1.0  0.34393  0.65648  0.02522  1.0000
  C   C3        1.0  0.34393  0.15648  0.47478  1.0000
  C   C4        1.0  0.65606  0.34352  0.97478  1.0000
  C   C5        1.0  0.51569  0.84976  0.47055  1.0000
  C   C6        1.0  0.48431  0.65024  0.97055  1.0000
  C   C7        1.0  0.48432  0.15024  0.52945  1.0000
  C   C8        1.0  0.51568  0.34976  0.02945  1.0000
  C   C9        1.0  0.35194  0.82776  0.48629  1.0000
  C   C10       1.0  0.64806  0.67224  0.98629  1.0000
  C   C11       1.0  0.64807  0.17224  0.51370  1.0000
  C   C12       1.0  0.35193  0.32777  0.01370  1.0000
  C   C13       1.0  0.26057  0.78861  0.55872  1.0000
  C   C14       1.0  0.73943  0.71138  0.05872  1.0000
  C   C15       1.0  0.73944  0.21139  0.44128  1.0000
  C   C16       1.0  0.26057  0.28862  0.94128  1.0000
  C   C17       1.0  0.36948  0.88215  0.35986  1.0000
  C   C18       1.0  0.63052  0.61785  0.85986  1.0000
  C   C19       1.0  0.63053  0.11785  0.64014  1.0000
  C   C20       1.0  0.36947  0.38215  0.14014  1.0000
  C   C21       1.0  0.33154  0.91861  0.27725  1.0000
  C   C22       1.0  0.66847  0.58139  0.77725  1.0000
  C   C23       1.0  0.66847  0.08139  0.72275  1.0000
  C   C24       1.0  0.33153  0.41861  0.22275  1.0000
  C   C25       1.0  0.42126  0.01250  0.24515  1.0000
  C   C26       1.0  0.57874  0.48750  0.74516  1.0000
  C   C27       1.0  0.57873  0.98750  0.75485  1.0000
  C   C28       1.0  0.42126  0.51250  0.25485  1.0000
  C   C29       1.0  0.39402  0.05156  0.16676  1.0000
  C   C30       1.0  0.60598  0.44843  0.66676  1.0000
  C   C31       1.0  0.60597  0.94843  0.83324  1.0000
  C   C32       1.0  0.39403  0.55157  0.33324  1.0000
  C   C33       1.0  0.27690  0.99638  0.11796  1.0000
  C   C34       1.0  0.72310  0.50362  0.61796  1.0000
  C   C35       1.0  0.72310  0.00362  0.88204  1.0000
  C   C36       1.0  0.27690  0.49638  0.38204  1.0000
  C   C37       1.0  0.18718  0.90291  0.14847  1.0000
  C   C38       1.0  0.81282  0.59709  0.64847  1.0000
  C   C39       1.0  0.81282  0.09708  0.85154  1.0000
  C   C40       1.0  0.18719  0.40291  0.35153  1.0000
  C   C41       1.0  0.21145  0.86291  0.22784  1.0000
  C   C42       1.0  0.78855  0.63709  0.72785  1.0000
  C   C43       1.0  0.78855  0.13709  0.77216  1.0000
  C   C44       1.0  0.21145  0.36291  0.27215  1.0000
  C   C45       1.0  0.11298  0.76135  0.25130  1.0000
  C   C46       1.0  0.88702  0.73864  0.75130  1.0000
  C   C47       1.0  0.88702  0.23864  0.74870  1.0000
  C   C48       1.0  0.11298  0.26136  0.24869  1.0000
  C   C49       1.0  0.91139  0.49729  0.18575  1.0000
  C   C50       1.0  0.08860  0.00271  0.68575  1.0000
  C   C51       1.0  0.08861  0.50271  0.81425  1.0000
  C   C52       1.0  0.91139  0.99729  0.31424  1.0000
  C   C53       1.0  0.97366  0.59785  0.23075  1.0000
  C   C54       1.0  0.02635  0.90215  0.73075  1.0000
  C   C55       1.0  0.02634  0.40215  0.76925  1.0000
  C   C56       1.0  0.97366  0.09785  0.26925  1.0000
  C   C57       1.0  0.94103  0.63910  0.30770  1.0000
  C   C58       1.0  0.05897  0.86090  0.80769  1.0000
  C   C59       1.0  0.05897  0.36090  0.69231  1.0000
  C   C60       1.0  0.94104  0.13911  0.19230  1.0000
  C   C61       1.0  0.84591  0.59214  0.37598  1.0000
  C   C62       1.0  0.15410  0.90787  0.87598  1.0000
  C   C63       1.0  0.15410  0.40787  0.62403  1.0000
  C   C64       1.0  0.84592  0.09213  0.12402  1.0000
  N   N1        1.0  0.52366  0.88343  0.39046  1.0000
  N   N2        1.0  0.47634  0.61657  0.89046  1.0000
  N   N3        1.0  0.47635  0.11657  0.60954  1.0000
  N   N4        1.0  0.52365  0.38343  0.10954  1.0000
  N   N5        1.0  0.26443  0.84841  0.41787  1.0000
  N   N6        1.0  0.73557  0.65159  0.91787  1.0000
  N   N7        1.0  0.73557  0.15159  0.58213  1.0000
  N   N8        1.0  0.26443  0.34841  0.08213  1.0000
  N   N9        1.0  0.02753  0.73983  0.31936  1.0000
  N   N10       1.0  0.97247  0.76017  0.81936  1.0000
  N   N11       1.0  0.97247  0.26017  0.68064  1.0000
  N   N12       1.0  0.02754  0.23983  0.18064  1.0000
  N   N13       1.0  0.08270  0.67516  0.19764  1.0000
  N   N14       1.0  0.91730  0.82484  0.69764  1.0000
  N   N15       1.0  0.91729  0.32484  0.80236  1.0000
  N   N16       1.0  0.08270  0.17516  0.30236  1.0000
  O   O1        1.0  0.79498  0.87019  0.49810  1.0000
  O   O2        1.0  0.20503  0.62981  0.99810  1.0000
  O   O3        1.0  0.20503  0.12980  0.50189  1.0000
  O   O4        1.0  0.79496  0.37019  0.00190  1.0000
  O   O5        1.0  0.62759  0.81464  0.59923  1.0000
  O   O6        1.0  0.37242  0.68536  0.09923  1.0000
  O   O7        1.0  0.37242  0.18536  0.40077  1.0000
  O   O8        1.0  0.62758  0.31464  0.90077  1.0000
  O   O9        1.0  0.33696  0.77409  0.62704  1.0000
  O   O10       1.0  0.66304  0.72591  0.12705  1.0000
  O   O11       1.0  0.66304  0.22591  0.37295  1.0000
  O   O12       1.0  0.33696  0.27409  0.87295  1.0000
  O   O13       1.0  0.11066  0.77113  0.55210  1.0000
  O   O14       1.0  0.88933  0.72887  0.05210  1.0000
  O   O15       1.0  0.88934  0.22887  0.44790  1.0000
  O   O16       1.0  0.11066  0.27114  0.94791  1.0000
  O   O17       1.0  0.98171  0.47851  0.11942  1.0000
  O   O18       1.0  0.01828  0.02150  0.61942  1.0000
  O   O19       1.0  0.01829  0.52150  0.88058  1.0000
  O   O20       1.0  0.98172  0.97850  0.38057  1.0000
  O   O21       1.0  0.79140  0.43839  0.21618  1.0000
  O   O22       1.0  0.20860  0.06161  0.71618  1.0000
  O   O23       1.0  0.20861  0.56161  0.78382  1.0000
  O   O24       1.0  0.79140  0.93839  0.28382  1.0000
  O   O25       1.0  0.76231  0.49513  0.36646  1.0000
  O   O26       1.0  0.23769  0.00487  0.86646  1.0000
  O   O27       1.0  0.23769  0.50487  0.63354  1.0000
  O   O28       1.0  0.76231  0.99513  0.13354  1.0000
  O   O29       1.0  0.84837  0.64450  0.44189  1.0000
  O   O30       1.0  0.15164  0.85550  0.94189  1.0000
  O   O31       1.0  0.15163  0.35550  0.55811  1.0000
  O   O32       1.0  0.84838  0.14449  0.05811  1.0000
