data_image0
_chemical_formula_structural       Co2H26C28N12O8
_chemical_formula_sum              "Co2 H26 C28 N12 O8"
_cell_length_a       9.25648
_cell_length_b       9.48069
_cell_length_c       10.6554
_cell_angle_alpha    65.8415
_cell_angle_beta     67.3337
_cell_angle_gamma    89.1241

_space_group_name_H-M_alt    "P 1"
_space_group_IT_number       1

loop_
  _space_group_symop_operation_xyz
  'x, y, z'

loop_
  _atom_site_type_symbol
  _atom_site_label
  _atom_site_symmetry_multiplicity
  _atom_site_fract_x
  _atom_site_fract_y
  _atom_site_fract_z
  _atom_site_occupancy
  Co  Co1       1.0  0.62485  0.67656  0.23429  1.0000
  Co  Co2       1.0  0.37513  0.32344  0.76572  1.0000
  H   H1        1.0  0.38175  0.86971  0.12621  1.0000
  H   H2        1.0  0.61824  0.13029  0.87379  1.0000
  H   H3        1.0  0.71312  0.85898  0.87909  1.0000
  H   H4        1.0  0.28689  0.14101  0.12091  1.0000
  H   H5        1.0  0.70355  0.49752  0.50951  1.0000
  H   H6        1.0  0.29644  0.50247  0.49053  1.0000
  H   H7        1.0  0.20323  0.80954  0.01686  1.0000
  H   H8        1.0  0.79678  0.19047  0.98313  1.0000
  H   H9        1.0  0.22807  0.50526  0.04936  1.0000
  H   H10       1.0  0.77195  0.49475  0.95062  1.0000
  H   H11       1.0  0.44202  0.42279  0.17952  1.0000
  H   H12       1.0  0.55799  0.57721  0.82047  1.0000
  H   H13       1.0  0.95543  0.85865  0.66339  1.0000
  H   H14       1.0  0.04460  0.14136  0.33662  1.0000
  H   H15       1.0  0.15284  0.69451  0.79176  1.0000
  H   H16       1.0  0.84718  0.30550  0.20828  1.0000
  H   H17       1.0  0.97850  0.60442  0.09683  1.0000
  H   H18       1.0  0.02148  0.39560  0.90320  1.0000
  H   H19       1.0  0.91075  0.58106  0.58688  1.0000
  H   H20       1.0  0.08930  0.41894  0.41307  1.0000
  H   H21       1.0  0.07445  0.87026  0.35354  1.0000
  H   H22       1.0  0.92556  0.12975  0.64640  1.0000
  H   H23       1.0  0.92346  0.93069  0.16132  1.0000
  H   H24       1.0  0.07646  0.06929  0.83869  1.0000
  H   H25       1.0  0.55490  0.22344  0.25300  1.0000
  H   H26       1.0  0.44510  0.77655  0.74701  1.0000
  C   C1        1.0  0.27217  0.72714  0.06307  1.0000
  C   C2        1.0  0.72783  0.27286  0.93692  1.0000
  C   C3        1.0  0.28637  0.57438  0.08130  1.0000
  C   C4        1.0  0.71364  0.42563  0.91869  1.0000
  C   C5        1.0  0.39577  0.53131  0.14670  1.0000
  C   C6        1.0  0.60424  0.46870  0.85328  1.0000
  C   C7        1.0  0.93953  0.80094  0.78024  1.0000
  C   C8        1.0  0.06049  0.19907  0.21978  1.0000
  C   C9        1.0  0.03651  0.71886  0.84699  1.0000
  C   C10       1.0  0.96350  0.28114  0.15304  1.0000
  C   C11       1.0  0.94926  0.67239  0.00252  1.0000
  C   C12       1.0  0.05074  0.32763  0.99750  1.0000
  C   C13       1.0  0.89658  0.65177  0.48400  1.0000
  C   C14       1.0  0.10346  0.34822  0.51597  1.0000
  C   C15       1.0  0.97528  0.79839  0.36618  1.0000
  C   C16       1.0  0.02473  0.20160  0.63378  1.0000
  C   C17       1.0  0.90199  0.82840  0.26622  1.0000
  C   C18       1.0  0.09798  0.17158  0.73377  1.0000
  C   C19       1.0  0.53567  0.15538  0.47798  1.0000
  C   C20       1.0  0.46434  0.84462  0.52202  1.0000
  C   C21       1.0  0.50507  0.02758  0.61878  1.0000
  C   C22       1.0  0.49494  0.97242  0.38122  1.0000
  C   C23       1.0  0.52974  0.12462  0.36206  1.0000
  C   C24       1.0  0.47026  0.87537  0.63794  1.0000
  C   C25       1.0  0.57725  0.32172  0.44888  1.0000
  C   C26       1.0  0.42273  0.67828  0.55112  1.0000
  C   C27       1.0  0.50886  0.04416  0.75229  1.0000
  C   C28       1.0  0.49114  0.95583  0.24771  1.0000
  N   N1        1.0  0.44571  0.65017  0.16631  1.0000
  N   N2        1.0  0.55429  0.34984  0.83368  1.0000
  N   N3        1.0  0.36921  0.76789  0.11421  1.0000
  N   N4        1.0  0.63078  0.23211  0.88580  1.0000
  N   N5        1.0  0.80884  0.72282  0.02917  1.0000
  N   N6        1.0  0.19115  0.27720  0.97085  1.0000
  N   N7        1.0  0.80499  0.80023  0.89242  1.0000
  N   N8        1.0  0.19502  0.19978  0.10759  1.0000
  N   N9        1.0  0.78746  0.70726  0.31876  1.0000
  N   N10       1.0  0.21251  0.29272  0.68126  1.0000
  N   N11       1.0  0.78586  0.60165  0.45144  1.0000
  N   N12       1.0  0.21415  0.39833  0.54857  1.0000
  O   O1        1.0  0.61701  0.43040  0.31573  1.0000
  O   O2        1.0  0.38298  0.56959  0.68427  1.0000
  O   O3        1.0  0.57440  0.34564  0.55973  1.0000
  O   O4        1.0  0.42557  0.65436  0.44028  1.0000
  O   O5        1.0  0.39022  0.08697  0.83136  1.0000
  O   O6        1.0  0.60978  0.91304  0.16864  1.0000
  O   O7        1.0  0.62667  0.00598  0.78398  1.0000
  O   O8        1.0  0.37332  0.99402  0.21603  1.0000
