data_image0
_chemical_formula_structural       Cu4H44C32S4N20O12
_chemical_formula_sum              "Cu4 H44 C32 S4 N20 O12"
_cell_length_a       9.16287
_cell_length_b       11.2102
_cell_length_c       11.426
_cell_angle_alpha    90
_cell_angle_beta     91.2608
_cell_angle_gamma    90

_space_group_name_H-M_alt    "P 1"
_space_group_IT_number       1

loop_
  _space_group_symop_operation_xyz
  'x, y, z'

loop_
  _atom_site_type_symbol
  _atom_site_label
  _atom_site_symmetry_multiplicity
  _atom_site_fract_x
  _atom_site_fract_y
  _atom_site_fract_z
  _atom_site_occupancy
  Cu  Cu1       1.0  0.83342  0.56315  0.30699  1.0000
  Cu  Cu2       1.0  0.66659  0.06316  0.69303  1.0000
  Cu  Cu3       1.0  0.16658  0.43684  0.69303  1.0000
  Cu  Cu4       1.0  0.33342  0.93685  0.30698  1.0000
  H   H1        1.0  0.87644  0.37721  0.55379  1.0000
  H   H2        1.0  0.62352  0.87723  0.44624  1.0000
  H   H3        1.0  0.12352  0.62277  0.44624  1.0000
  H   H4        1.0  0.37644  0.12279  0.55379  1.0000
  H   H5        1.0  0.72979  0.39838  0.65172  1.0000
  H   H6        1.0  0.77013  0.89837  0.34828  1.0000
  H   H7        1.0  0.27012  0.60163  0.34828  1.0000
  H   H8        1.0  0.22979  0.10162  0.65172  1.0000
  H   H9        1.0  0.60700  0.32290  0.48292  1.0000
  H   H10       1.0  0.89296  0.82288  0.51705  1.0000
  H   H11       1.0  0.39295  0.67712  0.51705  1.0000
  H   H12       1.0  0.10700  0.17710  0.48291  1.0000
  H   H13       1.0  0.58257  0.47908  0.46783  1.0000
  H   H14       1.0  0.91740  0.97905  0.53216  1.0000
  H   H15       1.0  0.41740  0.52095  0.53216  1.0000
  H   H16       1.0  0.08257  0.02092  0.46783  1.0000
  H   H17       1.0  0.52208  0.42405  0.27975  1.0000
  H   H18       1.0  0.97790  0.92408  0.72024  1.0000
  H   H19       1.0  0.47790  0.57592  0.72023  1.0000
  H   H20       1.0  0.02208  0.07595  0.27974  1.0000
  H   H21       1.0  0.59966  0.28119  0.26183  1.0000
  H   H22       1.0  0.90041  0.78120  0.73816  1.0000
  H   H23       1.0  0.40041  0.71880  0.73816  1.0000
  H   H24       1.0  0.09966  0.21881  0.26183  1.0000
  H   H25       1.0  0.91187  0.61731  0.05591  1.0000
  H   H26       1.0  0.58817  0.11731  0.94410  1.0000
  H   H27       1.0  0.08817  0.38270  0.94410  1.0000
  H   H28       1.0  0.41186  0.88269  0.05591  1.0000
  H   H29       1.0  0.83217  0.53799  0.85662  1.0000
  H   H30       1.0  0.66783  0.03796  0.14338  1.0000
  H   H31       1.0  0.16784  0.46204  0.14338  1.0000
  H   H32       1.0  0.33217  0.96201  0.85662  1.0000
  H   H33       1.0  0.64428  0.37285  0.85090  1.0000
  H   H34       1.0  0.85571  0.87280  0.14910  1.0000
  H   H35       1.0  0.35571  0.62720  0.14909  1.0000
  H   H36       1.0  0.14428  0.12715  0.85090  1.0000
  H   H37       1.0  0.54539  0.29734  0.03852  1.0000
  H   H38       1.0  0.95462  0.79731  0.96148  1.0000
  H   H39       1.0  0.45463  0.70268  0.96147  1.0000
  H   H40       1.0  0.04539  0.20267  0.03851  1.0000
  H   H41       1.0  0.81402  0.34521  0.35431  1.0000
  H   H42       1.0  0.68598  0.84518  0.64570  1.0000
  H   H43       1.0  0.18597  0.65481  0.64570  1.0000
  H   H44       1.0  0.31402  0.15479  0.35431  1.0000
  C   C1        1.0  0.77485  0.42629  0.56797  1.0000
  C   C2        1.0  0.72510  0.92630  0.43204  1.0000
  C   C3        1.0  0.22510  0.57370  0.43204  1.0000
  C   C4        1.0  0.27485  0.07371  0.56797  1.0000
  C   C5        1.0  0.66400  0.40782  0.46925  1.0000
  C   C6        1.0  0.83596  0.90780  0.53074  1.0000
  C   C7        1.0  0.33596  0.59220  0.53073  1.0000
  C   C8        1.0  0.16400  0.09218  0.46925  1.0000
  C   C9        1.0  0.62444  0.37730  0.26071  1.0000
  C   C10       1.0  0.87557  0.87729  0.73929  1.0000
  C   C11       1.0  0.37557  0.62271  0.73929  1.0000
  C   C12       1.0  0.12444  0.12270  0.26071  1.0000
  C   C13       1.0  0.67768  0.41624  0.14393  1.0000
  C   C14       1.0  0.82234  0.91623  0.85607  1.0000
  C   C15       1.0  0.32234  0.58377  0.85607  1.0000
  C   C16       1.0  0.17768  0.08376  0.14392  1.0000
  C   C17       1.0  0.83070  0.54684  0.04518  1.0000
  C   C18       1.0  0.66935  0.04683  0.95482  1.0000
  C   C19       1.0  0.16935  0.45317  0.95482  1.0000
  C   C20       1.0  0.33069  0.95316  0.04518  1.0000
  C   C21       1.0  0.78533  0.50295  0.93656  1.0000
  C   C22       1.0  0.71469  0.00291  0.06344  1.0000
  C   C23       1.0  0.21470  0.49709  0.06344  1.0000
  C   C24       1.0  0.28533  0.99705  0.93656  1.0000
  C   C25       1.0  0.68130  0.41184  0.93352  1.0000
  C   C26       1.0  0.81871  0.91180  0.06647  1.0000
  C   C27       1.0  0.31871  0.58820  0.06647  1.0000
  C   C28       1.0  0.18130  0.08816  0.93352  1.0000
  C   C29       1.0  0.62686  0.36819  0.03804  1.0000
  C   C30       1.0  0.87316  0.86816  0.96196  1.0000
  C   C31       1.0  0.37317  0.63183  0.96195  1.0000
  C   C32       1.0  0.12686  0.13182  0.03803  1.0000
  S   S1        1.0  0.82442  0.57971  0.58628  1.0000
  S   S2        1.0  0.67555  0.07971  0.41373  1.0000
  S   S3        1.0  0.17555  0.42029  0.41373  1.0000
  S   S4        1.0  0.32442  0.92029  0.58627  1.0000
  N   N1        1.0  0.95402  0.68991  0.23756  1.0000
  N   N2        1.0  0.54600  0.18993  0.76249  1.0000
  N   N3        1.0  0.04600  0.31007  0.76249  1.0000
  N   N4        1.0  0.45403  0.81009  0.23756  1.0000
  N   N5        1.0  0.01951  0.76861  0.28662  1.0000
  N   N6        1.0  0.48052  0.26862  0.71340  1.0000
  N   N7        1.0  0.98051  0.23137  0.71339  1.0000
  N   N8        1.0  0.51951  0.73139  0.28662  1.0000
  N   N9        1.0  0.08438  0.84841  0.32907  1.0000
  N   N10       1.0  0.41568  0.34840  0.67090  1.0000
  N   N11       1.0  0.91568  0.15160  0.67090  1.0000
  N   N12       1.0  0.58438  0.65159  0.32907  1.0000
  N   N13       1.0  0.73233  0.40835  0.35367  1.0000
  N   N14       1.0  0.76765  0.90834  0.64633  1.0000
  N   N15       1.0  0.26765  0.59166  0.64633  1.0000
  N   N16       1.0  0.23233  0.09165  0.35367  1.0000
  N   N17       1.0  0.77788  0.50444  0.14573  1.0000
  N   N18       1.0  0.72215  0.00443  0.85427  1.0000
  N   N19       1.0  0.22215  0.49557  0.85427  1.0000
  N   N20       1.0  0.27788  0.99557  0.14573  1.0000
  O   O1        1.0  0.88540  0.61731  0.47061  1.0000
  O   O2        1.0  0.61459  0.11733  0.52940  1.0000
  O   O3        1.0  0.11460  0.38267  0.52939  1.0000
  O   O4        1.0  0.38540  0.88269  0.47061  1.0000
  O   O5        1.0  0.69234  0.64578  0.61513  1.0000
  O   O6        1.0  0.80765  0.14576  0.38488  1.0000
  O   O7        1.0  0.30765  0.35424  0.38488  1.0000
  O   O8        1.0  0.19233  0.85423  0.61512  1.0000
  O   O9        1.0  0.93962  0.58524  0.67779  1.0000
  O   O10       1.0  0.56037  0.08526  0.32221  1.0000
  O   O11       1.0  0.06036  0.41474  0.32221  1.0000
  O   O12       1.0  0.43961  0.91475  0.67779  1.0000
