data_image0
_chemical_formula_structural       CdH28C26N4O8
_chemical_formula_sum              "Cd1 H28 C26 N4 O8"
_cell_length_a       7.48869
_cell_length_b       8.68015
_cell_length_c       11.1227
_cell_angle_alpha    95.2807
_cell_angle_beta     102.526
_cell_angle_gamma    111.505

_space_group_name_H-M_alt    "P 1"
_space_group_IT_number       1

loop_
  _space_group_symop_operation_xyz
  'x, y, z'

loop_
  _atom_site_type_symbol
  _atom_site_label
  _atom_site_symmetry_multiplicity
  _atom_site_fract_x
  _atom_site_fract_y
  _atom_site_fract_z
  _atom_site_occupancy
  Cd  Cd1       1.0  0.00000  0.00000  1.00000  1.0000
  H   H1        1.0  0.66889  0.32125  0.88674  1.0000
  H   H2        1.0  0.33111  0.67875  0.11327  1.0000
  H   H3        1.0  0.54027  0.23155  0.11096  1.0000
  H   H4        1.0  0.45973  0.76845  0.88904  1.0000
  H   H5        1.0  0.78823  0.68317  0.74273  1.0000
  H   H6        1.0  0.21178  0.31683  0.25728  1.0000
  H   H7        1.0  0.01876  0.66386  0.79861  1.0000
  H   H8        1.0  0.98125  0.33614  0.20139  1.0000
  H   H9        1.0  0.89885  0.86176  0.25374  1.0000
  H   H10       1.0  0.10115  0.13823  0.74626  1.0000
  H   H11       1.0  0.20993  0.07382  0.42327  1.0000
  H   H12       1.0  0.79008  0.92619  0.57673  1.0000
  H   H13       1.0  0.56828  0.36828  0.32418  1.0000
  H   H14       1.0  0.43172  0.63171  0.67582  1.0000
  H   H15       1.0  0.74357  0.67728  0.39520  1.0000
  H   H16       1.0  0.25643  0.32272  0.60480  1.0000
  H   H17       1.0  0.73685  0.31356  0.53816  1.0000
  H   H18       1.0  0.26315  0.68644  0.46184  1.0000
  H   H19       1.0  0.95389  0.50734  0.59067  1.0000
  H   H20       1.0  0.04611  0.49266  0.40933  1.0000
  H   H21       1.0  0.71123  0.51166  0.54141  1.0000
  H   H22       1.0  0.28877  0.48834  0.45859  1.0000
  H   H23       1.0  0.65552  0.90989  0.34640  1.0000
  H   H24       1.0  0.34449  0.09012  0.65360  1.0000
  H   H25       1.0  0.68316  0.06906  0.99416  1.0000
  H   H26       1.0  0.31684  0.93093  0.00584  1.0000
  H   H27       1.0  0.64901  0.99104  0.11610  1.0000
  H   H28       1.0  0.35099  0.00896  0.88390  1.0000
  C   C1        1.0  0.81745  0.58770  0.91140  1.0000
  C   C2        1.0  0.18255  0.41229  0.08860  1.0000
  C   C3        1.0  0.70702  0.47110  0.06434  1.0000
  C   C4        1.0  0.29297  0.52890  0.93566  1.0000
  C   C5        1.0  0.61924  0.36708  0.14187  1.0000
  C   C6        1.0  0.38075  0.63292  0.85813  1.0000
  C   C7        1.0  0.42537  0.99163  0.37095  1.0000
  C   C8        1.0  0.57464  0.00837  0.62905  1.0000
  C   C9        1.0  0.85644  0.60116  0.78641  1.0000
  C   C10       1.0  0.14356  0.39884  0.21359  1.0000
  C   C11       1.0  0.34268  0.98139  0.23316  1.0000
  C   C12       1.0  0.65732  0.01860  0.76684  1.0000
  C   C13       1.0  0.80464  0.64870  0.10301  1.0000
  C   C14       1.0  0.19535  0.35130  0.89699  1.0000
  C   C15       1.0  0.82025  0.72561  0.22315  1.0000
  C   C16       1.0  0.17975  0.27438  0.77685  1.0000
  C   C17       1.0  0.33693  0.04141  0.45791  1.0000
  C   C18       1.0  0.66308  0.95860  0.54209  1.0000
  C   C19       1.0  0.63573  0.44552  0.26120  1.0000
  C   C20       1.0  0.36426  0.55448  0.73880  1.0000
  C   C21       1.0  0.73509  0.62145  0.30120  1.0000
  C   C22       1.0  0.26491  0.37855  0.69880  1.0000
  C   C23       1.0  0.79598  0.44358  0.58924  1.0000
  C   C24       1.0  0.20402  0.55642  0.41076  1.0000
  C   C25       1.0  0.58930  0.95048  0.41441  1.0000
  C   C26       1.0  0.41070  0.04952  0.58559  1.0000
  N   N1        1.0  0.87065  0.71753  0.00469  1.0000
  N   N2        1.0  0.12934  0.28247  0.99531  1.0000
  N   N3        1.0  0.72027  0.43814  0.94303  1.0000
  N   N4        1.0  0.27973  0.56186  0.05697  1.0000
  O   O1        1.0  0.21239  0.04183  0.20283  1.0000
  O   O2        1.0  0.78762  0.95817  0.79716  1.0000
  O   O3        1.0  0.75324  0.05510  0.07759  1.0000
  O   O4        1.0  0.24676  0.94490  0.92241  1.0000
  O   O5        1.0  0.40895  0.91372  0.15482  1.0000
  O   O6        1.0  0.59105  0.08628  0.84518  1.0000
  O   O7        1.0  0.77505  0.43664  0.71273  1.0000
  O   O8        1.0  0.22495  0.56336  0.28727  1.0000
