data_image0
_chemical_formula_structural       Mn4H20C16N12O24
_chemical_formula_sum              "Mn4 H20 C16 N12 O24"
_cell_length_a       7.04812
_cell_length_b       10.2511
_cell_length_c       10.3854
_cell_angle_alpha    90
_cell_angle_beta     94.3427
_cell_angle_gamma    90

_space_group_name_H-M_alt    "P 1"
_space_group_IT_number       1

loop_
  _space_group_symop_operation_xyz
  'x, y, z'

loop_
  _atom_site_type_symbol
  _atom_site_label
  _atom_site_symmetry_multiplicity
  _atom_site_fract_x
  _atom_site_fract_y
  _atom_site_fract_z
  _atom_site_occupancy
  Mn  Mn1       1.0  0.18519  0.11567  0.82787  1.0000
  Mn  Mn2       1.0  0.81480  0.61567  0.67213  1.0000
  Mn  Mn3       1.0  0.81481  0.88433  0.17213  1.0000
  Mn  Mn4       1.0  0.18519  0.38433  0.32787  1.0000
  H   H1        1.0  0.39601  0.81550  0.43226  1.0000
  H   H2        1.0  0.60399  0.31550  0.06775  1.0000
  H   H3        1.0  0.60399  0.18450  0.56774  1.0000
  H   H4        1.0  0.39601  0.68450  0.93226  1.0000
  H   H5        1.0  0.84382  0.00083  0.72027  1.0000
  H   H6        1.0  0.15617  0.50083  0.77973  1.0000
  H   H7        1.0  0.15618  0.99917  0.27973  1.0000
  H   H8        1.0  0.84382  0.49917  0.22027  1.0000
  H   H9        1.0  0.93433  0.90179  0.82483  1.0000
  H   H10       1.0  0.06567  0.40179  0.67517  1.0000
  H   H11       1.0  0.06567  0.09821  0.17517  1.0000
  H   H12       1.0  0.93433  0.59821  0.32483  1.0000
  H   H13       1.0  0.35396  0.91304  0.94998  1.0000
  H   H14       1.0  0.64604  0.41304  0.55002  1.0000
  H   H15       1.0  0.64605  0.08696  0.05002  1.0000
  H   H16       1.0  0.35395  0.58696  0.44998  1.0000
  H   H17       1.0  0.22338  0.97260  0.06091  1.0000
  H   H18       1.0  0.77661  0.47260  0.43909  1.0000
  H   H19       1.0  0.77662  0.02740  0.93909  1.0000
  H   H20       1.0  0.22338  0.52740  0.56091  1.0000
  C   C1        1.0  0.20874  0.06091  0.54592  1.0000
  C   C2        1.0  0.79126  0.56091  0.95409  1.0000
  C   C3        1.0  0.79126  0.93909  0.45408  1.0000
  C   C4        1.0  0.20874  0.43909  0.04592  1.0000
  C   C5        1.0  0.35506  0.89280  0.62436  1.0000
  C   C6        1.0  0.64494  0.39279  0.87564  1.0000
  C   C7        1.0  0.64494  0.10721  0.37564  1.0000
  C   C8        1.0  0.35506  0.60721  0.12436  1.0000
  C   C9        1.0  0.10971  0.18932  0.54440  1.0000
  C   C10       1.0  0.89029  0.68932  0.95560  1.0000
  C   C11       1.0  0.89029  0.81068  0.45560  1.0000
  C   C12       1.0  0.10970  0.31068  0.04440  1.0000
  C   C13       1.0  0.45335  0.79074  0.70881  1.0000
  C   C14       1.0  0.54665  0.29073  0.79119  1.0000
  C   C15       1.0  0.54665  0.20927  0.29119  1.0000
  C   C16       1.0  0.45335  0.70927  0.20881  1.0000
  N   N1        1.0  0.26916  0.00227  0.65931  1.0000
  N   N2        1.0  0.73083  0.50227  0.84069  1.0000
  N   N3        1.0  0.73084  0.99773  0.34069  1.0000
  N   N4        1.0  0.26916  0.49773  0.15931  1.0000
  N   N5        1.0  0.25202  0.99201  0.44264  1.0000
  N   N6        1.0  0.74798  0.49201  0.05736  1.0000
  N   N7        1.0  0.74798  0.00799  0.55736  1.0000
  N   N8        1.0  0.25202  0.50799  0.94264  1.0000
  N   N9        1.0  0.34442  0.88727  0.49391  1.0000
  N   N10       1.0  0.65558  0.38727  0.00610  1.0000
  N   N11       1.0  0.65558  0.11273  0.50610  1.0000
  N   N12       1.0  0.34442  0.61273  0.99390  1.0000
  O   O1        1.0  0.08052  0.23527  0.65565  1.0000
  O   O2        1.0  0.91948  0.73527  0.84435  1.0000
  O   O3        1.0  0.91948  0.76474  0.34435  1.0000
  O   O4        1.0  0.08051  0.26474  0.15565  1.0000
  O   O5        1.0  0.06081  0.24223  0.43707  1.0000
  O   O6        1.0  0.93919  0.74223  0.06293  1.0000
  O   O7        1.0  0.93920  0.75777  0.56294  1.0000
  O   O8        1.0  0.06080  0.25777  0.93706  1.0000
  O   O9        1.0  0.54008  0.70550  0.64679  1.0000
  O   O10       1.0  0.45991  0.20550  0.85322  1.0000
  O   O11       1.0  0.45991  0.29450  0.35321  1.0000
  O   O12       1.0  0.54009  0.79450  0.14679  1.0000
  O   O13       1.0  0.44155  0.79832  0.82931  1.0000
  O   O14       1.0  0.55845  0.29831  0.67069  1.0000
  O   O15       1.0  0.55845  0.20168  0.17069  1.0000
  O   O16       1.0  0.44155  0.70168  0.32930  1.0000
  O   O17       1.0  0.91166  0.99710  0.80839  1.0000
  O   O18       1.0  0.08834  0.49710  0.69161  1.0000
  O   O19       1.0  0.08834  0.00290  0.19161  1.0000
  O   O20       1.0  0.91166  0.50290  0.30839  1.0000
  O   O21       1.0  0.27597  0.98652  0.97597  1.0000
  O   O22       1.0  0.72403  0.48652  0.52403  1.0000
  O   O23       1.0  0.72403  0.01348  0.02403  1.0000
  O   O24       1.0  0.27597  0.51348  0.47598  1.0000
