data_image0
_chemical_formula_structural       Cu4H40C48N24O4
_chemical_formula_sum              "Cu4 H40 C48 N24 O4"
_cell_length_a       6.82127
_cell_length_b       13.362
_cell_length_c       14.6398
_cell_angle_alpha    73.7936
_cell_angle_beta     76.7461
_cell_angle_gamma    75.2628

_space_group_name_H-M_alt    "P 1"
_space_group_IT_number       1

loop_
  _space_group_symop_operation_xyz
  'x, y, z'

loop_
  _atom_site_type_symbol
  _atom_site_label
  _atom_site_symmetry_multiplicity
  _atom_site_fract_x
  _atom_site_fract_y
  _atom_site_fract_z
  _atom_site_occupancy
  Cu  Cu1       1.0  0.02551  0.75224  0.75933  1.0000
  Cu  Cu2       1.0  0.53702  0.74749  0.74069  1.0000
  Cu  Cu3       1.0  0.97450  0.24776  0.24067  1.0000
  Cu  Cu4       1.0  0.46300  0.25251  0.25931  1.0000
  H   H1        1.0  0.24246  0.95435  0.67650  1.0000
  H   H2        1.0  0.87310  0.54542  0.82349  1.0000
  H   H3        1.0  0.75754  0.04565  0.32350  1.0000
  H   H4        1.0  0.12690  0.45458  0.17651  1.0000
  H   H5        1.0  0.21285  0.88800  0.60802  1.0000
  H   H6        1.0  0.71023  0.61161  0.89206  1.0000
  H   H7        1.0  0.78715  0.11200  0.39197  1.0000
  H   H8        1.0  0.28977  0.38839  0.10794  1.0000
  H   H9        1.0  0.44188  0.78711  0.51228  1.0000
  H   H10       1.0  0.74315  0.71301  0.98736  1.0000
  H   H11       1.0  0.55813  0.21288  0.48772  1.0000
  H   H12       1.0  0.25685  0.28699  0.01264  1.0000
  H   H13       1.0  0.52620  0.83613  0.33224  1.0000
  H   H14       1.0  0.69831  0.66392  0.16738  1.0000
  H   H15       1.0  0.47378  0.16387  0.66777  1.0000
  H   H16       1.0  0.30167  0.33608  0.83262  1.0000
  H   H17       1.0  0.86063  0.88175  0.24878  1.0000
  H   H18       1.0  0.99556  0.61811  0.25121  1.0000
  H   H19       1.0  0.13934  0.11825  0.75123  1.0000
  H   H20       1.0  0.00441  0.38189  0.74879  1.0000
  H   H21       1.0  0.12220  0.88779  0.33911  1.0000
  H   H22       1.0  0.35239  0.61184  0.16122  1.0000
  H   H23       1.0  0.87779  0.11221  0.66088  1.0000
  H   H24       1.0  0.64759  0.38817  0.83879  1.0000
  H   H25       1.0  0.07124  0.94187  0.86931  1.0000
  H   H26       1.0  0.88119  0.55879  0.63067  1.0000
  H   H27       1.0  0.92877  0.05814  0.13069  1.0000
  H   H28       1.0  0.11882  0.44121  0.36932  1.0000
  H   H29       1.0  0.93430  0.10271  0.93707  1.0000
  H   H30       1.0  0.97272  0.39804  0.56279  1.0000
  H   H31       1.0  0.06571  0.89730  0.06293  1.0000
  H   H32       1.0  0.02728  0.60196  0.43720  1.0000
  H   H33       1.0  0.56910  0.19109  0.94856  1.0000
  H   H34       1.0  0.70810  0.30890  0.55134  1.0000
  H   H35       1.0  0.43091  0.80892  0.05143  1.0000
  H   H36       1.0  0.29189  0.69110  0.44865  1.0000
  H   H37       1.0  0.31863  0.12370  0.89332  1.0000
  H   H38       1.0  0.33569  0.37552  0.60672  1.0000
  H   H39       1.0  0.68138  0.87630  0.10668  1.0000
  H   H40       1.0  0.66430  0.62448  0.39328  1.0000
  C   C1        1.0  0.73950  0.80843  0.52649  1.0000
  C   C2        1.0  0.07613  0.69150  0.97346  1.0000
  C   C3        1.0  0.26050  0.19157  0.47351  1.0000
  C   C4        1.0  0.92386  0.30850  0.02654  1.0000
  C   C5        1.0  0.58877  0.80812  0.47530  1.0000
  C   C6        1.0  0.87443  0.69196  0.02444  1.0000
  C   C7        1.0  0.41123  0.19188  0.52470  1.0000
  C   C8        1.0  0.12556  0.30804  0.97556  1.0000
  C   C9        1.0  0.63700  0.83579  0.37555  1.0000
  C   C10       1.0  0.85154  0.66422  0.12420  1.0000
  C   C11       1.0  0.36299  0.16421  0.62445  1.0000
  C   C12       1.0  0.14845  0.33578  0.87581  1.0000
  C   C13       1.0  0.82873  0.86298  0.32729  1.0000
  C   C14       1.0  0.02256  0.63689  0.17267  1.0000
  C   C15       1.0  0.17125  0.13702  0.67270  1.0000
  C   C16       1.0  0.97741  0.36311  0.82733  1.0000
  C   C17       1.0  0.97610  0.86637  0.37726  1.0000
  C   C18       1.0  0.22268  0.63332  0.12292  1.0000
  C   C19       1.0  0.02389  0.13363  0.62273  1.0000
  C   C20       1.0  0.77730  0.36668  0.87709  1.0000
  C   C21       1.0  0.92922  0.83898  0.47885  1.0000
  C   C22       1.0  0.24905  0.66076  0.02132  1.0000
  C   C23       1.0  0.07079  0.16102  0.52115  1.0000
  C   C24       1.0  0.75095  0.33924  0.97868  1.0000
  C   C25       1.0  0.76654  0.94198  0.84405  1.0000
  C   C26       1.0  0.55202  0.55800  0.65588  1.0000
  C   C27       1.0  0.23347  0.05803  0.15595  1.0000
  C   C28       1.0  0.44799  0.44200  0.34412  1.0000
  C   C29       1.0  0.90856  0.97997  0.87503  1.0000
  C   C30       1.0  0.76255  0.52045  0.62488  1.0000
  C   C31       1.0  0.09145  0.02003  0.12497  1.0000
  C   C32       1.0  0.23745  0.47955  0.37512  1.0000
  C   C33       1.0  0.83113  0.07032  0.91138  1.0000
  C   C34       1.0  0.81184  0.43012  0.58844  1.0000
  C   C35       1.0  0.16889  0.92968  0.08862  1.0000
  C   C36       1.0  0.18816  0.56988  0.41155  1.0000
  C   C37       1.0  0.62084  0.12197  0.91720  1.0000
  C   C38       1.0  0.65934  0.37805  0.58268  1.0000
  C   C39       1.0  0.37917  0.87804  0.08279  1.0000
  C   C40       1.0  0.34065  0.62195  0.41732  1.0000
  C   C41       1.0  0.48064  0.08510  0.88673  1.0000
  C   C42       1.0  0.45222  0.41446  0.61326  1.0000
  C   C43       1.0  0.51938  0.91491  0.11327  1.0000
  C   C44       1.0  0.54777  0.58554  0.38674  1.0000
  C   C45       1.0  0.55572  0.99351  0.84983  1.0000
  C   C46       1.0  0.39882  0.50609  0.65013  1.0000
  C   C47       1.0  0.44430  0.00649  0.15017  1.0000
  C   C48       1.0  0.60118  0.49391  0.34987  1.0000
  N   N1        1.0  0.92694  0.79519  0.63186  1.0000
  N   N2        1.0  0.35473  0.70445  0.86837  1.0000
  N   N3        1.0  0.07307  0.20481  0.36813  1.0000
  N   N4        1.0  0.64528  0.29555  0.13164  1.0000
  N   N5        1.0  0.74690  0.78137  0.62295  1.0000
  N   N6        1.0  0.15214  0.71845  0.87706  1.0000
  N   N7        1.0  0.25311  0.21863  0.37704  1.0000
  N   N8        1.0  0.84787  0.28155  0.12294  1.0000
  N   N9        1.0  0.04199  0.83004  0.54837  1.0000
  N   N10       1.0  0.42173  0.66954  0.95200  1.0000
  N   N11       1.0  0.95802  0.16996  0.45163  1.0000
  N   N12       1.0  0.57826  0.33046  0.04801  1.0000
  N   N13       1.0  0.59902  0.85787  0.79139  1.0000
  N   N14       1.0  0.24828  0.64162  0.70863  1.0000
  N   N15       1.0  0.40099  0.14213  0.20861  1.0000
  N   N16       1.0  0.75172  0.35837  0.29137  1.0000
  N   N17       1.0  0.78580  0.85644  0.80644  1.0000
  N   N18       1.0  0.44832  0.64341  0.69351  1.0000
  N   N19       1.0  0.21421  0.14357  0.19356  1.0000
  N   N20       1.0  0.55169  0.35658  0.30649  1.0000
  N   N21       1.0  0.45629  0.93739  0.81641  1.0000
  N   N22       1.0  0.21021  0.56190  0.68359  1.0000
  N   N23       1.0  0.54372  0.06261  0.18359  1.0000
  N   N24       1.0  0.78980  0.43810  0.31641  1.0000
  O   O1        1.0  0.26259  0.88228  0.66779  1.0000
  O   O2        1.0  0.81293  0.61747  0.83227  1.0000
  O   O3        1.0  0.73741  0.11772  0.33221  1.0000
  O   O4        1.0  0.18707  0.38253  0.16773  1.0000
