data_image0
_chemical_formula_structural       Cr4H32C68O16F24
_chemical_formula_sum              "Cr4 H32 C68 O16 F24"
_cell_length_a       6.94281
_cell_length_b       12.433
_cell_length_c       20.578
_cell_angle_alpha    90.297
_cell_angle_beta     90
_cell_angle_gamma    90

_space_group_name_H-M_alt    "P 1"
_space_group_IT_number       1

loop_
  _space_group_symop_operation_xyz
  'x, y, z'

loop_
  _atom_site_type_symbol
  _atom_site_label
  _atom_site_symmetry_multiplicity
  _atom_site_fract_x
  _atom_site_fract_y
  _atom_site_fract_z
  _atom_site_occupancy
  Cr  Cr1       1.0  0.39336  0.53609  0.01636  1.0000
  Cr  Cr2       1.0  0.39337  0.96391  0.48364  1.0000
  Cr  Cr3       1.0  0.60664  0.46392  0.98365  1.0000
  Cr  Cr4       1.0  0.60665  0.03608  0.51635  1.0000
  H   H1        1.0  0.96723  0.71157  0.89009  1.0000
  H   H2        1.0  0.96721  0.78843  0.60991  1.0000
  H   H3        1.0  0.03275  0.28843  0.10992  1.0000
  H   H4        1.0  0.03273  0.21157  0.39008  1.0000
  H   H5        1.0  0.09280  0.88424  0.84862  1.0000
  H   H6        1.0  0.09279  0.61576  0.65138  1.0000
  H   H7        1.0  0.90721  0.11576  0.15139  1.0000
  H   H8        1.0  0.90719  0.38425  0.34861  1.0000
  H   H9        1.0  0.57924  0.04438  0.91731  1.0000
  H   H10       1.0  0.57923  0.45561  0.58269  1.0000
  H   H11       1.0  0.42077  0.95563  0.08269  1.0000
  H   H12       1.0  0.42077  0.54437  0.41732  1.0000
  H   H13       1.0  0.45195  0.87143  0.95546  1.0000
  H   H14       1.0  0.45194  0.62856  0.54454  1.0000
  H   H15       1.0  0.54804  0.12859  0.04453  1.0000
  H   H16       1.0  0.54803  0.37140  0.45547  1.0000
  H   H17       1.0  0.45562  0.13631  0.71221  1.0000
  H   H18       1.0  0.45563  0.36370  0.78778  1.0000
  H   H19       1.0  0.54437  0.86369  0.28777  1.0000
  H   H20       1.0  0.54437  0.63631  0.21223  1.0000
  H   H21       1.0  0.80865  0.98028  0.75142  1.0000
  H   H22       1.0  0.80866  0.51972  0.74858  1.0000
  H   H23       1.0  0.19135  0.01971  0.24858  1.0000
  H   H24       1.0  0.19135  0.48029  0.25142  1.0000
  H   H25       1.0  0.96004  0.96246  0.64311  1.0000
  H   H26       1.0  0.96005  0.53754  0.85689  1.0000
  H   H27       1.0  0.03992  0.03753  0.35689  1.0000
  H   H28       1.0  0.03994  0.46247  0.14311  1.0000
  H   H29       1.0  0.30128  0.16102  0.81875  1.0000
  H   H30       1.0  0.30128  0.33898  0.68124  1.0000
  H   H31       1.0  0.69874  0.83897  0.18124  1.0000
  H   H32       1.0  0.69874  0.66103  0.31876  1.0000
  C   C1        1.0  0.62793  0.67826  0.95167  1.0000
  C   C2        1.0  0.62791  0.82173  0.54833  1.0000
  C   C3        1.0  0.37207  0.32175  0.04833  1.0000
  C   C4        1.0  0.37205  0.17825  0.45166  1.0000
  C   C5        1.0  0.70060  0.78020  0.92496  1.0000
  C   C6        1.0  0.70058  0.71980  0.57504  1.0000
  C   C7        1.0  0.29939  0.21981  0.07505  1.0000
  C   C8        1.0  0.29938  0.28018  0.42495  1.0000
  C   C9        1.0  0.88114  0.78449  0.89444  1.0000
  C   C10       1.0  0.88112  0.71551  0.60556  1.0000
  C   C11       1.0  0.11885  0.21552  0.10556  1.0000
  C   C12       1.0  0.11884  0.28448  0.39444  1.0000
  C   C13       1.0  0.95187  0.88191  0.87186  1.0000
  C   C14       1.0  0.95186  0.61809  0.62814  1.0000
  C   C15       1.0  0.04813  0.11809  0.12815  1.0000
  C   C16       1.0  0.04812  0.38191  0.37185  1.0000
  C   C17       1.0  0.84556  0.97721  0.87977  1.0000
  C   C18       1.0  0.84555  0.52279  0.62023  1.0000
  C   C19       1.0  0.15445  0.02279  0.12023  1.0000
  C   C20       1.0  0.15444  0.47721  0.37977  1.0000
  C   C21       1.0  0.66479  0.97231  0.90985  1.0000
  C   C22       1.0  0.66478  0.52769  0.59016  1.0000
  C   C23       1.0  0.33522  0.02770  0.09016  1.0000
  C   C24       1.0  0.33520  0.47229  0.40985  1.0000
  C   C25       1.0  0.59224  0.87470  0.93180  1.0000
  C   C26       1.0  0.59223  0.62529  0.56820  1.0000
  C   C27       1.0  0.40776  0.12531  0.06820  1.0000
  C   C28       1.0  0.40774  0.37468  0.43180  1.0000
  C   C29       1.0  0.94054  0.08357  0.85915  1.0000
  C   C30       1.0  0.94054  0.41643  0.64085  1.0000
  C   C31       1.0  0.05948  0.91643  0.14085  1.0000
  C   C32       1.0  0.05948  0.58357  0.35915  1.0000
  C   C33       1.0  0.07802  0.11567  0.91618  1.0000
  C   C34       1.0  0.07802  0.38433  0.58382  1.0000
  C   C35       1.0  0.92201  0.88433  0.08382  1.0000
  C   C36       1.0  0.92201  0.61567  0.41618  1.0000
  C   C37       1.0  0.79325  0.17711  0.85057  1.0000
  C   C38       1.0  0.79325  0.32289  0.64943  1.0000
  C   C39       1.0  0.20678  0.82289  0.14943  1.0000
  C   C40       1.0  0.20677  0.67711  0.35057  1.0000
  C   C41       1.0  0.31731  0.03283  0.60806  1.0000
  C   C42       1.0  0.31733  0.46717  0.89194  1.0000
  C   C43       1.0  0.68266  0.96716  0.39193  1.0000
  C   C44       1.0  0.68268  0.53284  0.10807  1.0000
  C   C45       1.0  0.22005  0.04650  0.67123  1.0000
  C   C46       1.0  0.22006  0.45350  0.82877  1.0000
  C   C47       1.0  0.77993  0.95349  0.32876  1.0000
  C   C48       1.0  0.77994  0.54651  0.17124  1.0000
  C   C49       1.0  0.31359  0.10254  0.72122  1.0000
  C   C50       1.0  0.31360  0.39746  0.77878  1.0000
  C   C51       1.0  0.68640  0.89746  0.27877  1.0000
  C   C52       1.0  0.68641  0.60255  0.22123  1.0000
  C   C53       1.0  0.04488  0.07052  0.79361  1.0000
  C   C54       1.0  0.04489  0.42948  0.70639  1.0000
  C   C55       1.0  0.95512  0.92948  0.20639  1.0000
  C   C56       1.0  0.95513  0.57052  0.29361  1.0000
  C   C57       1.0  0.95078  0.01476  0.74319  1.0000
  C   C58       1.0  0.95079  0.48524  0.75682  1.0000
  C   C59       1.0  0.04922  0.98523  0.25682  1.0000
  C   C60       1.0  0.04922  0.51477  0.24319  1.0000
  C   C61       1.0  0.03614  0.00345  0.68239  1.0000
  C   C62       1.0  0.03615  0.49655  0.81761  1.0000
  C   C63       1.0  0.96385  0.99654  0.31760  1.0000
  C   C64       1.0  0.96385  0.50346  0.18240  1.0000
  C   C65       1.0  0.22606  0.11539  0.78154  1.0000
  C   C66       1.0  0.22607  0.38462  0.71846  1.0000
  C   C67       1.0  0.77395  0.88461  0.21845  1.0000
  C   C68       1.0  0.77395  0.61539  0.28155  1.0000
  O   O1        1.0  0.72557  0.59094  0.94409  1.0000
  O   O2        1.0  0.72556  0.90905  0.55591  1.0000
  O   O3        1.0  0.27442  0.40906  0.05592  1.0000
  O   O4        1.0  0.27441  0.09093  0.44408  1.0000
  O   O5        1.0  0.23248  0.98284  0.56120  1.0000
  O   O6        1.0  0.23250  0.51716  0.93880  1.0000
  O   O7        1.0  0.76749  0.01715  0.43879  1.0000
  O   O8        1.0  0.76750  0.48284  0.06120  1.0000
  O   O9        1.0  0.46783  0.67729  0.98319  1.0000
  O   O10       1.0  0.46780  0.82271  0.51681  1.0000
  O   O11       1.0  0.53217  0.32273  0.01681  1.0000
  O   O12       1.0  0.53215  0.17727  0.48319  1.0000
  O   O13       1.0  0.48938  0.06976  0.60058  1.0000
  O   O14       1.0  0.48940  0.43024  0.89942  1.0000
  O   O15       1.0  0.51060  0.93023  0.39941  1.0000
  O   O16       1.0  0.51060  0.56976  0.10059  1.0000
  F   F1        1.0  0.98608  0.11067  0.97419  1.0000
  F   F2        1.0  0.98608  0.38934  0.52581  1.0000
  F   F3        1.0  0.01395  0.88933  0.02581  1.0000
  F   F4        1.0  0.01395  0.61066  0.47419  1.0000
  F   F5        1.0  0.23125  0.04729  0.91932  1.0000
  F   F6        1.0  0.23125  0.45271  0.58068  1.0000
  F   F7        1.0  0.76878  0.95271  0.08067  1.0000
  F   F8        1.0  0.76877  0.54729  0.41933  1.0000
  F   F9        1.0  0.15088  0.21734  0.91125  1.0000
  F   F10       1.0  0.15089  0.28267  0.58875  1.0000
  F   F11       1.0  0.84914  0.78267  0.08874  1.0000
  F   F12       1.0  0.84915  0.71733  0.41126  1.0000
  F   F13       1.0  0.71181  0.21097  0.90728  1.0000
  F   F14       1.0  0.71181  0.28903  0.59272  1.0000
  F   F15       1.0  0.28823  0.78904  0.09272  1.0000
  F   F16       1.0  0.28822  0.71096  0.40728  1.0000
  F   F17       1.0  0.87593  0.26453  0.82308  1.0000
  F   F18       1.0  0.87593  0.23547  0.67692  1.0000
  F   F19       1.0  0.12410  0.73548  0.17692  1.0000
  F   F20       1.0  0.12409  0.76452  0.32308  1.0000
  F   F21       1.0  0.64662  0.14593  0.81055  1.0000
  F   F22       1.0  0.64662  0.35407  0.68946  1.0000
  F   F23       1.0  0.35339  0.85408  0.18946  1.0000
  F   F24       1.0  0.35339  0.64593  0.31055  1.0000
