data_image0
_chemical_formula_structural       Gd4H20C40O36
_chemical_formula_sum              "Gd4 H20 C40 O36"
_cell_length_a       7.11869
_cell_length_b       8.78059
_cell_length_c       18.0464
_cell_angle_alpha    100.961
_cell_angle_beta     90
_cell_angle_gamma    90

_space_group_name_H-M_alt    "P 1"
_space_group_IT_number       1

loop_
  _space_group_symop_operation_xyz
  'x, y, z'

loop_
  _atom_site_type_symbol
  _atom_site_label
  _atom_site_symmetry_multiplicity
  _atom_site_fract_x
  _atom_site_fract_y
  _atom_site_fract_z
  _atom_site_occupancy
  Gd  Gd1       1.0  0.52723  0.85134  0.75495  1.0000
  Gd  Gd2       1.0  0.02723  0.64866  0.74505  1.0000
  Gd  Gd3       1.0  0.47276  0.14865  0.24505  1.0000
  Gd  Gd4       1.0  0.97276  0.35134  0.25494  1.0000
  H   H1        1.0  0.50296  0.16300  0.71188  1.0000
  H   H2        1.0  0.00295  0.33701  0.78812  1.0000
  H   H3        1.0  0.49705  0.83700  0.28814  1.0000
  H   H4        1.0  0.99705  0.66299  0.21187  1.0000
  H   H5        1.0  0.34632  0.16986  0.77492  1.0000
  H   H6        1.0  0.84632  0.33015  0.72508  1.0000
  H   H7        1.0  0.65368  0.83014  0.22509  1.0000
  H   H8        1.0  0.15367  0.66985  0.27491  1.0000
  H   H9        1.0  0.93275  0.27328  0.92647  1.0000
  H   H10       1.0  0.43275  0.22673  0.57354  1.0000
  H   H11       1.0  0.06727  0.72668  0.07352  1.0000
  H   H12       1.0  0.56724  0.77331  0.42650  1.0000
  H   H13       1.0  0.84237  0.52240  0.47771  1.0000
  H   H14       1.0  0.34237  0.97761  0.02228  1.0000
  H   H15       1.0  0.15764  0.47769  0.52226  1.0000
  H   H16       1.0  0.65764  0.02232  0.97774  1.0000
  H   H17       1.0  0.66968  0.69965  0.94517  1.0000
  H   H18       1.0  0.16967  0.80035  0.55483  1.0000
  H   H19       1.0  0.33032  0.30032  0.05482  1.0000
  H   H20       1.0  0.83032  0.19969  0.44518  1.0000
  C   C1        1.0  0.34222  0.54228  0.64912  1.0000
  C   C2        1.0  0.84222  0.95772  0.85088  1.0000
  C   C3        1.0  0.65779  0.45773  0.35086  1.0000
  C   C4        1.0  0.15779  0.04226  0.14914  1.0000
  C   C5        1.0  0.43109  0.51887  0.57319  1.0000
  C   C6        1.0  0.93109  0.98114  0.92680  1.0000
  C   C7        1.0  0.56891  0.48120  0.42679  1.0000
  C   C8        1.0  0.06892  0.01881  0.07321  1.0000
  C   C9        1.0  0.62471  0.53209  0.56156  1.0000
  C   C10       1.0  0.12471  0.96792  0.93844  1.0000
  C   C11       1.0  0.37530  0.46797  0.43842  1.0000
  C   C12       1.0  0.87530  0.03204  0.06158  1.0000
  C   C13       1.0  0.76023  0.56118  0.62554  1.0000
  C   C14       1.0  0.26023  0.93883  0.87445  1.0000
  C   C15       1.0  0.23977  0.43887  0.37444  1.0000
  C   C16       1.0  0.73978  0.06113  0.12556  1.0000
  C   C17       1.0  0.69232  0.51308  0.48786  1.0000
  C   C18       1.0  0.19232  0.98694  0.01214  1.0000
  C   C19       1.0  0.30768  0.48700  0.51212  1.0000
  C   C20       1.0  0.80769  0.01301  0.98788  1.0000
  C   C21       1.0  0.36769  0.59538  0.86296  1.0000
  C   C22       1.0  0.86768  0.90463  0.63704  1.0000
  C   C23       1.0  0.63232  0.40458  0.13703  1.0000
  C   C24       1.0  0.13230  0.09540  0.36297  1.0000
  C   C25       1.0  0.59696  0.61181  0.96963  1.0000
  C   C26       1.0  0.09695  0.88820  0.53037  1.0000
  C   C27       1.0  0.40305  0.38817  0.03035  1.0000
  C   C28       1.0  0.90303  0.11184  0.46965  1.0000
  C   C29       1.0  0.43846  0.54012  0.93212  1.0000
  C   C30       1.0  0.93844  0.95990  0.56788  1.0000
  C   C31       1.0  0.56155  0.45986  0.06787  1.0000
  C   C32       1.0  0.06153  0.04015  0.43214  1.0000
  C   C33       1.0  0.34198  0.42611  0.96240  1.0000
  C   C34       1.0  0.84197  0.07389  0.53760  1.0000
  C   C35       1.0  0.65802  0.57384  0.03759  1.0000
  C   C36       1.0  0.15800  0.92616  0.46241  1.0000
  C   C37       1.0  0.18366  0.33900  0.91874  1.0000
  C   C38       1.0  0.68366  0.16100  0.58126  1.0000
  C   C39       1.0  0.81634  0.66096  0.08125  1.0000
  C   C40       1.0  0.31633  0.83903  0.41876  1.0000
  O   O1        1.0  0.41605  0.09936  0.73539  1.0000
  O   O2        1.0  0.91605  0.40065  0.76461  1.0000
  O   O3        1.0  0.58395  0.90064  0.26463  1.0000
  O   O4        1.0  0.08395  0.59935  0.23538  1.0000
  O   O5        1.0  0.31372  0.68685  0.68076  1.0000
  O   O6        1.0  0.81372  0.81314  0.81924  1.0000
  O   O7        1.0  0.68627  0.31313  0.31924  1.0000
  O   O8        1.0  0.18627  0.18685  0.18076  1.0000
  O   O9        1.0  0.70087  0.61696  0.69268  1.0000
  O   O10       1.0  0.20087  0.88304  0.80732  1.0000
  O   O11       1.0  0.29912  0.38305  0.30730  1.0000
  O   O12       1.0  0.79912  0.11693  0.19270  1.0000
  O   O13       1.0  0.48802  0.64972  0.82378  1.0000
  O   O14       1.0  0.98801  0.85028  0.67622  1.0000
  O   O15       1.0  0.51199  0.35024  0.17621  1.0000
  O   O16       1.0  0.01197  0.14975  0.32379  1.0000
  O   O17       1.0  0.19090  0.58872  0.85049  1.0000
  O   O18       1.0  0.69090  0.91128  0.64952  1.0000
  O   O19       1.0  0.80911  0.41125  0.14950  1.0000
  O   O20       1.0  0.30909  0.08874  0.35050  1.0000
  O   O21       1.0  0.93271  0.53141  0.61376  1.0000
  O   O22       1.0  0.43271  0.96860  0.88624  1.0000
  O   O23       1.0  0.06729  0.46862  0.38623  1.0000
  O   O24       1.0  0.56729  0.03137  0.11377  1.0000
  O   O25       1.0  0.27621  0.43242  0.67548  1.0000
  O   O26       1.0  0.77621  0.06757  0.82451  1.0000
  O   O27       1.0  0.72383  0.56753  0.32447  1.0000
  O   O28       1.0  0.22382  0.93244  0.17552  1.0000
  O   O29       1.0  0.02614  0.33733  0.95888  1.0000
  O   O30       1.0  0.52612  0.16269  0.54113  1.0000
  O   O31       1.0  0.97389  0.66263  0.04111  1.0000
  O   O32       1.0  0.47385  0.83738  0.45890  1.0000
  O   O33       1.0  0.19654  0.26988  0.85255  1.0000
  O   O34       1.0  0.69655  0.23013  0.64745  1.0000
  O   O35       1.0  0.80346  0.73010  0.14743  1.0000
  O   O36       1.0  0.30345  0.76988  0.35257  1.0000
