data_image0
_chemical_formula_structural       La2Fe4H50C72N4O16
_chemical_formula_sum              "La2 Fe4 H50 C72 N4 O16"
_cell_length_a       11.6762
_cell_length_b       12.0587
_cell_length_c       13.7122
_cell_angle_alpha    94.4406
_cell_angle_beta     109.287
_cell_angle_gamma    117.705

_space_group_name_H-M_alt    "P 1"
_space_group_IT_number       1

loop_
  _space_group_symop_operation_xyz
  'x, y, z'

loop_
  _atom_site_type_symbol
  _atom_site_label
  _atom_site_symmetry_multiplicity
  _atom_site_fract_x
  _atom_site_fract_y
  _atom_site_fract_z
  _atom_site_occupancy
  La  La1       1.0  0.20056  0.64135  0.61717  1.0000
  La  La2       1.0  0.79944  0.35865  0.38282  1.0000
  Fe  Fe1       1.0  0.14971  0.23733  0.74925  1.0000
  Fe  Fe2       1.0  0.85029  0.76267  0.25075  1.0000
  Fe  Fe3       1.0  0.77311  0.65608  0.75159  1.0000
  Fe  Fe4       1.0  0.22690  0.34392  0.24841  1.0000
  H   H1        1.0  0.48053  0.67482  0.88292  1.0000
  H   H2        1.0  0.51947  0.32518  0.11708  1.0000
  H   H3        1.0  0.92484  0.02313  0.57452  1.0000
  H   H4        1.0  0.07516  0.97688  0.42548  1.0000
  H   H5        1.0  0.15616  0.01079  0.68722  1.0000
  H   H6        1.0  0.84384  0.98922  0.31278  1.0000
  H   H7        1.0  0.39041  0.24695  0.73471  1.0000
  H   H8        1.0  0.60959  0.75305  0.26529  1.0000
  H   H9        1.0  0.30523  0.40671  0.65110  1.0000
  H   H10       1.0  0.69477  0.59329  0.34890  1.0000
  H   H11       1.0  0.98243  0.33963  0.76311  1.0000
  H   H12       1.0  0.01757  0.66037  0.23689  1.0000
  H   H13       1.0  0.91393  0.10073  0.79890  1.0000
  H   H14       1.0  0.08607  0.89927  0.20110  1.0000
  H   H15       1.0  0.15995  0.11494  0.91683  1.0000
  H   H16       1.0  0.84005  0.88506  0.08317  1.0000
  H   H17       1.0  0.37826  0.35918  0.95410  1.0000
  H   H18       1.0  0.62174  0.64082  0.04590  1.0000
  H   H19       1.0  0.57450  0.63665  0.55854  1.0000
  H   H20       1.0  0.42549  0.36335  0.44146  1.0000
  H   H21       1.0  0.84847  0.73901  0.58443  1.0000
  H   H22       1.0  0.15153  0.26099  0.41557  1.0000
  H   H23       1.0  0.01986  0.89448  0.78712  1.0000
  H   H24       1.0  0.98014  0.10552  0.21287  1.0000
  H   H25       1.0  0.85191  0.88744  0.88855  1.0000
  H   H26       1.0  0.14809  0.11256  0.11145  1.0000
  H   H27       1.0  0.01411  0.64595  0.87214  1.0000
  H   H28       1.0  0.98589  0.35405  0.12786  1.0000
  H   H29       1.0  0.83597  0.63241  0.96351  1.0000
  H   H30       1.0  0.16403  0.36759  0.03649  1.0000
  H   H31       1.0  0.56672  0.48081  0.81308  1.0000
  H   H32       1.0  0.43328  0.51919  0.18692  1.0000
  H   H33       1.0  0.57645  0.39772  0.62728  1.0000
  H   H34       1.0  0.42355  0.60228  0.37272  1.0000
  H   H35       1.0  0.44522  0.76714  0.50232  1.0000
  H   H36       1.0  0.55478  0.23286  0.49768  1.0000
  H   H37       1.0  0.66635  0.96248  0.50847  1.0000
  H   H38       1.0  0.33365  0.03752  0.49153  1.0000
  H   H39       1.0  0.77538  0.17261  0.64293  1.0000
  H   H40       1.0  0.22462  0.82739  0.35707  1.0000
  H   H41       1.0  0.47826  0.18140  0.99287  1.0000
  H   H42       1.0  0.52174  0.81860  0.00713  1.0000
  H   H43       1.0  0.26545  0.97425  0.97627  1.0000
  H   H44       1.0  0.73455  0.02575  0.02373  1.0000
  H   H45       1.0  0.16879  0.77421  0.82823  1.0000
  H   H46       1.0  0.83120  0.22579  0.17177  1.0000
  H   H47       1.0  0.77531  0.29698  0.80088  1.0000
  H   H48       1.0  0.22469  0.70302  0.19912  1.0000
  H   H49       1.0  0.66536  0.29992  0.92646  1.0000
  H   H50       1.0  0.33464  0.70008  0.07354  1.0000
  C   C1        1.0  0.99293  0.28059  0.53640  1.0000
  C   C2        1.0  0.00707  0.71941  0.46360  1.0000
  C   C3        1.0  0.08363  0.23057  0.59115  1.0000
  C   C4        1.0  0.91638  0.76944  0.40885  1.0000
  C   C5        1.0  0.03505  0.10111  0.60401  1.0000
  C   C6        1.0  0.96496  0.89890  0.39599  1.0000
  C   C7        1.0  0.15715  0.09518  0.66397  1.0000
  C   C8        1.0  0.84285  0.90483  0.33603  1.0000
  C   C9        1.0  0.28141  0.22020  0.68835  1.0000
  C   C10       1.0  0.71860  0.77980  0.31165  1.0000
  C   C11       1.0  0.23696  0.30447  0.64444  1.0000
  C   C12       1.0  0.76304  0.69553  0.35556  1.0000
  C   C13       1.0  0.28574  0.52803  0.85209  1.0000
  C   C14       1.0  0.71426  0.47197  0.14791  1.0000
  C   C15       1.0  0.20655  0.39539  0.86052  1.0000
  C   C16       1.0  0.79345  0.60461  0.13948  1.0000
  C   C17       1.0  0.05423  0.31095  0.80936  1.0000
  C   C18       1.0  0.94577  0.68905  0.19064  1.0000
  C   C19       1.0  0.01960  0.18688  0.82880  1.0000
  C   C20       1.0  0.98040  0.81313  0.17120  1.0000
  C   C21       1.0  0.15000  0.19391  0.89074  1.0000
  C   C22       1.0  0.85000  0.80610  0.10926  1.0000
  C   C23       1.0  0.26586  0.32201  0.91020  1.0000
  C   C24       1.0  0.73414  0.67799  0.08980  1.0000
  C   C25       1.0  0.54648  0.71440  0.75561  1.0000
  C   C26       1.0  0.45352  0.28560  0.24439  1.0000
  C   C27       1.0  0.67073  0.75499  0.72971  1.0000
  C   C28       1.0  0.32926  0.24501  0.27029  1.0000
  C   C29       1.0  0.66939  0.70593  0.62980  1.0000
  C   C30       1.0  0.33060  0.29407  0.37020  1.0000
  C   C31       1.0  0.81358  0.76031  0.64376  1.0000
  C   C32       1.0  0.18642  0.23969  0.35624  1.0000
  C   C33       1.0  0.90455  0.84205  0.75184  1.0000
  C   C34       1.0  0.09544  0.15794  0.24816  1.0000
  C   C35       1.0  0.81715  0.83909  0.80534  1.0000
  C   C36       1.0  0.18285  0.16091  0.19466  1.0000
  C   C37       1.0  0.87197  0.50880  0.64199  1.0000
  C   C38       1.0  0.12803  0.49120  0.35801  1.0000
  C   C39       1.0  0.81413  0.51479  0.72253  1.0000
  C   C40       1.0  0.18587  0.48521  0.27747  1.0000
  C   C41       1.0  0.89887  0.59163  0.83327  1.0000
  C   C42       1.0  0.10113  0.40837  0.16673  1.0000
  C   C43       1.0  0.80480  0.58280  0.88162  1.0000
  C   C44       1.0  0.19520  0.41720  0.11838  1.0000
  C   C45       1.0  0.66170  0.50133  0.80161  1.0000
  C   C46       1.0  0.33830  0.49867  0.19839  1.0000
  C   C47       1.0  0.66674  0.45841  0.70363  1.0000
  C   C48       1.0  0.33326  0.54159  0.29637  1.0000
  C   C49       1.0  0.49967  0.86034  0.56237  1.0000
  C   C50       1.0  0.50033  0.13966  0.43763  1.0000
  C   C51       1.0  0.62271  0.96919  0.56618  1.0000
  C   C52       1.0  0.37729  0.03081  0.43382  1.0000
  C   C53       1.0  0.68353  0.08558  0.64139  1.0000
  C   C54       1.0  0.31647  0.91442  0.35861  1.0000
  C   C55       1.0  0.62398  0.09189  0.71479  1.0000
  C   C56       1.0  0.37602  0.90810  0.28521  1.0000
  C   C57       1.0  0.50041  0.97598  0.70553  1.0000
  C   C58       1.0  0.49959  0.02402  0.29447  1.0000
  C   C59       1.0  0.43697  0.97760  0.77964  1.0000
  C   C60       1.0  0.56303  0.02240  0.22036  1.0000
  C   C61       1.0  0.49809  0.09546  0.85933  1.0000
  C   C62       1.0  0.50191  0.90454  0.14067  1.0000
  C   C63       1.0  0.43352  0.09322  0.93049  1.0000
  C   C64       1.0  0.56648  0.90677  0.06952  1.0000
  C   C65       1.0  0.31558  0.97869  0.92108  1.0000
  C   C66       1.0  0.68441  0.02131  0.07892  1.0000
  C   C67       1.0  0.26252  0.86683  0.83995  1.0000
  C   C68       1.0  0.73748  0.13317  0.16005  1.0000
  C   C69       1.0  0.68214  0.20859  0.79602  1.0000
  C   C70       1.0  0.31786  0.79141  0.20398  1.0000
  C   C71       1.0  0.62148  0.21044  0.86549  1.0000
  C   C72       1.0  0.37852  0.78956  0.13452  1.0000
  N   N1        1.0  0.43955  0.86317  0.62912  1.0000
  N   N2        1.0  0.56045  0.13683  0.37088  1.0000
  N   N3        1.0  0.32085  0.86580  0.77141  1.0000
  N   N4        1.0  0.67915  0.13420  0.22859  1.0000
  O   O1        1.0  0.04881  0.40462  0.55291  1.0000
  O   O2        1.0  0.95119  0.59538  0.44708  1.0000
  O   O3        1.0  0.86379  0.20098  0.47262  1.0000
  O   O4        1.0  0.13621  0.79902  0.52738  1.0000
  O   O5        1.0  0.22485  0.57566  0.79287  1.0000
  O   O6        1.0  0.77515  0.42435  0.20713  1.0000
  O   O7        1.0  0.42335  0.59124  0.91136  1.0000
  O   O8        1.0  0.57665  0.40876  0.08864  1.0000
  O   O9        1.0  0.42287  0.62961  0.68403  1.0000
  O   O10       1.0  0.57713  0.37039  0.31597  1.0000
  O   O11       1.0  0.57160  0.76712  0.85122  1.0000
  O   O12       1.0  0.42840  0.23288  0.14878  1.0000
  O   O13       1.0  0.99943  0.59756  0.66513  1.0000
  O   O14       1.0  0.00057  0.40244  0.33486  1.0000
  O   O15       1.0  0.78950  0.41499  0.55560  1.0000
  O   O16       1.0  0.21050  0.58501  0.44440  1.0000
