data_image0
_chemical_formula_structural       Gd2Fe4H50C72N4O16
_chemical_formula_sum              "Gd2 Fe4 H50 C72 N4 O16"
_cell_length_a       11.476
_cell_length_b       11.9683
_cell_length_c       13.6101
_cell_angle_alpha    94.9032
_cell_angle_beta     109.041
_cell_angle_gamma    117.203

_space_group_name_H-M_alt    "P 1"
_space_group_IT_number       1

loop_
  _space_group_symop_operation_xyz
  'x, y, z'

loop_
  _atom_site_type_symbol
  _atom_site_label
  _atom_site_symmetry_multiplicity
  _atom_site_fract_x
  _atom_site_fract_y
  _atom_site_fract_z
  _atom_site_occupancy
  Gd  Gd1       1.0  0.79869  0.35964  0.38158  1.0000
  Gd  Gd2       1.0  0.20131  0.64036  0.61842  1.0000
  Fe  Fe1       1.0  0.85101  0.76302  0.25027  1.0000
  Fe  Fe2       1.0  0.14899  0.23698  0.74973  1.0000
  Fe  Fe3       1.0  0.77306  0.65284  0.74979  1.0000
  Fe  Fe4       1.0  0.22694  0.34716  0.25021  1.0000
  H   H1        1.0  0.52418  0.32339  0.11586  1.0000
  H   H2        1.0  0.47583  0.67661  0.88413  1.0000
  H   H3        1.0  0.07880  0.97306  0.42973  1.0000
  H   H4        1.0  0.92120  0.02694  0.57027  1.0000
  H   H5        1.0  0.85003  0.99436  0.31719  1.0000
  H   H6        1.0  0.14997  0.00564  0.68281  1.0000
  H   H7        1.0  0.60851  0.76024  0.26405  1.0000
  H   H8        1.0  0.39148  0.23976  0.73595  1.0000
  H   H9        1.0  0.68724  0.59254  0.34437  1.0000
  H   H10       1.0  0.31276  0.40746  0.65563  1.0000
  H   H11       1.0  0.02515  0.66303  0.23923  1.0000
  H   H12       1.0  0.97485  0.33697  0.76077  1.0000
  H   H13       1.0  0.08964  0.90080  0.20029  1.0000
  H   H14       1.0  0.91036  0.09920  0.79971  1.0000
  H   H15       1.0  0.83858  0.88294  0.07998  1.0000
  H   H16       1.0  0.16141  0.11706  0.92003  1.0000
  H   H17       1.0  0.62113  0.63742  0.04356  1.0000
  H   H18       1.0  0.37886  0.36258  0.95644  1.0000
  H   H19       1.0  0.01804  0.64067  0.86931  1.0000
  H   H20       1.0  0.98196  0.35933  0.13069  1.0000
  H   H21       1.0  0.83765  0.62534  0.96239  1.0000
  H   H22       1.0  0.16235  0.37466  0.03761  1.0000
  H   H23       1.0  0.56536  0.47460  0.81096  1.0000
  H   H24       1.0  0.43465  0.52540  0.18904  1.0000
  H   H25       1.0  0.57549  0.39512  0.62256  1.0000
  H   H26       1.0  0.42451  0.60488  0.37744  1.0000
  H   H27       1.0  0.57060  0.63228  0.55603  1.0000
  H   H28       1.0  0.42940  0.36772  0.44397  1.0000
  H   H29       1.0  0.84834  0.73693  0.58156  1.0000
  H   H30       1.0  0.15166  0.26307  0.41844  1.0000
  H   H31       1.0  0.02028  0.89378  0.78529  1.0000
  H   H32       1.0  0.97972  0.10622  0.21471  1.0000
  H   H33       1.0  0.84925  0.88528  0.88812  1.0000
  H   H34       1.0  0.15075  0.11472  0.11188  1.0000
  H   H35       1.0  0.56844  0.24628  0.50924  1.0000
  H   H36       1.0  0.43156  0.75372  0.49076  1.0000
  H   H37       1.0  0.34110  0.05463  0.50085  1.0000
  H   H38       1.0  0.65890  0.94537  0.49915  1.0000
  H   H39       1.0  0.22695  0.84274  0.36381  1.0000
  H   H40       1.0  0.77306  0.15726  0.63620  1.0000
  H   H41       1.0  0.52994  0.82792  0.01086  1.0000
  H   H42       1.0  0.47006  0.17208  0.98914  1.0000
  H   H43       1.0  0.74350  0.03599  0.02684  1.0000
  H   H44       1.0  0.25650  0.96401  0.97316  1.0000
  H   H45       1.0  0.83962  0.23707  0.17550  1.0000
  H   H46       1.0  0.16038  0.76293  0.82451  1.0000
  H   H47       1.0  0.22857  0.71519  0.20491  1.0000
  H   H48       1.0  0.77143  0.28481  0.79509  1.0000
  H   H49       1.0  0.34008  0.71026  0.07837  1.0000
  H   H50       1.0  0.65992  0.28974  0.92163  1.0000
  C   C1        1.0  0.99775  0.70762  0.46153  1.0000
  C   C2        1.0  0.00225  0.29239  0.53847  1.0000
  C   C3        1.0  0.91295  0.76546  0.40826  1.0000
  C   C4        1.0  0.08705  0.23454  0.59174  1.0000
  C   C5        1.0  0.96650  0.89678  0.39826  1.0000
  C   C6        1.0  0.03350  0.10322  0.60174  1.0000
  C   C7        1.0  0.84575  0.90748  0.33825  1.0000
  C   C8        1.0  0.15426  0.09252  0.66175  1.0000
  C   C9        1.0  0.71750  0.78357  0.31108  1.0000
  C   C10       1.0  0.28250  0.21643  0.68892  1.0000
  C   C11       1.0  0.75804  0.69524  0.35309  1.0000
  C   C12       1.0  0.24196  0.30476  0.64691  1.0000
  C   C13       1.0  0.71946  0.47137  0.14946  1.0000
  C   C14       1.0  0.28054  0.52863  0.85054  1.0000
  C   C15       1.0  0.79750  0.60402  0.13980  1.0000
  C   C16       1.0  0.20250  0.39598  0.86020  1.0000
  C   C17       1.0  0.95119  0.69025  0.19152  1.0000
  C   C18       1.0  0.04881  0.30975  0.80848  1.0000
  C   C19       1.0  0.98361  0.81374  0.17056  1.0000
  C   C20       1.0  0.01639  0.18626  0.82944  1.0000
  C   C21       1.0  0.85053  0.80471  0.10729  1.0000
  C   C22       1.0  0.14947  0.19529  0.89272  1.0000
  C   C23       1.0  0.73511  0.67581  0.08828  1.0000
  C   C24       1.0  0.26488  0.32419  0.91172  1.0000
  C   C25       1.0  0.87552  0.50840  0.63587  1.0000
  C   C26       1.0  0.12449  0.49160  0.36414  1.0000
  C   C27       1.0  0.81638  0.51180  0.71774  1.0000
  C   C28       1.0  0.18363  0.48819  0.28226  1.0000
  C   C29       1.0  0.90157  0.58713  0.82982  1.0000
  C   C30       1.0  0.09844  0.41287  0.17018  1.0000
  C   C31       1.0  0.80624  0.57708  0.87928  1.0000
  C   C32       1.0  0.19376  0.42292  0.12072  1.0000
  C   C33       1.0  0.66167  0.49607  0.79884  1.0000
  C   C34       1.0  0.33833  0.50393  0.20116  1.0000
  C   C35       1.0  0.66713  0.45472  0.69939  1.0000
  C   C36       1.0  0.33287  0.54528  0.30061  1.0000
  C   C37       1.0  0.54146  0.71346  0.75492  1.0000
  C   C38       1.0  0.45854  0.28654  0.24508  1.0000
  C   C39       1.0  0.66685  0.75114  0.72851  1.0000
  C   C40       1.0  0.33315  0.24886  0.27149  1.0000
  C   C41       1.0  0.66621  0.70209  0.62774  1.0000
  C   C42       1.0  0.33378  0.29792  0.37226  1.0000
  C   C43       1.0  0.81225  0.75777  0.64143  1.0000
  C   C44       1.0  0.18775  0.24223  0.35857  1.0000
  C   C45       1.0  0.90365  0.84013  0.75019  1.0000
  C   C46       1.0  0.09635  0.15987  0.24981  1.0000
  C   C47       1.0  0.81471  0.83629  0.80442  1.0000
  C   C48       1.0  0.18529  0.16371  0.19558  1.0000
  C   C49       1.0  0.51129  0.15320  0.44765  1.0000
  C   C50       1.0  0.48872  0.84680  0.55235  1.0000
  C   C51       1.0  0.38495  0.04577  0.44265  1.0000
  C   C52       1.0  0.61505  0.95423  0.55735  1.0000
  C   C53       1.0  0.32148  0.92868  0.36608  1.0000
  C   C54       1.0  0.67852  0.07132  0.63392  1.0000
  C   C55       1.0  0.38218  0.92073  0.29230  1.0000
  C   C56       1.0  0.61782  0.07927  0.70770  1.0000
  C   C57       1.0  0.50794  0.03593  0.30190  1.0000
  C   C58       1.0  0.49206  0.96407  0.69810  1.0000
  C   C59       1.0  0.57115  0.03364  0.22635  1.0000
  C   C60       1.0  0.42885  0.96636  0.77365  1.0000
  C   C61       1.0  0.50955  0.91507  0.14598  1.0000
  C   C62       1.0  0.49045  0.08493  0.85402  1.0000
  C   C63       1.0  0.57454  0.91660  0.07376  1.0000
  C   C64       1.0  0.42546  0.08340  0.92624  1.0000
  C   C65       1.0  0.69290  0.03159  0.08279  1.0000
  C   C66       1.0  0.30711  0.96841  0.91721  1.0000
  C   C67       1.0  0.74576  0.14436  0.16417  1.0000
  C   C68       1.0  0.25424  0.85564  0.83583  1.0000
  C   C69       1.0  0.32323  0.80333  0.21014  1.0000
  C   C70       1.0  0.67677  0.19667  0.78986  1.0000
  C   C71       1.0  0.38480  0.80039  0.14006  1.0000
  C   C72       1.0  0.61520  0.19961  0.85994  1.0000
  N   N1        1.0  0.57162  0.14933  0.37979  1.0000
  N   N2        1.0  0.42838  0.85067  0.62021  1.0000
  N   N3        1.0  0.68739  0.14609  0.23398  1.0000
  N   N4        1.0  0.31262  0.85390  0.76602  1.0000
  O   O1        1.0  0.93512  0.58298  0.43895  1.0000
  O   O2        1.0  0.06488  0.41702  0.56105  1.0000
  O   O3        1.0  0.12761  0.78181  0.52976  1.0000
  O   O4        1.0  0.87239  0.21819  0.47024  1.0000
  O   O5        1.0  0.78108  0.42570  0.21171  1.0000
  O   O6        1.0  0.21892  0.57431  0.78829  1.0000
  O   O7        1.0  0.58069  0.40597  0.08708  1.0000
  O   O8        1.0  0.41931  0.59403  0.91292  1.0000
  O   O9        1.0  0.79328  0.41397  0.54899  1.0000
  O   O10       1.0  0.20672  0.58603  0.45100  1.0000
  O   O11       1.0  0.00292  0.59964  0.65883  1.0000
  O   O12       1.0  0.99708  0.40036  0.34117  1.0000
  O   O13       1.0  0.41582  0.62910  0.68335  1.0000
  O   O14       1.0  0.58418  0.37090  0.31665  1.0000
  O   O15       1.0  0.56782  0.76909  0.85080  1.0000
  O   O16       1.0  0.43218  0.23091  0.14920  1.0000
