data_image0
_chemical_formula_structural       Pr2Fe4H50C72N4O16
_chemical_formula_sum              "Pr2 Fe4 H50 C72 N4 O16"
_cell_length_a       11.6198
_cell_length_b       12.0439
_cell_length_c       13.7012
_cell_angle_alpha    94.57
_cell_angle_beta     109.313
_cell_angle_gamma    117.509

_space_group_name_H-M_alt    "P 1"
_space_group_IT_number       1

loop_
  _space_group_symop_operation_xyz
  'x, y, z'

loop_
  _atom_site_type_symbol
  _atom_site_label
  _atom_site_symmetry_multiplicity
  _atom_site_fract_x
  _atom_site_fract_y
  _atom_site_fract_z
  _atom_site_occupancy
  Pr  Pr1       1.0  0.80055  0.35877  0.38351  1.0000
  Pr  Pr2       1.0  0.19944  0.64123  0.61649  1.0000
  Fe  Fe1       1.0  0.84943  0.76124  0.25034  1.0000
  Fe  Fe2       1.0  0.15057  0.23876  0.74966  1.0000
  Fe  Fe3       1.0  0.77316  0.65560  0.75205  1.0000
  Fe  Fe4       1.0  0.22684  0.34440  0.24795  1.0000
  H   H1        1.0  0.52124  0.32228  0.11604  1.0000
  H   H2        1.0  0.47876  0.67772  0.88396  1.0000
  H   H3        1.0  0.69234  0.59195  0.34774  1.0000
  H   H4        1.0  0.30766  0.40805  0.65226  1.0000
  H   H5        1.0  0.60778  0.75283  0.26440  1.0000
  H   H6        1.0  0.39222  0.24717  0.73559  1.0000
  H   H7        1.0  0.84355  0.98843  0.31301  1.0000
  H   H8        1.0  0.15645  0.01157  0.68699  1.0000
  H   H9        1.0  0.07492  0.97459  0.42634  1.0000
  H   H10       1.0  0.92507  0.02541  0.57366  1.0000
  H   H11       1.0  0.62004  0.63702  0.04492  1.0000
  H   H12       1.0  0.37996  0.36298  0.95508  1.0000
  H   H13       1.0  0.83673  0.88193  0.08161  1.0000
  H   H14       1.0  0.16327  0.11807  0.91839  1.0000
  H   H15       1.0  0.08537  0.89917  0.20040  1.0000
  H   H16       1.0  0.91463  0.10083  0.79960  1.0000
  H   H17       1.0  0.02049  0.66160  0.23811  1.0000
  H   H18       1.0  0.97952  0.33841  0.76189  1.0000
  H   H19       1.0  0.57607  0.39739  0.62715  1.0000
  H   H20       1.0  0.42392  0.60261  0.37284  1.0000
  H   H21       1.0  0.56759  0.47953  0.81402  1.0000
  H   H22       1.0  0.43240  0.52047  0.18598  1.0000
  H   H23       1.0  0.83833  0.63101  0.96406  1.0000
  H   H24       1.0  0.16166  0.36899  0.03594  1.0000
  H   H25       1.0  0.01610  0.64530  0.87126  1.0000
  H   H26       1.0  0.98390  0.35470  0.12874  1.0000
  H   H27       1.0  0.57243  0.63543  0.55921  1.0000
  H   H28       1.0  0.42757  0.36457  0.44079  1.0000
  H   H29       1.0  0.84705  0.73868  0.58424  1.0000
  H   H30       1.0  0.15295  0.26132  0.41577  1.0000
  H   H31       1.0  0.01956  0.89468  0.78699  1.0000
  H   H32       1.0  0.98044  0.10532  0.21301  1.0000
  H   H33       1.0  0.85159  0.88721  0.88946  1.0000
  H   H34       1.0  0.14841  0.11279  0.11054  1.0000
  H   H35       1.0  0.83226  0.22909  0.17292  1.0000
  H   H36       1.0  0.16774  0.77091  0.82708  1.0000
  H   H37       1.0  0.73510  0.02784  0.02565  1.0000
  H   H38       1.0  0.26490  0.97215  0.97435  1.0000
  H   H39       1.0  0.52318  0.82104  0.01100  1.0000
  H   H40       1.0  0.47682  0.17896  0.98900  1.0000
  H   H41       1.0  0.22622  0.83585  0.36121  1.0000
  H   H42       1.0  0.77378  0.16415  0.63879  1.0000
  H   H43       1.0  0.33781  0.04675  0.49613  1.0000
  H   H44       1.0  0.66220  0.95325  0.50387  1.0000
  H   H45       1.0  0.56135  0.23979  0.50299  1.0000
  H   H46       1.0  0.43865  0.76022  0.49702  1.0000
  H   H47       1.0  0.33613  0.70420  0.07835  1.0000
  H   H48       1.0  0.66388  0.29580  0.92166  1.0000
  H   H49       1.0  0.22650  0.70930  0.20409  1.0000
  H   H50       1.0  0.77350  0.29069  0.79592  1.0000
  C   C1        1.0  0.00554  0.71696  0.46383  1.0000
  C   C2        1.0  0.99446  0.28304  0.53617  1.0000
  C   C3        1.0  0.91486  0.76738  0.40854  1.0000
  C   C4        1.0  0.08514  0.23262  0.59145  1.0000
  C   C5        1.0  0.76102  0.69413  0.35469  1.0000
  C   C6        1.0  0.23898  0.30588  0.64530  1.0000
  C   C7        1.0  0.71701  0.77899  0.31099  1.0000
  C   C8        1.0  0.28298  0.22101  0.68900  1.0000
  C   C9        1.0  0.84208  0.90372  0.33596  1.0000
  C   C10       1.0  0.15792  0.09628  0.66403  1.0000
  C   C11       1.0  0.96419  0.89702  0.39620  1.0000
  C   C12       1.0  0.03581  0.10298  0.60380  1.0000
  C   C13       1.0  0.71636  0.47056  0.14854  1.0000
  C   C14       1.0  0.28364  0.52944  0.85145  1.0000
  C   C15       1.0  0.79446  0.60319  0.13968  1.0000
  C   C16       1.0  0.20555  0.39681  0.86032  1.0000
  C   C17       1.0  0.73314  0.67516  0.08911  1.0000
  C   C18       1.0  0.26686  0.32485  0.91089  1.0000
  C   C19       1.0  0.84811  0.80368  0.10830  1.0000
  C   C20       1.0  0.15189  0.19632  0.89170  1.0000
  C   C21       1.0  0.97995  0.81233  0.17077  1.0000
  C   C22       1.0  0.02005  0.18767  0.82923  1.0000
  C   C23       1.0  0.94716  0.68890  0.19108  1.0000
  C   C24       1.0  0.05284  0.31110  0.80892  1.0000
  C   C25       1.0  0.87249  0.50971  0.64045  1.0000
  C   C26       1.0  0.12751  0.49029  0.35955  1.0000
  C   C27       1.0  0.81490  0.51461  0.72169  1.0000
  C   C28       1.0  0.18510  0.48539  0.27830  1.0000
  C   C29       1.0  0.66717  0.45795  0.70344  1.0000
  C   C30       1.0  0.33282  0.54205  0.29656  1.0000
  C   C31       1.0  0.66274  0.50039  0.80204  1.0000
  C   C32       1.0  0.33726  0.49961  0.19796  1.0000
  C   C33       1.0  0.80657  0.58182  0.88177  1.0000
  C   C34       1.0  0.19343  0.41817  0.11823  1.0000
  C   C35       1.0  0.90045  0.59106  0.83268  1.0000
  C   C36       1.0  0.09955  0.40894  0.16732  1.0000
  C   C37       1.0  0.54469  0.71429  0.75639  1.0000
  C   C38       1.0  0.45531  0.28571  0.24361  1.0000
  C   C39       1.0  0.66939  0.75408  0.73068  1.0000
  C   C40       1.0  0.33061  0.24592  0.26932  1.0000
  C   C41       1.0  0.66773  0.70492  0.63045  1.0000
  C   C42       1.0  0.33227  0.29508  0.36955  1.0000
  C   C43       1.0  0.81224  0.75976  0.64395  1.0000
  C   C44       1.0  0.18776  0.24024  0.35605  1.0000
  C   C45       1.0  0.90383  0.84176  0.75208  1.0000
  C   C46       1.0  0.09617  0.15824  0.24792  1.0000
  C   C47       1.0  0.81641  0.83849  0.80613  1.0000
  C   C48       1.0  0.18359  0.16151  0.19388  1.0000
  C   C49       1.0  0.73888  0.13669  0.16199  1.0000
  C   C50       1.0  0.26112  0.86331  0.83801  1.0000
  C   C51       1.0  0.68554  0.02415  0.08134  1.0000
  C   C52       1.0  0.31446  0.97584  0.91866  1.0000
  C   C53       1.0  0.56798  0.90987  0.07286  1.0000
  C   C54       1.0  0.43202  0.09013  0.92714  1.0000
  C   C55       1.0  0.50400  0.90868  0.14451  1.0000
  C   C56       1.0  0.49600  0.09132  0.85549  1.0000
  C   C57       1.0  0.56568  0.02709  0.22397  1.0000
  C   C58       1.0  0.43432  0.97290  0.77603  1.0000
  C   C59       1.0  0.50315  0.02971  0.29879  1.0000
  C   C60       1.0  0.49685  0.97029  0.70122  1.0000
  C   C61       1.0  0.37884  0.91451  0.28972  1.0000
  C   C62       1.0  0.62116  0.08549  0.71029  1.0000
  C   C63       1.0  0.31917  0.92207  0.36302  1.0000
  C   C64       1.0  0.68083  0.07794  0.63699  1.0000
  C   C65       1.0  0.38135  0.03880  0.43842  1.0000
  C   C66       1.0  0.61865  0.96121  0.56159  1.0000
  C   C67       1.0  0.50563  0.14659  0.44258  1.0000
  C   C68       1.0  0.49437  0.85341  0.55743  1.0000
  C   C69       1.0  0.38050  0.79424  0.13905  1.0000
  C   C70       1.0  0.61951  0.20576  0.86095  1.0000
  C   C71       1.0  0.32000  0.79724  0.20867  1.0000
  C   C72       1.0  0.68000  0.20276  0.79133  1.0000
  N   N1        1.0  0.68144  0.13864  0.23124  1.0000
  N   N2        1.0  0.31856  0.86136  0.76876  1.0000
  N   N3        1.0  0.56540  0.14282  0.37550  1.0000
  N   N4        1.0  0.43460  0.85718  0.62450  1.0000
  O   O1        1.0  0.95066  0.59325  0.44638  1.0000
  O   O2        1.0  0.04934  0.40675  0.55362  1.0000
  O   O3        1.0  0.13451  0.79650  0.52932  1.0000
  O   O4        1.0  0.86549  0.20350  0.47068  1.0000
  O   O5        1.0  0.77822  0.42506  0.20999  1.0000
  O   O6        1.0  0.22178  0.57494  0.79001  1.0000
  O   O7        1.0  0.57877  0.40531  0.08708  1.0000
  O   O8        1.0  0.42123  0.59469  0.91292  1.0000
  O   O9        1.0  0.78964  0.41593  0.55389  1.0000
  O   O10       1.0  0.21036  0.58407  0.44611  1.0000
  O   O11       1.0  0.99976  0.59924  0.66358  1.0000
  O   O12       1.0  0.00023  0.40076  0.33641  1.0000
  O   O13       1.0  0.57006  0.76827  0.85188  1.0000
  O   O14       1.0  0.42994  0.23173  0.14812  1.0000
  O   O15       1.0  0.42075  0.62958  0.68475  1.0000
  O   O16       1.0  0.57926  0.37042  0.31525  1.0000
