data_image0
_chemical_formula_structural       Sm2Fe4H50C72N4O16
_chemical_formula_sum              "Sm2 Fe4 H50 C72 N4 O16"
_cell_length_a       11.5294
_cell_length_b       12.0001
_cell_length_c       13.7652
_cell_angle_alpha    94.7568
_cell_angle_beta     109.33
_cell_angle_gamma    117.289

_space_group_name_H-M_alt    "P 1"
_space_group_IT_number       1

loop_
  _space_group_symop_operation_xyz
  'x, y, z'

loop_
  _atom_site_type_symbol
  _atom_site_label
  _atom_site_symmetry_multiplicity
  _atom_site_fract_x
  _atom_site_fract_y
  _atom_site_fract_z
  _atom_site_occupancy
  Sm  Sm1       1.0  0.80055  0.35941  0.38357  1.0000
  Sm  Sm2       1.0  0.19945  0.64059  0.61643  1.0000
  Fe  Fe1       1.0  0.85038  0.76088  0.25049  1.0000
  Fe  Fe2       1.0  0.14962  0.23912  0.74951  1.0000
  Fe  Fe3       1.0  0.77234  0.65344  0.74951  1.0000
  Fe  Fe4       1.0  0.22766  0.34656  0.25050  1.0000
  H   H1        1.0  0.52361  0.32114  0.11670  1.0000
  H   H2        1.0  0.47639  0.67886  0.88329  1.0000
  H   H3        1.0  0.68876  0.59133  0.34497  1.0000
  H   H4        1.0  0.31124  0.40867  0.65503  1.0000
  H   H5        1.0  0.60812  0.75650  0.26346  1.0000
  H   H6        1.0  0.39188  0.24350  0.73654  1.0000
  H   H7        1.0  0.84796  0.99084  0.31477  1.0000
  H   H8        1.0  0.15204  0.00916  0.68523  1.0000
  H   H9        1.0  0.07766  0.97260  0.42787  1.0000
  H   H10       1.0  0.92234  0.02740  0.57213  1.0000
  H   H11       1.0  0.62005  0.63478  0.04513  1.0000
  H   H12       1.0  0.37995  0.36522  0.95487  1.0000
  H   H13       1.0  0.83644  0.88022  0.08166  1.0000
  H   H14       1.0  0.16356  0.11978  0.91834  1.0000
  H   H15       1.0  0.08781  0.89907  0.20120  1.0000
  H   H16       1.0  0.91219  0.10093  0.79880  1.0000
  H   H17       1.0  0.02406  0.66162  0.23948  1.0000
  H   H18       1.0  0.97594  0.33838  0.76052  1.0000
  H   H19       1.0  0.57558  0.39532  0.62363  1.0000
  H   H20       1.0  0.42442  0.60468  0.37637  1.0000
  H   H21       1.0  0.56621  0.47482  0.81020  1.0000
  H   H22       1.0  0.43380  0.52518  0.18981  1.0000
  H   H23       1.0  0.83806  0.62667  0.96020  1.0000
  H   H24       1.0  0.16194  0.37333  0.03980  1.0000
  H   H25       1.0  0.01781  0.64334  0.86802  1.0000
  H   H26       1.0  0.98219  0.35666  0.13197  1.0000
  H   H27       1.0  0.56882  0.63351  0.55807  1.0000
  H   H28       1.0  0.43119  0.36648  0.44193  1.0000
  H   H29       1.0  0.84528  0.73759  0.58242  1.0000
  H   H30       1.0  0.15473  0.26241  0.41758  1.0000
  H   H31       1.0  0.01903  0.89384  0.78472  1.0000
  H   H32       1.0  0.98097  0.10616  0.21529  1.0000
  H   H33       1.0  0.85026  0.88527  0.88721  1.0000
  H   H34       1.0  0.14975  0.11472  0.11279  1.0000
  H   H35       1.0  0.83696  0.23454  0.17621  1.0000
  H   H36       1.0  0.16304  0.76546  0.82379  1.0000
  H   H37       1.0  0.73976  0.03362  0.02867  1.0000
  H   H38       1.0  0.26024  0.96638  0.97133  1.0000
  H   H39       1.0  0.52660  0.82557  0.01331  1.0000
  H   H40       1.0  0.47340  0.17442  0.98669  1.0000
  H   H41       1.0  0.22782  0.84010  0.36236  1.0000
  H   H42       1.0  0.77218  0.15990  0.63764  1.0000
  H   H43       1.0  0.34102  0.05173  0.49783  1.0000
  H   H44       1.0  0.65898  0.94827  0.50217  1.0000
  H   H45       1.0  0.56690  0.24414  0.50585  1.0000
  H   H46       1.0  0.43310  0.75586  0.49415  1.0000
  H   H47       1.0  0.33903  0.70834  0.08019  1.0000
  H   H48       1.0  0.66096  0.29166  0.91981  1.0000
  H   H49       1.0  0.22873  0.71302  0.20579  1.0000
  H   H50       1.0  0.77127  0.28699  0.79421  1.0000
  C   C1        1.0  0.00149  0.71126  0.46247  1.0000
  C   C2        1.0  0.99851  0.28874  0.53752  1.0000
  C   C3        1.0  0.91368  0.76519  0.40769  1.0000
  C   C4        1.0  0.08632  0.23481  0.59230  1.0000
  C   C5        1.0  0.75899  0.69377  0.35296  1.0000
  C   C6        1.0  0.24101  0.30623  0.64704  1.0000
  C   C7        1.0  0.71723  0.78074  0.31024  1.0000
  C   C8        1.0  0.28277  0.21926  0.68976  1.0000
  C   C9        1.0  0.84447  0.90484  0.33661  1.0000
  C   C10       1.0  0.15554  0.09516  0.66339  1.0000
  C   C11       1.0  0.96578  0.89575  0.39679  1.0000
  C   C12       1.0  0.03422  0.10425  0.60321  1.0000
  C   C13       1.0  0.71930  0.46974  0.15057  1.0000
  C   C14       1.0  0.28070  0.53026  0.84943  1.0000
  C   C15       1.0  0.79663  0.60216  0.14083  1.0000
  C   C16       1.0  0.20337  0.39784  0.85916  1.0000
  C   C17       1.0  0.73395  0.67341  0.08968  1.0000
  C   C18       1.0  0.26605  0.32659  0.91032  1.0000
  C   C19       1.0  0.84891  0.80238  0.10874  1.0000
  C   C20       1.0  0.15110  0.19762  0.89125  1.0000
  C   C21       1.0  0.98203  0.81192  0.17159  1.0000
  C   C22       1.0  0.01797  0.18808  0.82840  1.0000
  C   C23       1.0  0.95001  0.68866  0.19229  1.0000
  C   C24       1.0  0.04999  0.31134  0.80770  1.0000
  C   C25       1.0  0.87423  0.50963  0.63692  1.0000
  C   C26       1.0  0.12577  0.49036  0.36308  1.0000
  C   C27       1.0  0.81597  0.51322  0.71804  1.0000
  C   C28       1.0  0.18403  0.48678  0.28196  1.0000
  C   C29       1.0  0.66714  0.45556  0.69977  1.0000
  C   C30       1.0  0.33286  0.54444  0.30023  1.0000
  C   C31       1.0  0.66214  0.49678  0.79817  1.0000
  C   C32       1.0  0.33786  0.50322  0.20183  1.0000
  C   C33       1.0  0.80660  0.57840  0.87793  1.0000
  C   C34       1.0  0.19340  0.42160  0.12207  1.0000
  C   C35       1.0  0.90147  0.58896  0.82902  1.0000
  C   C36       1.0  0.09853  0.41104  0.17098  1.0000
  C   C37       1.0  0.54211  0.71365  0.75526  1.0000
  C   C38       1.0  0.45790  0.28636  0.24474  1.0000
  C   C39       1.0  0.66690  0.75184  0.72915  1.0000
  C   C40       1.0  0.33310  0.24816  0.27086  1.0000
  C   C41       1.0  0.66494  0.70290  0.62904  1.0000
  C   C42       1.0  0.33507  0.29710  0.37096  1.0000
  C   C43       1.0  0.81031  0.75828  0.64216  1.0000
  C   C44       1.0  0.18970  0.24172  0.35784  1.0000
  C   C45       1.0  0.90260  0.84037  0.74998  1.0000
  C   C46       1.0  0.09740  0.15963  0.25002  1.0000
  C   C47       1.0  0.81484  0.83656  0.80414  1.0000
  C   C48       1.0  0.18516  0.16344  0.19587  1.0000
  C   C49       1.0  0.74320  0.14191  0.16488  1.0000
  C   C50       1.0  0.25679  0.85809  0.83512  1.0000
  C   C51       1.0  0.68972  0.02932  0.08409  1.0000
  C   C52       1.0  0.31027  0.97068  0.91591  1.0000
  C   C53       1.0  0.57171  0.91453  0.07526  1.0000
  C   C54       1.0  0.42828  0.08546  0.92474  1.0000
  C   C55       1.0  0.50756  0.91315  0.14685  1.0000
  C   C56       1.0  0.49243  0.08685  0.85315  1.0000
  C   C57       1.0  0.56954  0.03159  0.22649  1.0000
  C   C58       1.0  0.43046  0.96841  0.77351  1.0000
  C   C59       1.0  0.50695  0.03388  0.30121  1.0000
  C   C60       1.0  0.49305  0.96612  0.69879  1.0000
  C   C61       1.0  0.38182  0.91859  0.29177  1.0000
  C   C62       1.0  0.61818  0.08141  0.70823  1.0000
  C   C63       1.0  0.32168  0.92631  0.36472  1.0000
  C   C64       1.0  0.67832  0.07369  0.63529  1.0000
  C   C65       1.0  0.38461  0.04327  0.44031  1.0000
  C   C66       1.0  0.61539  0.95673  0.55969  1.0000
  C   C67       1.0  0.51015  0.15093  0.44513  1.0000
  C   C68       1.0  0.48985  0.84907  0.55487  1.0000
  C   C69       1.0  0.38355  0.79836  0.14113  1.0000
  C   C70       1.0  0.61645  0.20164  0.85887  1.0000
  C   C71       1.0  0.32273  0.80115  0.21062  1.0000
  C   C72       1.0  0.67727  0.19885  0.78939  1.0000
  N   N1        1.0  0.68564  0.14368  0.23408  1.0000
  N   N2        1.0  0.31436  0.85632  0.76592  1.0000
  N   N3        1.0  0.57015  0.14711  0.37823  1.0000
  N   N4        1.0  0.42985  0.85289  0.62177  1.0000
  O   O1        1.0  0.94323  0.58709  0.44316  1.0000
  O   O2        1.0  0.05677  0.41292  0.55684  1.0000
  O   O3        1.0  0.13106  0.78850  0.52947  1.0000
  O   O4        1.0  0.86894  0.21150  0.47053  1.0000
  O   O5        1.0  0.78164  0.42588  0.21375  1.0000
  O   O6        1.0  0.21836  0.57412  0.78625  1.0000
  O   O7        1.0  0.58116  0.40294  0.08750  1.0000
  O   O8        1.0  0.41884  0.59706  0.91250  1.0000
  O   O9        1.0  0.79180  0.41551  0.55066  1.0000
  O   O10       1.0  0.20820  0.58449  0.44934  1.0000
  O   O11       1.0  0.00154  0.60076  0.65989  1.0000
  O   O12       1.0  0.99847  0.39924  0.34011  1.0000
  O   O13       1.0  0.41670  0.62960  0.68395  1.0000
  O   O14       1.0  0.58330  0.37040  0.31605  1.0000
  O   O15       1.0  0.56874  0.76858  0.85043  1.0000
  O   O16       1.0  0.43126  0.23142  0.14957  1.0000
