data_image0
_chemical_formula_structural       Nd2Fe4H50C72N4O16
_chemical_formula_sum              "Nd2 Fe4 H50 C72 N4 O16"
_cell_length_a       11.4617
_cell_length_b       12.0035
_cell_length_c       13.7228
_cell_angle_alpha    94.6005
_cell_angle_beta     109.508
_cell_angle_gamma    117.144

_space_group_name_H-M_alt    "P 1"
_space_group_IT_number       1

loop_
  _space_group_symop_operation_xyz
  'x, y, z'

loop_
  _atom_site_type_symbol
  _atom_site_label
  _atom_site_symmetry_multiplicity
  _atom_site_fract_x
  _atom_site_fract_y
  _atom_site_fract_z
  _atom_site_occupancy
  Nd  Nd1       1.0  0.20083  0.64451  0.61320  1.0000
  Nd  Nd2       1.0  0.79918  0.35549  0.38679  1.0000
  Fe  Fe1       1.0  0.13859  0.21575  0.75253  1.0000
  Fe  Fe2       1.0  0.86140  0.78425  0.24747  1.0000
  Fe  Fe3       1.0  0.24616  0.36629  0.25749  1.0000
  Fe  Fe4       1.0  0.75386  0.63372  0.74252  1.0000
  H   H1        1.0  0.43857  0.46752  0.91753  1.0000
  H   H2        1.0  0.56136  0.53238  0.08228  1.0000
  H   H3        1.0  0.91991  0.02075  0.56303  1.0000
  H   H4        1.0  0.08007  0.97925  0.43697  1.0000
  H   H5        1.0  0.14495  0.99278  0.67669  1.0000
  H   H6        1.0  0.85503  0.00720  0.32331  1.0000
  H   H7        1.0  0.38891  0.22756  0.74689  1.0000
  H   H8        1.0  0.61108  0.77241  0.25311  1.0000
  H   H9        1.0  0.31561  0.40337  0.67560  1.0000
  H   H10       1.0  0.68439  0.59662  0.32440  1.0000
  H   H11       1.0  0.97536  0.32649  0.77306  1.0000
  H   H12       1.0  0.02463  0.67352  0.22694  1.0000
  H   H13       1.0  0.87878  0.07175  0.77631  1.0000
  H   H14       1.0  0.12120  0.92826  0.22367  1.0000
  H   H15       1.0  0.10979  0.05761  0.89527  1.0000
  H   H16       1.0  0.89016  0.94237  0.10472  1.0000
  H   H17       1.0  0.34512  0.29474  0.96807  1.0000
  H   H18       1.0  0.65486  0.70523  0.03195  1.0000
  H   H19       1.0  0.98804  0.35602  0.12683  1.0000
  H   H20       1.0  0.01197  0.64398  0.87317  1.0000
  H   H21       1.0  0.17772  0.37920  0.04316  1.0000
  H   H22       1.0  0.82229  0.62079  0.95684  1.0000
  H   H23       1.0  0.44769  0.54793  0.19648  1.0000
  H   H24       1.0  0.55231  0.45207  0.80351  1.0000
  H   H25       1.0  0.42488  0.62803  0.37560  1.0000
  H   H26       1.0  0.57514  0.37199  0.62439  1.0000
  H   H27       1.0  0.14793  0.12280  0.12607  1.0000
  H   H28       1.0  0.85207  0.87720  0.87396  1.0000
  H   H29       1.0  0.01317  0.13774  0.25363  1.0000
  H   H30       1.0  0.98686  0.86230  0.74641  1.0000
  H   H31       1.0  0.21931  0.30900  0.44598  1.0000
  H   H32       1.0  0.78074  0.69105  0.55404  1.0000
  H   H33       1.0  0.48006  0.39958  0.43736  1.0000
  H   H34       1.0  0.51997  0.60046  0.56264  1.0000
  H   H35       1.0  0.44066  0.76559  0.49829  1.0000
  H   H36       1.0  0.55933  0.23441  0.50170  1.0000
  H   H37       1.0  0.66349  0.96168  0.50616  1.0000
  H   H38       1.0  0.33650  0.03834  0.49383  1.0000
  H   H39       1.0  0.77130  0.17041  0.64219  1.0000
  H   H40       1.0  0.22870  0.82960  0.35781  1.0000
  H   H41       1.0  0.47722  0.16812  0.00072  1.0000
  H   H42       1.0  0.52276  0.83187  0.99928  1.0000
  H   H43       1.0  0.25829  0.96307  0.97689  1.0000
  H   H44       1.0  0.74170  0.03692  0.02310  1.0000
  H   H45       1.0  0.15746  0.76606  0.82434  1.0000
  H   H46       1.0  0.84254  0.23393  0.17565  1.0000
  H   H47       1.0  0.77776  0.28877  0.80749  1.0000
  H   H48       1.0  0.22224  0.71124  0.19251  1.0000
  H   H49       1.0  0.67104  0.28629  0.93768  1.0000
  H   H50       1.0  0.32895  0.71371  0.06232  1.0000
  C   C1        1.0  0.00485  0.28669  0.54210  1.0000
  C   C2        1.0  0.99515  0.71331  0.45791  1.0000
  C   C3        1.0  0.08957  0.23036  0.59893  1.0000
  C   C4        1.0  0.91042  0.76963  0.40108  1.0000
  C   C5        1.0  0.03298  0.09638  0.60075  1.0000
  C   C6        1.0  0.96701  0.90361  0.39925  1.0000
  C   C7        1.0  0.15155  0.08229  0.66121  1.0000
  C   C8        1.0  0.84843  0.91769  0.33879  1.0000
  C   C9        1.0  0.28131  0.20714  0.69766  1.0000
  C   C10       1.0  0.71868  0.79285  0.30234  1.0000
  C   C11       1.0  0.24377  0.29927  0.66045  1.0000
  C   C12       1.0  0.75622  0.70072  0.33955  1.0000
  C   C13       1.0  0.28325  0.49982  0.89295  1.0000
  C   C14       1.0  0.71677  0.50017  0.10708  1.0000
  C   C15       1.0  0.03805  0.28539  0.81431  1.0000
  C   C16       1.0  0.96195  0.71462  0.18569  1.0000
  C   C17       1.0  0.98869  0.15330  0.81681  1.0000
  C   C18       1.0  0.01130  0.84670  0.18319  1.0000
  C   C19       1.0  0.11095  0.14506  0.87935  1.0000
  C   C20       1.0  0.88903  0.85493  0.12065  1.0000
  C   C21       1.0  0.23731  0.27101  0.91541  1.0000
  C   C22       1.0  0.76268  0.72897  0.08459  1.0000
  C   C23       1.0  0.19185  0.35933  0.87530  1.0000
  C   C24       1.0  0.80814  0.64066  0.12470  1.0000
  C   C25       1.0  0.12164  0.50120  0.35446  1.0000
  C   C26       1.0  0.87838  0.49880  0.64554  1.0000
  C   C27       1.0  0.18476  0.49721  0.27716  1.0000
  C   C28       1.0  0.81525  0.50280  0.72284  1.0000
  C   C29       1.0  0.10464  0.41600  0.16776  1.0000
  C   C30       1.0  0.89537  0.58401  0.83224  1.0000
  C   C31       1.0  0.20510  0.43081  0.12322  1.0000
  C   C32       1.0  0.79491  0.56920  0.87678  1.0000
  C   C33       1.0  0.34766  0.52059  0.20419  1.0000
  C   C34       1.0  0.65235  0.47942  0.79581  1.0000
  C   C35       1.0  0.33614  0.56220  0.29937  1.0000
  C   C36       1.0  0.66387  0.43782  0.70062  1.0000
  C   C37       1.0  0.46126  0.27947  0.22765  1.0000
  C   C38       1.0  0.53874  0.72053  0.77235  1.0000
  C   C39       1.0  0.35153  0.26554  0.26942  1.0000
  C   C40       1.0  0.64848  0.73448  0.73059  1.0000
  C   C41       1.0  0.19834  0.18008  0.20914  1.0000
  C   C42       1.0  0.80167  0.81992  0.79088  1.0000
  C   C43       1.0  0.12861  0.18813  0.27636  1.0000
  C   C44       1.0  0.87142  0.81189  0.72367  1.0000
  C   C45       1.0  0.23812  0.27894  0.37863  1.0000
  C   C46       1.0  0.76191  0.72110  0.62139  1.0000
  C   C47       1.0  0.37531  0.32737  0.37422  1.0000
  C   C48       1.0  0.62472  0.67266  0.62579  1.0000
  C   C49       1.0  0.49534  0.85762  0.55955  1.0000
  C   C50       1.0  0.50467  0.14238  0.44044  1.0000
  C   C51       1.0  0.61944  0.96706  0.56434  1.0000
  C   C52       1.0  0.38056  0.03295  0.43565  1.0000
  C   C53       1.0  0.67936  0.08254  0.64031  1.0000
  C   C54       1.0  0.32063  0.91747  0.35969  1.0000
  C   C55       1.0  0.61989  0.08666  0.71487  1.0000
  C   C56       1.0  0.38011  0.91334  0.28512  1.0000
  C   C57       1.0  0.49458  0.97041  0.70415  1.0000
  C   C58       1.0  0.50542  0.02959  0.29584  1.0000
  C   C59       1.0  0.43038  0.97002  0.77865  1.0000
  C   C60       1.0  0.56962  0.02998  0.22134  1.0000
  C   C61       1.0  0.49461  0.08577  0.86189  1.0000
  C   C62       1.0  0.50539  0.91423  0.13811  1.0000
  C   C63       1.0  0.43000  0.08279  0.93392  1.0000
  C   C64       1.0  0.56999  0.91720  0.06608  1.0000
  C   C65       1.0  0.30822  0.96854  0.92098  1.0000
  C   C66       1.0  0.69177  0.03145  0.07901  1.0000
  C   C67       1.0  0.25268  0.85840  0.83714  1.0000
  C   C68       1.0  0.74732  0.14159  0.16286  1.0000
  C   C69       1.0  0.68169  0.20071  0.80011  1.0000
  C   C70       1.0  0.31831  0.79930  0.19989  1.0000
  C   C71       1.0  0.62221  0.20009  0.87147  1.0000
  C   C72       1.0  0.37779  0.79991  0.12853  1.0000
  N   N1        1.0  0.43323  0.85893  0.62579  1.0000
  N   N2        1.0  0.56677  0.14107  0.37421  1.0000
  N   N3        1.0  0.31112  0.85813  0.76781  1.0000
  N   N4        1.0  0.68888  0.14186  0.23219  1.0000
  O   O1        1.0  0.06676  0.41067  0.55800  1.0000
  O   O2        1.0  0.93326  0.58934  0.44201  1.0000
  O   O3        1.0  0.87396  0.21011  0.47585  1.0000
  O   O4        1.0  0.12604  0.78990  0.52415  1.0000
  O   O5        1.0  0.24139  0.57716  0.88500  1.0000
  O   O6        1.0  0.75867  0.42285  0.11513  1.0000
  O   O7        1.0  0.42713  0.54342  0.92530  1.0000
  O   O8        1.0  0.57288  0.45651  0.07466  1.0000
  O   O9        1.0  0.20498  0.59047  0.44380  1.0000
  O   O10       1.0  0.79503  0.40954  0.55619  1.0000
  O   O11       1.0  0.98924  0.41631  0.32671  1.0000
  O   O12       1.0  0.01078  0.58367  0.67330  1.0000
  O   O13       1.0  0.59577  0.36612  0.29088  1.0000
  O   O14       1.0  0.40423  0.63388  0.70911  1.0000
  O   O15       1.0  0.41881  0.20590  0.13846  1.0000
  O   O16       1.0  0.58118  0.79409  0.86154  1.0000
