data_image0
_chemical_formula_structural       Mg2H28C24N4O16
_chemical_formula_sum              "Mg2 H28 C24 N4 O16"
_cell_length_a       6.2383
_cell_length_b       8.20713
_cell_length_c       13.5982
_cell_angle_alpha    90.0001
_cell_angle_beta     90
_cell_angle_gamma    90.0001

_space_group_name_H-M_alt    "P 1"
_space_group_IT_number       1

loop_
  _space_group_symop_operation_xyz
  'x, y, z'

loop_
  _atom_site_type_symbol
  _atom_site_label
  _atom_site_symmetry_multiplicity
  _atom_site_fract_x
  _atom_site_fract_y
  _atom_site_fract_z
  _atom_site_occupancy
  Mg  Mg1       1.0  1.00000  0.95877  0.50000  1.0000
  Mg  Mg2       1.0  0.50000  0.04124  0.00000  1.0000
  H   H1        1.0  0.32261  0.83138  0.58930  1.0000
  H   H2        1.0  0.67739  0.83138  0.41070  1.0000
  H   H3        1.0  0.17739  0.16862  0.08930  1.0000
  H   H4        1.0  0.82261  0.16862  0.91070  1.0000
  H   H5        1.0  0.26423  0.67883  0.51436  1.0000
  H   H6        1.0  0.73577  0.67883  0.48564  1.0000
  H   H7        1.0  0.23577  0.32117  0.01436  1.0000
  H   H8        1.0  0.76423  0.32117  0.98564  1.0000
  H   H9        1.0  0.30182  0.96196  0.35339  1.0000
  H   H10       1.0  0.69817  0.96196  0.64661  1.0000
  H   H11       1.0  0.19818  0.03804  0.85339  1.0000
  H   H12       1.0  0.80182  0.03804  0.14661  1.0000
  H   H13       1.0  0.08531  0.98763  0.29680  1.0000
  H   H14       1.0  0.91469  0.98763  0.70320  1.0000
  H   H15       1.0  0.41469  0.01237  0.79680  1.0000
  H   H16       1.0  0.58531  0.01237  0.20320  1.0000
  H   H17       1.0  0.64475  0.19201  0.76321  1.0000
  H   H18       1.0  0.35525  0.19201  0.23679  1.0000
  H   H19       1.0  0.85525  0.80799  0.26321  1.0000
  H   H20       1.0  0.14475  0.80799  0.73679  1.0000
  H   H21       1.0  0.89726  0.42383  0.78182  1.0000
  H   H22       1.0  0.10274  0.42383  0.21818  1.0000
  H   H23       1.0  0.60275  0.57617  0.28182  1.0000
  H   H24       1.0  0.39725  0.57617  0.71818  1.0000
  H   H25       1.0  0.91750  0.63212  0.64464  1.0000
  H   H26       1.0  0.08250  0.63212  0.35536  1.0000
  H   H27       1.0  0.58250  0.36788  0.14464  1.0000
  H   H28       1.0  0.41750  0.36788  0.85536  1.0000
  C   C1        1.0  0.38507  0.12352  0.60833  1.0000
  C   C2        1.0  0.61493  0.12352  0.39167  1.0000
  C   C3        1.0  0.11493  0.87648  0.10833  1.0000
  C   C4        1.0  0.88507  0.87648  0.89167  1.0000
  C   C5        1.0  0.55940  0.38776  0.54748  1.0000
  C   C6        1.0  0.44060  0.38776  0.45252  1.0000
  C   C7        1.0  0.94060  0.61224  0.04748  1.0000
  C   C8        1.0  0.05940  0.61223  0.95252  1.0000
  C   C9        1.0  0.53330  0.26755  0.62021  1.0000
  C   C10       1.0  0.46670  0.26755  0.37979  1.0000
  C   C11       1.0  0.96670  0.73245  0.12021  1.0000
  C   C12       1.0  0.03330  0.73245  0.87979  1.0000
  C   C13       1.0  0.65917  0.28167  0.70488  1.0000
  C   C14       1.0  0.34083  0.28167  0.29512  1.0000
  C   C15       1.0  0.84083  0.71833  0.20488  1.0000
  C   C16       1.0  0.15917  0.71834  0.79512  1.0000
  C   C17       1.0  0.80030  0.41139  0.71576  1.0000
  C   C18       1.0  0.19970  0.41139  0.28424  1.0000
  C   C19       1.0  0.69970  0.58861  0.21576  1.0000
  C   C20       1.0  0.30030  0.58861  0.78424  1.0000
  C   C21       1.0  0.81203  0.52632  0.64084  1.0000
  C   C22       1.0  0.18797  0.52632  0.35916  1.0000
  C   C23       1.0  0.68797  0.47368  0.14084  1.0000
  C   C24       1.0  0.31203  0.47368  0.85916  1.0000
  N   N1        1.0  0.69267  0.51500  0.55897  1.0000
  N   N2        1.0  0.30733  0.51500  0.44103  1.0000
  N   N3        1.0  0.80733  0.48500  0.05897  1.0000
  N   N4        1.0  0.19267  0.48500  0.94103  1.0000
  O   O1        1.0  0.22369  0.13460  0.55284  1.0000
  O   O2        1.0  0.77631  0.13459  0.44716  1.0000
  O   O3        1.0  0.27631  0.86541  0.05283  1.0000
  O   O4        1.0  0.72369  0.86541  0.94716  1.0000
  O   O5        1.0  0.43740  0.99344  0.65632  1.0000
  O   O6        1.0  0.56259  0.99344  0.34368  1.0000
  O   O7        1.0  0.06260  0.00656  0.15632  1.0000
  O   O8        1.0  0.93740  0.00655  0.84368  1.0000
  O   O9        1.0  0.20963  0.77954  0.54902  1.0000
  O   O10       1.0  0.79036  0.77954  0.45098  1.0000
  O   O11       1.0  0.29036  0.22046  0.04902  1.0000
  O   O12       1.0  0.70964  0.22046  0.95098  1.0000
  O   O13       1.0  0.14269  0.95106  0.36037  1.0000
  O   O14       1.0  0.85731  0.95106  0.63963  1.0000
  O   O15       1.0  0.35731  0.04894  0.86037  1.0000
  O   O16       1.0  0.64269  0.04894  0.13963  1.0000
