data_image0
_chemical_formula_structural       Cd2H22C22S2N4O10
_chemical_formula_sum              "Cd2 H22 C22 S2 N4 O10"
_cell_length_a       5.82707
_cell_length_b       10.3831
_cell_length_c       11.137
_cell_angle_alpha    93.6265
_cell_angle_beta     92.4788
_cell_angle_gamma    90.7367

_space_group_name_H-M_alt    "P 1"
_space_group_IT_number       1

loop_
  _space_group_symop_operation_xyz
  'x, y, z'

loop_
  _atom_site_type_symbol
  _atom_site_label
  _atom_site_symmetry_multiplicity
  _atom_site_fract_x
  _atom_site_fract_y
  _atom_site_fract_z
  _atom_site_occupancy
  Cd  Cd1       1.0  0.66455  0.03578  0.14635  1.0000
  Cd  Cd2       1.0  0.33545  0.96422  0.85365  1.0000
  H   H1        1.0  0.28167  0.21940  0.30636  1.0000
  H   H2        1.0  0.71831  0.78058  0.69366  1.0000
  H   H3        1.0  0.87415  0.03622  0.43804  1.0000
  H   H4        1.0  0.12588  0.96379  0.56194  1.0000
  H   H5        1.0  0.71603  0.20266  0.62174  1.0000
  H   H6        1.0  0.28401  0.79733  0.37825  1.0000
  H   H7        1.0  0.27949  0.31305  0.62783  1.0000
  H   H8        1.0  0.72053  0.68692  0.37219  1.0000
  H   H9        1.0  0.17278  0.35545  0.48420  1.0000
  H   H10       1.0  0.82721  0.64452  0.51582  1.0000
  H   H11       1.0  0.35773  0.54069  0.60927  1.0000
  H   H12       1.0  0.64226  0.45928  0.39073  1.0000
  H   H13       1.0  0.61905  0.45820  0.61702  1.0000
  H   H14       1.0  0.38094  0.54178  0.38299  1.0000
  H   H15       1.0  0.30576  0.67352  0.19162  1.0000
  H   H16       1.0  0.69424  0.32649  0.80837  1.0000
  H   H17       1.0  0.30865  0.41518  0.17710  1.0000
  H   H18       1.0  0.69134  0.58483  0.82289  1.0000
  H   H19       1.0  0.19242  0.09549  0.08635  1.0000
  H   H20       1.0  0.80758  0.90452  0.91364  1.0000
  H   H21       1.0  0.19419  0.94800  0.10672  1.0000
  H   H22       1.0  0.80581  0.05201  0.89327  1.0000
  C   C1        1.0  0.42381  0.19229  0.36593  1.0000
  C   C2        1.0  0.57618  0.80769  0.63408  1.0000
  C   C3        1.0  0.72841  0.09995  0.43854  1.0000
  C   C4        1.0  0.27162  0.90005  0.56145  1.0000
  C   C5        1.0  0.65384  0.18313  0.52914  1.0000
  C   C6        1.0  0.34619  0.81686  0.47085  1.0000
  C   C7        1.0  0.33010  0.34454  0.54048  1.0000
  C   C8        1.0  0.66990  0.65544  0.45954  1.0000
  C   C9        1.0  0.46551  0.47215  0.55846  1.0000
  C   C10       1.0  0.53448  0.52783  0.44155  1.0000
  C   C11       1.0  0.85633  0.79247  0.17047  1.0000
  C   C12       1.0  0.14367  0.20754  0.82952  1.0000
  C   C13       1.0  0.93384  0.65792  0.16367  1.0000
  C   C14       1.0  0.06616  0.34209  0.83633  1.0000
  C   C15       1.0  0.15430  0.61055  0.17883  1.0000
  C   C16       1.0  0.84569  0.38946  0.82116  1.0000
  C   C17       1.0  0.15619  0.47424  0.17005  1.0000
  C   C18       1.0  0.84381  0.52576  0.82995  1.0000
  C   C19       1.0  0.93832  0.42049  0.14685  1.0000
  C   C20       1.0  0.06167  0.57952  0.85314  1.0000
  C   C21       1.0  0.86871  0.28291  0.13485  1.0000
  C   C22       1.0  0.13127  0.71710  0.86515  1.0000
  S   S1        1.0  0.73281  0.53633  0.13445  1.0000
  S   S2        1.0  0.26718  0.46369  0.86556  1.0000
  N   N1        1.0  0.58389  0.10633  0.33781  1.0000
  N   N2        1.0  0.41612  0.89367  0.66219  1.0000
  N   N3        1.0  0.46064  0.24109  0.48136  1.0000
  N   N4        1.0  0.53937  0.75890  0.51865  1.0000
  O   O1        1.0  0.64065  0.81180  0.15848  1.0000
  O   O2        1.0  0.35935  0.18821  0.84151  1.0000
  O   O3        1.0  0.00377  0.88482  0.18979  1.0000
  O   O4        1.0  0.99623  0.11520  0.81019  1.0000
  O   O5        1.0  0.65880  0.25544  0.10660  1.0000
  O   O6        1.0  0.34118  0.74457  0.89340  1.0000
  O   O7        1.0  0.01892  0.19792  0.15819  1.0000
  O   O8        1.0  0.98106  0.80209  0.84181  1.0000
  O   O9        1.0  0.27934  0.01543  0.06425  1.0000
  O   O10       1.0  0.72066  0.98459  0.93574  1.0000
