data_image0
_chemical_formula_structural       Ag2H24C30N6O8
_chemical_formula_sum              "Ag2 H24 C30 N6 O8"
_cell_length_a       7.55528
_cell_length_b       9.55437
_cell_length_c       10.9273
_cell_angle_alpha    76.9052
_cell_angle_beta     71.7104
_cell_angle_gamma    76.4779

_space_group_name_H-M_alt    "P 1"
_space_group_IT_number       1

loop_
  _space_group_symop_operation_xyz
  'x, y, z'

loop_
  _atom_site_type_symbol
  _atom_site_label
  _atom_site_symmetry_multiplicity
  _atom_site_fract_x
  _atom_site_fract_y
  _atom_site_fract_z
  _atom_site_occupancy
  Ag  Ag1       1.0  0.33841  0.94941  0.64644  1.0000
  Ag  Ag2       1.0  0.66160  0.05059  0.35356  1.0000
  H   H1        1.0  0.38741  0.64550  0.55438  1.0000
  H   H2        1.0  0.61260  0.35450  0.44563  1.0000
  H   H3        1.0  0.34302  0.55542  0.36888  1.0000
  H   H4        1.0  0.65699  0.44458  0.63113  1.0000
  H   H5        1.0  0.12363  0.00440  0.22827  1.0000
  H   H6        1.0  0.87637  0.99559  0.77172  1.0000
  H   H7        1.0  0.17107  0.07174  0.41908  1.0000
  H   H8        1.0  0.82893  0.92826  0.58091  1.0000
  H   H9        1.0  0.25998  0.60504  0.16852  1.0000
  H   H10       1.0  0.74002  0.39495  0.83148  1.0000
  H   H11       1.0  0.11607  0.92925  0.06734  1.0000
  H   H12       1.0  0.88393  0.07074  0.93267  1.0000
  H   H13       1.0  0.37623  0.06408  0.88684  1.0000
  H   H14       1.0  0.62377  0.93593  0.11315  1.0000
  H   H15       1.0  0.30866  0.29827  0.96928  1.0000
  H   H16       1.0  0.69133  0.70174  0.03072  1.0000
  H   H17       1.0  0.10808  0.50626  0.62989  1.0000
  H   H18       1.0  0.89191  0.49374  0.37011  1.0000
  H   H19       1.0  0.19903  0.26503  0.55660  1.0000
  H   H20       1.0  0.80097  0.73497  0.44339  1.0000
  H   H21       1.0  0.10323  0.65815  0.77020  1.0000
  H   H22       1.0  0.89676  0.34186  0.22981  1.0000
  H   H23       1.0  0.25877  0.53099  0.00827  1.0000
  H   H24       1.0  0.74123  0.46901  0.99172  1.0000
  C   C1        1.0  0.14953  0.76634  0.95103  1.0000
  C   C2        1.0  0.85048  0.23366  0.04896  1.0000
  C   C3        1.0  0.32668  0.72001  0.48056  1.0000
  C   C4        1.0  0.67333  0.27999  0.51944  1.0000
  C   C5        1.0  0.30354  0.67122  0.37685  1.0000
  C   C6        1.0  0.69645  0.32878  0.62315  1.0000
  C   C7        1.0  0.23226  0.77243  0.28057  1.0000
  C   C8        1.0  0.76774  0.22757  0.71943  1.0000
  C   C9        1.0  0.18150  0.91963  0.29756  1.0000
  C   C10       1.0  0.81850  0.08037  0.70244  1.0000
  C   C11       1.0  0.20738  0.95835  0.40460  1.0000
  C   C12       1.0  0.79262  0.04166  0.59540  1.0000
  C   C13       1.0  0.21946  0.72276  0.16747  1.0000
  C   C14       1.0  0.78054  0.27723  0.83254  1.0000
  C   C15       1.0  0.16224  0.81214  0.06666  1.0000
  C   C16       1.0  0.83776  0.18786  0.93334  1.0000
  C   C17       1.0  0.31843  0.16554  0.83243  1.0000
  C   C18       1.0  0.68157  0.83447  0.16756  1.0000
  C   C19       1.0  0.28091  0.29752  0.87725  1.0000
  C   C20       1.0  0.71909  0.70249  0.12275  1.0000
  C   C21       1.0  0.20719  0.42587  0.80316  1.0000
  C   C22       1.0  0.79281  0.57413  0.19684  1.0000
  C   C23       1.0  0.17204  0.41142  0.68801  1.0000
  C   C24       1.0  0.82795  0.58859  0.31199  1.0000
  C   C25       1.0  0.21783  0.27646  0.64849  1.0000
  C   C26       1.0  0.78217  0.72355  0.35151  1.0000
  C   C27       1.0  0.16779  0.57152  0.83546  1.0000
  C   C28       1.0  0.83220  0.42848  0.16454  1.0000
  C   C29       1.0  0.20092  0.61124  0.93604  1.0000
  C   C30       1.0  0.79908  0.38877  0.06396  1.0000
  N   N1        1.0  0.27960  0.86137  0.49536  1.0000
  N   N2        1.0  0.72040  0.13863  0.50464  1.0000
  N   N3        1.0  0.29032  0.15411  0.71925  1.0000
  N   N4        1.0  0.70968  0.84589  0.28075  1.0000
  N   N5        1.0  0.63448  0.72336  0.76686  1.0000
  N   N6        1.0  0.36552  0.27663  0.23313  1.0000
  O   O1        1.0  0.09104  0.86197  0.86620  1.0000
  O   O2        1.0  0.90898  0.13803  0.13380  1.0000
  O   O3        1.0  0.59498  0.72754  0.65972  1.0000
  O   O4        1.0  0.40503  0.27246  0.34027  1.0000
  O   O5        1.0  0.54558  0.81845  0.83837  1.0000
  O   O6        1.0  0.45442  0.18156  0.16162  1.0000
  O   O7        1.0  0.76331  0.62419  0.79836  1.0000
  O   O8        1.0  0.23668  0.37581  0.20164  1.0000
