data_image0
_chemical_formula_structural       Hg4H44Pb4C68N20Cl8
_chemical_formula_sum              "Hg4 H44 Pb4 C68 N20 Cl8"
_cell_length_a       8.93594
_cell_length_b       14.5266
_cell_length_c       14.54
_cell_angle_alpha    90
_cell_angle_beta     95.7323
_cell_angle_gamma    90

_space_group_name_H-M_alt    "P 1"
_space_group_IT_number       1

loop_
  _space_group_symop_operation_xyz
  'x, y, z'

loop_
  _atom_site_type_symbol
  _atom_site_label
  _atom_site_symmetry_multiplicity
  _atom_site_fract_x
  _atom_site_fract_y
  _atom_site_fract_z
  _atom_site_occupancy
  Hg  Hg1       1.0  0.61074  0.37029  0.51465  1.0000
  Hg  Hg2       1.0  0.88925  0.87029  0.98534  1.0000
  Hg  Hg3       1.0  0.38927  0.62972  0.48535  1.0000
  Hg  Hg4       1.0  0.11074  0.12971  0.01465  1.0000
  H   H1        1.0  0.05156  0.53633  0.23771  1.0000
  H   H2        1.0  0.44844  0.03633  0.26229  1.0000
  H   H3        1.0  0.94844  0.46367  0.76229  1.0000
  H   H4        1.0  0.55156  0.96367  0.73771  1.0000
  H   H5        1.0  0.92445  0.65992  0.13699  1.0000
  H   H6        1.0  0.57556  0.15992  0.36300  1.0000
  H   H7        1.0  0.07556  0.34008  0.86301  1.0000
  H   H8        1.0  0.42444  0.84008  0.63699  1.0000
  H   H9        1.0  0.71253  0.61528  0.02095  1.0000
  H   H10       1.0  0.78747  0.11528  0.47904  1.0000
  H   H11       1.0  0.28746  0.38472  0.97905  1.0000
  H   H12       1.0  0.21253  0.88472  0.52095  1.0000
  H   H13       1.0  0.62895  0.45075  0.01240  1.0000
  H   H14       1.0  0.87104  0.95075  0.48760  1.0000
  H   H15       1.0  0.37104  0.54925  0.98761  1.0000
  H   H16       1.0  0.12895  0.04925  0.51240  1.0000
  H   H17       1.0  0.47515  0.16192  0.03567  1.0000
  H   H18       1.0  0.02486  0.66192  0.46434  1.0000
  H   H19       1.0  0.52486  0.83809  0.96434  1.0000
  H   H20       1.0  0.97514  0.33808  0.53566  1.0000
  H   H21       1.0  0.53907  0.32664  0.03590  1.0000
  H   H22       1.0  0.96093  0.82664  0.46409  1.0000
  H   H23       1.0  0.46094  0.67336  0.96410  1.0000
  H   H24       1.0  0.03907  0.17336  0.53590  1.0000
  H   H25       1.0  0.64879  0.05133  0.12203  1.0000
  H   H26       1.0  0.85121  0.55133  0.37797  1.0000
  H   H27       1.0  0.35121  0.94867  0.87798  1.0000
  H   H28       1.0  0.14878  0.44867  0.62203  1.0000
  H   H29       1.0  0.81817  0.96643  0.16760  1.0000
  H   H30       1.0  0.68183  0.46643  0.33240  1.0000
  H   H31       1.0  0.18182  0.03358  0.83241  1.0000
  H   H32       1.0  0.31817  0.53357  0.66759  1.0000
  H   H33       1.0  0.01164  0.86884  0.25226  1.0000
  H   H34       1.0  0.48837  0.36884  0.24774  1.0000
  H   H35       1.0  0.98836  0.13116  0.74773  1.0000
  H   H36       1.0  0.51164  0.63116  0.75226  1.0000
  H   H37       1.0  0.21874  0.94281  0.35529  1.0000
  H   H38       1.0  0.28126  0.44280  0.14472  1.0000
  H   H39       1.0  0.78127  0.05719  0.64471  1.0000
  H   H40       1.0  0.71873  0.55719  0.85529  1.0000
  H   H41       1.0  0.22334  0.11677  0.36622  1.0000
  H   H42       1.0  0.27664  0.61676  0.13378  1.0000
  H   H43       1.0  0.77666  0.88323  0.63378  1.0000
  H   H44       1.0  0.72334  0.38323  0.86622  1.0000
  Pb  Pb1       1.0  0.05803  0.30961  0.28384  1.0000
  Pb  Pb2       1.0  0.44195  0.80962  0.21616  1.0000
  Pb  Pb3       1.0  0.94193  0.69036  0.71616  1.0000
  Pb  Pb4       1.0  0.55804  0.19037  0.78386  1.0000
  C   C1        1.0  0.95782  0.52043  0.18620  1.0000
  C   C2        1.0  0.54218  0.02043  0.31379  1.0000
  C   C3        1.0  0.04219  0.47957  0.81379  1.0000
  C   C4        1.0  0.45781  0.97957  0.68621  1.0000
  C   C5        1.0  0.88727  0.58874  0.13050  1.0000
  C   C6        1.0  0.61273  0.08874  0.36950  1.0000
  C   C7        1.0  0.11273  0.41126  0.86950  1.0000
  C   C8        1.0  0.38727  0.91126  0.63050  1.0000
  C   C9        1.0  0.76757  0.56328  0.06667  1.0000
  C   C10       1.0  0.73243  0.06328  0.43332  1.0000
  C   C11       1.0  0.23243  0.43672  0.93333  1.0000
  C   C12       1.0  0.26758  0.93672  0.56667  1.0000
  C   C13       1.0  0.72177  0.47163  0.06215  1.0000
  C   C14       1.0  0.77823  0.97163  0.43785  1.0000
  C   C15       1.0  0.27823  0.52837  0.93785  1.0000
  C   C16       1.0  0.22178  0.02837  0.56215  1.0000
  C   C17       1.0  0.57903  0.18562  0.07372  1.0000
  C   C18       1.0  0.92097  0.68562  0.42628  1.0000
  C   C19       1.0  0.42098  0.81439  0.92629  1.0000
  C   C20       1.0  0.07903  0.31439  0.57372  1.0000
  C   C21       1.0  0.61605  0.27849  0.07320  1.0000
  C   C22       1.0  0.88395  0.77849  0.42679  1.0000
  C   C23       1.0  0.38396  0.72151  0.92679  1.0000
  C   C24       1.0  0.11605  0.22151  0.57321  1.0000
  C   C25       1.0  0.75088  0.30831  0.12150  1.0000
  C   C26       1.0  0.74912  0.80831  0.37850  1.0000
  C   C27       1.0  0.24913  0.69169  0.87850  1.0000
  C   C28       1.0  0.25088  0.19169  0.62150  1.0000
  C   C29       1.0  0.79675  0.40660  0.12152  1.0000
  C   C30       1.0  0.70325  0.90660  0.37848  1.0000
  C   C31       1.0  0.20326  0.59340  0.87848  1.0000
  C   C32       1.0  0.29675  0.09340  0.62152  1.0000
  C   C33       1.0  0.67698  0.12416  0.12163  1.0000
  C   C34       1.0  0.82302  0.62416  0.37837  1.0000
  C   C35       1.0  0.32303  0.87584  0.87837  1.0000
  C   C36       1.0  0.17697  0.37584  0.62163  1.0000
  C   C37       1.0  0.80948  0.15790  0.16966  1.0000
  C   C38       1.0  0.69052  0.65790  0.33035  1.0000
  C   C39       1.0  0.19054  0.84209  0.83034  1.0000
  C   C40       1.0  0.30947  0.34209  0.66966  1.0000
  C   C41       1.0  0.91855  0.09495  0.22149  1.0000
  C   C42       1.0  0.58144  0.59495  0.27852  1.0000
  C   C43       1.0  0.08145  0.90505  0.77851  1.0000
  C   C44       1.0  0.41855  0.40505  0.72149  1.0000
  C   C45       1.0  0.90874  0.99897  0.21172  1.0000
  C   C46       1.0  0.59125  0.49897  0.28829  1.0000
  C   C47       1.0  0.09125  0.00103  0.78828  1.0000
  C   C48       1.0  0.40874  0.50103  0.71172  1.0000
  C   C49       1.0  0.01698  0.94349  0.25980  1.0000
  C   C50       1.0  0.48301  0.44349  0.24020  1.0000
  C   C51       1.0  0.98301  0.05651  0.74020  1.0000
  C   C52       1.0  0.51698  0.55651  0.75980  1.0000
  C   C53       1.0  0.13245  0.98463  0.31702  1.0000
  C   C54       1.0  0.36755  0.48463  0.18299  1.0000
  C   C55       1.0  0.86756  0.01537  0.68298  1.0000
  C   C56       1.0  0.63244  0.51537  0.81702  1.0000
  C   C57       1.0  0.13497  0.08026  0.32353  1.0000
  C   C58       1.0  0.36502  0.58026  0.17648  1.0000
  C   C59       1.0  0.86504  0.91974  0.67647  1.0000
  C   C60       1.0  0.63496  0.41974  0.82353  1.0000
  C   C61       1.0  0.75531  0.46747  0.57574  1.0000
  C   C62       1.0  0.74470  0.96747  0.92425  1.0000
  C   C63       1.0  0.24471  0.53253  0.42425  1.0000
  C   C64       1.0  0.25529  0.03252  0.07574  1.0000
  C   C65       1.0  0.43054  0.30174  0.44791  1.0000
  C   C66       1.0  0.06945  0.80174  0.05208  1.0000
  C   C67       1.0  0.56948  0.69825  0.55208  1.0000
  C   C68       1.0  0.93054  0.19825  0.94792  1.0000
  N   N1        1.0  0.03088  0.13374  0.27724  1.0000
  N   N2        1.0  0.46911  0.63373  0.22277  1.0000
  N   N3        1.0  0.96913  0.86626  0.72276  1.0000
  N   N4        1.0  0.53087  0.36626  0.77724  1.0000
  N   N5        1.0  0.84355  0.24840  0.16968  1.0000
  N   N6        1.0  0.65644  0.74840  0.33033  1.0000
  N   N7        1.0  0.15646  0.75160  0.83032  1.0000
  N   N8        1.0  0.34356  0.25160  0.66968  1.0000
  N   N9        1.0  0.91416  0.43203  0.18158  1.0000
  N   N10       1.0  0.58584  0.93203  0.31842  1.0000
  N   N11       1.0  0.08585  0.56797  0.81842  1.0000
  N   N12       1.0  0.41416  0.06797  0.68158  1.0000
  N   N13       1.0  0.33480  0.25866  0.40771  1.0000
  N   N14       1.0  0.16519  0.75866  0.09228  1.0000
  N   N15       1.0  0.66521  0.74134  0.59229  1.0000
  N   N16       1.0  0.83481  0.24134  0.90771  1.0000
  N   N17       1.0  0.84603  0.51754  0.61091  1.0000
  N   N18       1.0  0.65397  0.01754  0.88909  1.0000
  N   N19       1.0  0.15396  0.48247  0.38909  1.0000
  N   N20       1.0  0.34601  0.98245  0.11091  1.0000
  Cl  Cl1       1.0  0.79838  0.30705  0.38243  1.0000
  Cl  Cl2       1.0  0.70163  0.80704  0.11757  1.0000
  Cl  Cl3       1.0  0.20164  0.69296  0.61757  1.0000
  Cl  Cl4       1.0  0.29837  0.19295  0.88243  1.0000
  Cl  Cl5       1.0  0.72467  0.22944  0.63040  1.0000
  Cl  Cl6       1.0  0.77535  0.72943  0.86959  1.0000
  Cl  Cl7       1.0  0.27533  0.77057  0.36960  1.0000
  Cl  Cl8       1.0  0.22466  0.27056  0.13039  1.0000
