data_image0
_chemical_formula_structural       Dy2H20C32N10O16
_chemical_formula_sum              "Dy2 H20 C32 N10 O16"
_cell_length_a       9.49336
_cell_length_b       10.1425
_cell_length_c       11.6015
_cell_angle_alpha    66.7291
_cell_angle_beta     65.8472
_cell_angle_gamma    62.0981

_space_group_name_H-M_alt    "P 1"
_space_group_IT_number       1

loop_
  _space_group_symop_operation_xyz
  'x, y, z'

loop_
  _atom_site_type_symbol
  _atom_site_label
  _atom_site_symmetry_multiplicity
  _atom_site_fract_x
  _atom_site_fract_y
  _atom_site_fract_z
  _atom_site_occupancy
  Dy  Dy1       1.0  0.34183  0.24999  0.75000  1.0000
  Dy  Dy2       1.0  0.65817  0.75001  0.25000  1.0000
  H   H1        1.0  0.55507  0.89266  0.86102  1.0000
  H   H2        1.0  0.30882  0.60725  0.63899  1.0000
  H   H3        1.0  0.44492  0.10734  0.13898  1.0000
  H   H4        1.0  0.69118  0.39275  0.36101  1.0000
  H   H5        1.0  0.55629  0.62494  0.94116  1.0000
  H   H6        1.0  0.12241  0.87502  0.55887  1.0000
  H   H7        1.0  0.44371  0.37506  0.05884  1.0000
  H   H8        1.0  0.87759  0.12498  0.44113  1.0000
  H   H9        1.0  0.30258  0.58702  0.95404  1.0000
  H   H10       1.0  0.84371  0.91292  0.54601  1.0000
  H   H11       1.0  0.69742  0.41298  0.04596  1.0000
  H   H12       1.0  0.15629  0.08708  0.45399  1.0000
  H   H13       1.0  0.06597  0.81397  0.89335  1.0000
  H   H14       1.0  0.77329  0.68602  0.60665  1.0000
  H   H15       1.0  0.93403  0.18604  0.10665  1.0000
  H   H16       1.0  0.22671  0.31398  0.39335  1.0000
  H   H17       1.0  0.87682  0.00761  0.84134  1.0000
  H   H18       1.0  0.72583  0.49228  0.65869  1.0000
  H   H19       1.0  0.12318  0.99239  0.15866  1.0000
  H   H20       1.0  0.27417  0.50772  0.34131  1.0000
  C   C1        1.0  0.44906  0.87027  0.86939  1.0000
  C   C2        1.0  0.18875  0.62965  0.63063  1.0000
  C   C3        1.0  0.55094  0.12973  0.13061  1.0000
  C   C4        1.0  0.81125  0.37035  0.36937  1.0000
  C   C5        1.0  0.44855  0.72124  0.91415  1.0000
  C   C6        1.0  0.08394  0.77871  0.58589  1.0000
  C   C7        1.0  0.55145  0.27876  0.08585  1.0000
  C   C8        1.0  0.91606  0.22129  0.41411  1.0000
  C   C9        1.0  0.30911  0.70086  0.92254  1.0000
  C   C10       1.0  0.93252  0.79909  0.57752  1.0000
  C   C11       1.0  0.69089  0.29914  0.07746  1.0000
  C   C12       1.0  0.06749  0.20091  0.42248  1.0000
  C   C13       1.0  0.17548  0.82924  0.88637  1.0000
  C   C14       1.0  0.89110  0.67070  0.61365  1.0000
  C   C15       1.0  0.82452  0.17076  0.11363  1.0000
  C   C16       1.0  0.10890  0.32930  0.38635  1.0000
  C   C17       1.0  0.18504  0.97541  0.84129  1.0000
  C   C18       1.0  0.00175  0.52453  0.65870  1.0000
  C   C19       1.0  0.81496  0.02459  0.15871  1.0000
  C   C20       1.0  0.99826  0.47547  0.34130  1.0000
  C   C21       1.0  0.05082  0.11658  0.79608  1.0000
  C   C22       1.0  0.96355  0.38333  0.70391  1.0000
  C   C23       1.0  0.94918  0.88342  0.20392  1.0000
  C   C24       1.0  0.03645  0.61667  0.29609  1.0000
  C   C25       1.0  0.90304  0.11324  0.80011  1.0000
  C   C26       1.0  0.81644  0.38663  0.69990  1.0000
  C   C27       1.0  0.09697  0.88676  0.19989  1.0000
  C   C28       1.0  0.18356  0.61337  0.30009  1.0000
  C   C29       1.0  0.78606  0.24995  0.75002  1.0000
  C   C30       1.0  0.21394  0.75005  0.24998  1.0000
  C   C31       1.0  0.62815  0.24996  0.75001  1.0000
  C   C32       1.0  0.37185  0.75004  0.24999  1.0000
  N   N1        1.0  0.18953  0.33988  0.99214  1.0000
  N   N2        1.0  0.52158  0.16013  0.50785  1.0000
  N   N3        1.0  0.81047  0.66012  0.00786  1.0000
  N   N4        1.0  0.47842  0.83987  0.49215  1.0000
  N   N5        1.0  0.07836  0.24997  0.74998  1.0000
  N   N6        1.0  0.92164  0.75003  0.25002  1.0000
  N   N7        1.0  0.32120  0.99425  0.83337  1.0000
  N   N8        1.0  0.14884  0.50569  0.66662  1.0000
  N   N9        1.0  0.67880  0.00574  0.16663  1.0000
  N   N10       1.0  0.85116  0.49431  0.33338  1.0000
  O   O1        1.0  0.57594  0.14294  0.83217  1.0000
  O   O2        1.0  0.55111  0.35702  0.66785  1.0000
  O   O3        1.0  0.42406  0.85706  0.16783  1.0000
  O   O4        1.0  0.44889  0.64298  0.33215  1.0000
  O   O5        1.0  0.27638  0.40964  0.89151  1.0000
  O   O6        1.0  0.57758  0.09040  0.60847  1.0000
  O   O7        1.0  0.72362  0.59036  0.10849  1.0000
  O   O8        1.0  0.42241  0.90960  0.39153  1.0000
  O   O9        1.0  0.17444  0.22817  0.97689  1.0000
  O   O10       1.0  0.37957  0.27189  0.52310  1.0000
  O   O11       1.0  0.82557  0.77183  0.02311  1.0000
  O   O12       1.0  0.62043  0.72811  0.47690  1.0000
  O   O13       1.0  0.12603  0.37633  0.09662  1.0000
  O   O14       1.0  0.59893  0.12362  0.40340  1.0000
  O   O15       1.0  0.87397  0.62367  0.90338  1.0000
  O   O16       1.0  0.40107  0.87638  0.59660  1.0000
