data_image0
_chemical_formula_structural       Er2H20C32N10O16
_chemical_formula_sum              "Er2 H20 C32 N10 O16"
_cell_length_a       9.4379
_cell_length_b       10.1088
_cell_length_c       11.612
_cell_angle_alpha    67.206
_cell_angle_beta     66.0204
_cell_angle_gamma    62.1704

_space_group_name_H-M_alt    "P 1"
_space_group_IT_number       1

loop_
  _space_group_symop_operation_xyz
  'x, y, z'

loop_
  _atom_site_type_symbol
  _atom_site_label
  _atom_site_symmetry_multiplicity
  _atom_site_fract_x
  _atom_site_fract_y
  _atom_site_fract_z
  _atom_site_occupancy
  Er  Er1       1.0  0.65992  0.24999  0.74999  1.0000
  Er  Er2       1.0  0.34009  0.75001  0.25001  1.0000
  H   H1        1.0  0.15620  0.58712  0.95175  1.0000
  H   H2        1.0  0.69493  0.91289  0.54828  1.0000
  H   H3        1.0  0.84381  0.41288  0.04825  1.0000
  H   H4        1.0  0.30507  0.08711  0.45173  1.0000
  H   H5        1.0  0.87596  0.62631  0.93794  1.0000
  H   H6        1.0  0.43998  0.87373  0.56220  1.0000
  H   H7        1.0  0.12405  0.37369  0.06207  1.0000
  H   H8        1.0  0.56002  0.12627  0.43781  1.0000
  H   H9        1.0  0.22799  0.81360  0.89250  1.0000
  H   H10       1.0  0.93401  0.68636  0.60739  1.0000
  H   H11       1.0  0.77201  0.18640  0.10750  1.0000
  H   H12       1.0  0.06599  0.31364  0.39261  1.0000
  H   H13       1.0  0.68899  0.89477  0.85919  1.0000
  H   H14       1.0  0.44276  0.60523  0.64087  1.0000
  H   H15       1.0  0.31101  0.10522  0.14081  1.0000
  H   H16       1.0  0.55723  0.39476  0.35913  1.0000
  H   H17       1.0  0.27615  0.00803  0.84092  1.0000
  H   H18       1.0  0.12487  0.49223  0.65896  1.0000
  H   H19       1.0  0.72385  0.99197  0.15909  1.0000
  H   H20       1.0  0.87513  0.50777  0.34104  1.0000
  C   C1        1.0  0.06721  0.70130  0.92066  1.0000
  C   C2        1.0  0.68899  0.79872  0.57934  1.0000
  C   C3        1.0  0.93280  0.29870  0.07934  1.0000
  C   C4        1.0  0.31101  0.20128  0.42065  1.0000
  C   C5        1.0  0.21573  0.25016  0.74994  1.0000
  C   C6        1.0  0.78427  0.74984  0.25006  1.0000
  C   C7        1.0  0.91480  0.72238  0.91199  1.0000
  C   C8        1.0  0.54896  0.77764  0.58809  1.0000
  C   C9        1.0  0.08520  0.27762  0.08801  1.0000
  C   C10       1.0  0.45104  0.22236  0.41191  1.0000
  C   C11       1.0  0.10953  0.82933  0.88510  1.0000
  C   C12       1.0  0.82384  0.67065  0.61481  1.0000
  C   C13       1.0  0.89047  0.17067  0.11489  1.0000
  C   C14       1.0  0.17616  0.32934  0.38518  1.0000
  C   C15       1.0  0.80986  0.87167  0.86766  1.0000
  C   C16       1.0  0.54899  0.62835  0.63237  1.0000
  C   C17       1.0  0.19014  0.12833  0.13234  1.0000
  C   C18       1.0  0.45101  0.37164  0.36763  1.0000
  C   C19       1.0  0.18491  0.11361  0.80018  1.0000
  C   C20       1.0  0.09853  0.38662  0.69971  1.0000
  C   C21       1.0  0.81509  0.88639  0.19983  1.0000
  C   C22       1.0  0.90147  0.61338  0.30029  1.0000
  C   C23       1.0  0.03724  0.11674  0.79588  1.0000
  C   C24       1.0  0.94975  0.38332  0.70405  1.0000
  C   C25       1.0  0.96276  0.88326  0.20412  1.0000
  C   C26       1.0  0.05025  0.61668  0.29595  1.0000
  C   C27       1.0  0.99869  0.97571  0.84035  1.0000
  C   C28       1.0  0.81461  0.52429  0.65959  1.0000
  C   C29       1.0  0.00131  0.02429  0.15965  1.0000
  C   C30       1.0  0.18539  0.47571  0.34041  1.0000
  C   C31       1.0  0.37438  0.25020  0.74995  1.0000
  C   C32       1.0  0.62562  0.74980  0.25005  1.0000
  N   N1        1.0  0.92197  0.25001  0.74997  1.0000
  N   N2        1.0  0.07803  0.74999  0.25003  1.0000
  N   N3        1.0  0.85063  0.99529  0.83210  1.0000
  N   N4        1.0  0.67786  0.50472  0.66788  1.0000
  N   N5        1.0  0.14937  0.00471  0.16790  1.0000
  N   N6        1.0  0.32214  0.49528  0.33212  1.0000
  N   N7        1.0  0.48036  0.33945  0.99027  1.0000
  N   N8        1.0  0.81012  0.16049  0.50970  1.0000
  N   N9        1.0  0.51963  0.66055  0.00973  1.0000
  N   N10       1.0  0.18988  0.83951  0.49029  1.0000
  O   O1        1.0  0.42475  0.41018  0.88985  1.0000
  O   O2        1.0  0.72477  0.08978  0.61010  1.0000
  O   O3        1.0  0.57525  0.58982  0.11014  1.0000
  O   O4        1.0  0.27523  0.91023  0.38990  1.0000
  O   O5        1.0  0.40203  0.37477  0.09520  1.0000
  O   O6        1.0  0.87202  0.12522  0.40476  1.0000
  O   O7        1.0  0.59796  0.62524  0.90480  1.0000
  O   O8        1.0  0.12798  0.87478  0.59524  1.0000
  O   O9        1.0  0.62335  0.22775  0.97413  1.0000
  O   O10       1.0  0.82533  0.27213  0.52587  1.0000
  O   O11       1.0  0.37665  0.77225  0.02587  1.0000
  O   O12       1.0  0.17467  0.72787  0.47413  1.0000
  O   O13       1.0  0.45198  0.14367  0.83161  1.0000
  O   O14       1.0  0.42716  0.35668  0.66831  1.0000
  O   O15       1.0  0.54802  0.85633  0.16839  1.0000
  O   O16       1.0  0.57284  0.64332  0.33169  1.0000
