data_image0
_chemical_formula_structural       Ba2Zn4H28C48N8O24
_chemical_formula_sum              "Ba2 Zn4 H28 C48 N8 O24"
_cell_length_a       7.41768
_cell_length_b       11.363
_cell_length_c       15.3526
_cell_angle_alpha    95.4511
_cell_angle_beta     97.5587
_cell_angle_gamma    105.093

_space_group_name_H-M_alt    "P 1"
_space_group_IT_number       1

loop_
  _space_group_symop_operation_xyz
  'x, y, z'

loop_
  _atom_site_type_symbol
  _atom_site_label
  _atom_site_symmetry_multiplicity
  _atom_site_fract_x
  _atom_site_fract_y
  _atom_site_fract_z
  _atom_site_occupancy
  Ba  Ba1       1.0  0.74359  0.47235  0.44043  1.0000
  Ba  Ba2       1.0  0.25641  0.52765  0.55957  1.0000
  Zn  Zn1       1.0  0.99020  0.96527  0.11956  1.0000
  Zn  Zn2       1.0  0.00980  0.03473  0.88044  1.0000
  Zn  Zn3       1.0  0.02716  0.30360  0.73766  1.0000
  Zn  Zn4       1.0  0.97285  0.69640  0.26233  1.0000
  H   H1        1.0  0.65216  0.20290  0.26240  1.0000
  H   H2        1.0  0.34784  0.79710  0.73760  1.0000
  H   H3        1.0  0.42545  0.25705  0.86523  1.0000
  H   H4        1.0  0.57455  0.74295  0.13477  1.0000
  H   H5        1.0  0.55124  0.65372  0.93453  1.0000
  H   H6        1.0  0.44876  0.34628  0.06547  1.0000
  H   H7        1.0  0.60097  0.47509  0.68100  1.0000
  H   H8        1.0  0.39903  0.52491  0.31900  1.0000
  H   H9        1.0  0.07068  0.75647  0.82893  1.0000
  H   H10       1.0  0.92932  0.24353  0.17107  1.0000
  H   H11       1.0  0.30619  0.12366  0.28468  1.0000
  H   H12       1.0  0.69381  0.87634  0.71532  1.0000
  H   H13       1.0  0.70761  0.10751  0.11559  1.0000
  H   H14       1.0  0.29239  0.89249  0.88441  1.0000
  H   H15       1.0  0.35645  0.95335  0.03535  1.0000
  H   H16       1.0  0.64355  0.04665  0.96465  1.0000
  H   H17       1.0  0.68100  0.98655  0.59548  1.0000
  H   H18       1.0  0.31900  0.01345  0.40452  1.0000
  H   H19       1.0  0.68218  0.75550  0.35781  1.0000
  H   H20       1.0  0.31781  0.24449  0.64219  1.0000
  H   H21       1.0  0.91994  0.14914  0.38021  1.0000
  H   H22       1.0  0.08006  0.85086  0.61979  1.0000
  H   H23       1.0  0.58360  0.20590  0.73418  1.0000
  H   H24       1.0  0.41640  0.79410  0.26582  1.0000
  H   H25       1.0  0.67023  0.39197  0.99638  1.0000
  H   H26       1.0  0.32977  0.60803  0.00362  1.0000
  H   H27       1.0  0.01599  0.42164  0.93607  1.0000
  H   H28       1.0  0.98402  0.57836  0.06393  1.0000
  C   C1        1.0  0.81942  0.71685  0.89028  1.0000
  C   C2        1.0  0.18058  0.28315  0.10972  1.0000
  C   C3        1.0  0.63379  0.64338  0.88232  1.0000
  C   C4        1.0  0.36621  0.35662  0.11768  1.0000
  C   C5        1.0  0.55213  0.55808  0.80624  1.0000
  C   C6        1.0  0.44787  0.44192  0.19376  1.0000
  C   C7        1.0  0.65991  0.54387  0.73944  1.0000
  C   C8        1.0  0.34009  0.45613  0.26056  1.0000
  C   C9        1.0  0.84845  0.61488  0.74872  1.0000
  C   C10       1.0  0.15155  0.38512  0.25128  1.0000
  C   C11       1.0  0.92573  0.70110  0.82358  1.0000
  C   C12       1.0  0.07426  0.29890  0.17642  1.0000
  C   C13       1.0  0.90676  0.81579  0.96556  1.0000
  C   C14       1.0  0.09324  0.18421  0.03444  1.0000
  C   C15       1.0  0.35262  0.48086  0.80117  1.0000
  C   C16       1.0  0.64738  0.51914  0.19883  1.0000
  C   C17       1.0  0.97146  0.60086  0.68006  1.0000
  C   C18       1.0  0.02855  0.39914  0.31994  1.0000
  C   C19       1.0  0.36376  0.09516  0.22755  1.0000
  C   C20       1.0  0.63625  0.90484  0.77245  1.0000
  C   C21       1.0  0.57191  0.08701  0.13796  1.0000
  C   C22       1.0  0.42808  0.91299  0.86204  1.0000
  C   C23       1.0  0.39909  0.01083  0.09878  1.0000
  C   C24       1.0  0.60090  0.98916  0.90122  1.0000
  C   C25       1.0  0.80765  0.08079  0.49378  1.0000
  C   C26       1.0  0.19235  0.91921  0.50622  1.0000
  C   C27       1.0  0.71465  0.97638  0.52880  1.0000
  C   C28       1.0  0.28535  0.02362  0.47120  1.0000
  C   C29       1.0  0.66815  0.85938  0.47979  1.0000
  C   C30       1.0  0.33185  0.14062  0.52021  1.0000
  C   C31       1.0  0.71436  0.84711  0.39485  1.0000
  C   C32       1.0  0.28564  0.15289  0.60515  1.0000
  C   C33       1.0  0.80300  0.95097  0.35841  1.0000
  C   C34       1.0  0.19700  0.04903  0.64159  1.0000
  C   C35       1.0  0.84875  0.06814  0.40778  1.0000
  C   C36       1.0  0.15125  0.93186  0.59222  1.0000
  C   C37       1.0  0.87988  0.20403  0.55092  1.0000
  C   C38       1.0  0.12012  0.79597  0.44908  1.0000
  C   C39       1.0  0.57517  0.74635  0.51810  1.0000
  C   C40       1.0  0.42483  0.25365  0.48190  1.0000
  C   C41       1.0  0.85571  0.93611  0.26923  1.0000
  C   C42       1.0  0.14429  0.06388  0.73077  1.0000
  C   C43       1.0  0.65496  0.25969  0.79717  1.0000
  C   C44       1.0  0.34505  0.74031  0.20283  1.0000
  C   C45       1.0  0.70382  0.35593  0.93439  1.0000
  C   C46       1.0  0.29618  0.64407  0.06561  1.0000
  C   C47       1.0  0.87386  0.37195  0.90436  1.0000
  C   C48       1.0  0.12614  0.62805  0.09564  1.0000
  N   N1        1.0  0.26964  0.01676  0.15515  1.0000
  N   N2        1.0  0.73036  0.98324  0.84485  1.0000
  N   N3        1.0  0.54689  0.13813  0.21895  1.0000
  N   N4        1.0  0.45311  0.86187  0.78105  1.0000
  N   N5        1.0  0.84140  0.31170  0.81872  1.0000
  N   N6        1.0  0.15861  0.68830  0.18128  1.0000
  N   N7        1.0  0.56839  0.28473  0.86591  1.0000
  N   N8        1.0  0.43162  0.71527  0.13409  1.0000
  O   O1        1.0  0.83312  0.81780  0.03637  1.0000
  O   O2        1.0  0.16688  0.18220  0.96363  1.0000
  O   O3        1.0  0.05551  0.89899  0.95702  1.0000
  O   O4        1.0  0.94449  0.10101  0.04298  1.0000
  O   O5        1.0  0.26303  0.42562  0.72237  1.0000
  O   O6        1.0  0.73698  0.57438  0.27763  1.0000
  O   O7        1.0  0.28063  0.46854  0.86986  1.0000
  O   O8        1.0  0.71937  0.53146  0.13014  1.0000
  O   O9        1.0  0.89788  0.52113  0.61192  1.0000
  O   O10       1.0  0.10212  0.47887  0.38808  1.0000
  O   O11       1.0  0.14287  0.66595  0.69384  1.0000
  O   O12       1.0  0.85713  0.33405  0.30616  1.0000
  O   O13       1.0  0.85866  0.20160  0.63310  1.0000
  O   O14       1.0  0.14134  0.79840  0.36690  1.0000
  O   O15       1.0  0.95977  0.29741  0.51835  1.0000
  O   O16       1.0  0.04023  0.70259  0.48165  1.0000
  O   O17       1.0  0.52018  0.75874  0.59229  1.0000
  O   O18       1.0  0.47982  0.24126  0.40771  1.0000
  O   O19       1.0  0.55268  0.64131  0.47235  1.0000
  O   O20       1.0  0.44732  0.35869  0.52765  1.0000
  O   O21       1.0  0.83798  0.82863  0.22768  1.0000
  O   O22       1.0  0.16202  0.17137  0.77232  1.0000
  O   O23       1.0  0.91757  0.03185  0.23287  1.0000
  O   O24       1.0  0.08243  0.96815  0.76713  1.0000
