data_image0
_chemical_formula_structural       Dy2Ag2H40C56N4O22
_chemical_formula_sum              "Dy2 Ag2 H40 C56 N4 O22"
_cell_length_a       10.6384
_cell_length_b       10.6255
_cell_length_c       12.9242
_cell_angle_alpha    103.028
_cell_angle_beta     104.536
_cell_angle_gamma    94.3432

_space_group_name_H-M_alt    "P 1"
_space_group_IT_number       1

loop_
  _space_group_symop_operation_xyz
  'x, y, z'

loop_
  _atom_site_type_symbol
  _atom_site_label
  _atom_site_symmetry_multiplicity
  _atom_site_fract_x
  _atom_site_fract_y
  _atom_site_fract_z
  _atom_site_occupancy
  Dy  Dy1       1.0  0.10316  0.32419  0.40986  1.0000
  Dy  Dy2       1.0  0.89684  0.67581  0.59014  1.0000
  Ag  Ag1       1.0  0.48078  0.85548  0.51379  1.0000
  Ag  Ag2       1.0  0.51922  0.14452  0.48622  1.0000
  H   H1        1.0  0.04303  0.01676  0.63731  1.0000
  H   H2        1.0  0.95697  0.98324  0.36269  1.0000
  H   H3        1.0  0.11312  0.13678  0.99178  1.0000
  H   H4        1.0  0.88688  0.86322  0.00823  1.0000
  H   H5        1.0  0.21214  0.41135  0.81280  1.0000
  H   H6        1.0  0.78786  0.58866  0.18720  1.0000
  H   H7        1.0  0.20821  0.54820  0.96586  1.0000
  H   H8        1.0  0.79179  0.45180  0.03414  1.0000
  H   H9        1.0  0.36084  0.48400  0.98321  1.0000
  H   H10       1.0  0.63916  0.51600  0.01679  1.0000
  H   H11       1.0  0.52098  0.53411  0.16487  1.0000
  H   H12       1.0  0.47902  0.46589  0.83513  1.0000
  H   H13       1.0  0.58801  0.66838  0.35985  1.0000
  H   H14       1.0  0.41199  0.33162  0.64016  1.0000
  H   H15       1.0  0.21573  0.77500  0.33314  1.0000
  H   H16       1.0  0.78427  0.22500  0.66686  1.0000
  H   H17       1.0  0.13298  0.64279  0.13819  1.0000
  H   H18       1.0  0.86702  0.35721  0.86181  1.0000
  H   H19       1.0  0.58160  0.41023  0.47584  1.0000
  H   H20       1.0  0.41841  0.58977  0.52416  1.0000
  H   H21       1.0  0.34363  0.26363  0.13907  1.0000
  H   H22       1.0  0.65637  0.73637  0.86093  1.0000
  H   H23       1.0  0.76302  0.25178  0.22332  1.0000
  H   H24       1.0  0.23699  0.74823  0.77668  1.0000
  H   H25       1.0  0.68355  0.08426  0.06998  1.0000
  H   H26       1.0  0.31645  0.91574  0.93002  1.0000
  H   H27       1.0  0.72490  0.23610  0.04516  1.0000
  H   H28       1.0  0.27510  0.76390  0.95483  1.0000
  H   H29       1.0  0.40020  0.12404  0.87085  1.0000
  H   H30       1.0  0.59980  0.87596  0.12915  1.0000
  H   H31       1.0  0.34840  0.01426  0.67054  1.0000
  H   H32       1.0  0.65160  0.98574  0.32946  1.0000
  H   H33       1.0  0.73344  0.94034  0.70100  1.0000
  H   H34       1.0  0.26656  0.05966  0.29900  1.0000
  H   H35       1.0  0.79917  0.04600  0.90378  1.0000
  H   H36       1.0  0.20083  0.95401  0.09622  1.0000
  H   H37       1.0  0.93595  0.50772  0.31327  1.0000
  H   H38       1.0  0.06406  0.49228  0.68673  1.0000
  H   H39       1.0  0.03751  0.45923  0.24677  1.0000
  H   H40       1.0  0.96249  0.54077  0.75323  1.0000
  C   C1        1.0  0.12995  0.21725  0.71601  1.0000
  C   C2        1.0  0.87004  0.78275  0.28399  1.0000
  C   C3        1.0  0.07969  0.09147  0.71505  1.0000
  C   C4        1.0  0.92030  0.90853  0.28495  1.0000
  C   C5        1.0  0.07505  0.06266  0.81510  1.0000
  C   C6        1.0  0.92495  0.93733  0.18490  1.0000
  C   C7        1.0  0.11979  0.15893  0.91473  1.0000
  C   C8        1.0  0.88021  0.84107  0.08528  1.0000
  C   C9        1.0  0.16955  0.28487  0.91461  1.0000
  C   C10       1.0  0.83044  0.71513  0.08539  1.0000
  C   C11       1.0  0.17506  0.31437  0.81578  1.0000
  C   C12       1.0  0.82493  0.68564  0.18422  1.0000
  C   C13       1.0  0.13389  0.25395  0.61164  1.0000
  C   C14       1.0  0.86611  0.74605  0.38836  1.0000
  C   C15       1.0  0.02386  0.92620  0.81694  1.0000
  C   C16       1.0  0.97614  0.07380  0.18306  1.0000
  C   C17       1.0  0.27612  0.49837  0.01725  1.0000
  C   C18       1.0  0.72388  0.50163  0.98275  1.0000
  C   C19       1.0  0.32107  0.57785  0.13503  1.0000
  C   C20       1.0  0.67893  0.42215  0.86497  1.0000
  C   C21       1.0  0.45004  0.58628  0.19857  1.0000
  C   C22       1.0  0.54996  0.41371  0.80143  1.0000
  C   C23       1.0  0.48890  0.66155  0.30703  1.0000
  C   C24       1.0  0.51110  0.33845  0.69297  1.0000
  C   C25       1.0  0.28007  0.71969  0.29283  1.0000
  C   C26       1.0  0.71993  0.28031  0.70717  1.0000
  C   C27       1.0  0.23465  0.64534  0.18430  1.0000
  C   C28       1.0  0.76535  0.35466  0.81570  1.0000
  C   C29       1.0  0.68355  0.33412  0.35616  1.0000
  C   C30       1.0  0.31645  0.66587  0.64384  1.0000
  C   C31       1.0  0.57260  0.36452  0.38960  1.0000
  C   C32       1.0  0.42741  0.63548  0.61040  1.0000
  C   C33       1.0  0.45022  0.33539  0.31108  1.0000
  C   C34       1.0  0.54978  0.66461  0.68893  1.0000
  C   C35       1.0  0.43916  0.28311  0.19968  1.0000
  C   C36       1.0  0.56084  0.71688  0.80032  1.0000
  C   C37       1.0  0.55174  0.25333  0.16706  1.0000
  C   C38       1.0  0.44826  0.74666  0.83294  1.0000
  C   C39       1.0  0.67399  0.27590  0.24528  1.0000
  C   C40       1.0  0.32601  0.72410  0.75471  1.0000
  C   C41       1.0  0.81397  0.35902  0.43960  1.0000
  C   C42       1.0  0.18603  0.64097  0.56040  1.0000
  C   C43       1.0  0.32990  0.34780  0.34873  1.0000
  C   C44       1.0  0.67011  0.65220  0.65127  1.0000
  C   C45       1.0  0.64401  0.15523  0.02439  1.0000
  C   C46       1.0  0.35600  0.84477  0.97561  1.0000
  C   C47       1.0  0.60431  0.09293  0.90306  1.0000
  C   C48       1.0  0.39569  0.90707  0.09694  1.0000
  C   C49       1.0  0.47657  0.08413  0.83650  1.0000
  C   C50       1.0  0.52343  0.91586  0.16349  1.0000
  C   C51       1.0  0.44727  0.02318  0.72458  1.0000
  C   C52       1.0  0.55273  0.97681  0.27542  1.0000
  C   C53       1.0  0.66223  0.98219  0.74147  1.0000
  C   C54       1.0  0.33777  0.01781  0.25853  1.0000
  C   C55       1.0  0.69859  0.04085  0.85385  1.0000
  C   C56       1.0  0.30141  0.95916  0.14615  1.0000
  N   N1        1.0  0.40567  0.72903  0.35303  1.0000
  N   N2        1.0  0.59433  0.27096  0.64698  1.0000
  N   N3        1.0  0.53824  0.97306  0.67742  1.0000
  N   N4        1.0  0.46176  0.02694  0.32258  1.0000
  O   O1        1.0  0.13885  0.37587  0.61158  1.0000
  O   O2        1.0  0.86116  0.62413  0.38842  1.0000
  O   O3        1.0  0.96699  0.42854  0.27467  1.0000
  O   O4        1.0  0.03301  0.57146  0.72533  1.0000
  O   O5        1.0  0.13202  0.16822  0.52500  1.0000
  O   O6        1.0  0.86797  0.83178  0.47500  1.0000
  O   O7        1.0  0.94307  0.85803  0.72510  1.0000
  O   O8        1.0  0.05693  0.14196  0.27490  1.0000
  O   O9        1.0  0.06151  0.88905  0.90317  1.0000
  O   O10       1.0  0.93849  0.11096  0.09683  1.0000
  O   O11       1.0  0.21115  0.37435  0.01573  1.0000
  O   O12       1.0  0.78885  0.62566  0.98427  1.0000
  O   O13       1.0  0.89560  0.28194  0.41968  1.0000
  O   O14       1.0  0.10440  0.71806  0.58032  1.0000
  O   O15       1.0  0.83661  0.45342  0.52469  1.0000
  O   O16       1.0  0.16340  0.54658  0.47531  1.0000
  O   O17       1.0  0.32977  0.31472  0.43913  1.0000
  O   O18       1.0  0.67023  0.68528  0.56087  1.0000
  O   O19       1.0  0.23013  0.38317  0.29166  1.0000
  O   O20       1.0  0.76987  0.61683  0.70834  1.0000
  O   O21       1.0  0.53286  0.20025  0.05644  1.0000
  O   O22       1.0  0.46714  0.79975  0.94356  1.0000
