data_image0
_chemical_formula_structural       Co2H34C54N6O20
_chemical_formula_sum              "Co2 H34 C54 N6 O20"
_cell_length_a       9.93223
_cell_length_b       12.3948
_cell_length_c       12.675
_cell_angle_alpha    113.628
_cell_angle_beta     102.826
_cell_angle_gamma    103.291

_space_group_name_H-M_alt    "P 1"
_space_group_IT_number       1

loop_
  _space_group_symop_operation_xyz
  'x, y, z'

loop_
  _atom_site_type_symbol
  _atom_site_label
  _atom_site_symmetry_multiplicity
  _atom_site_fract_x
  _atom_site_fract_y
  _atom_site_fract_z
  _atom_site_occupancy
  Co  Co1       1.0  0.93630  0.08234  0.34455  1.0000
  Co  Co2       1.0  0.05394  0.92847  0.64889  1.0000
  H   H1        1.0  0.62263  0.10942  0.24444  1.0000
  H   H2        1.0  0.37299  0.89138  0.75512  1.0000
  H   H3        1.0  0.98970  0.89901  0.32594  1.0000
  H   H4        1.0  0.03096  0.14421  0.67175  1.0000
  H   H5        1.0  0.88104  0.89964  0.40142  1.0000
  H   H6        1.0  0.12599  0.11928  0.58946  1.0000
  H   H7        1.0  0.45736  0.04395  0.34872  1.0000
  H   H8        1.0  0.55139  0.94962  0.65392  1.0000
  H   H9        1.0  0.36722  0.25485  0.67122  1.0000
  H   H10       1.0  0.62760  0.74113  0.32239  1.0000
  H   H11       1.0  0.81461  0.27578  0.69888  1.0000
  H   H12       1.0  0.18654  0.73270  0.30731  1.0000
  H   H13       1.0  0.75452  0.47411  0.22238  1.0000
  H   H14       1.0  0.24379  0.52561  0.77648  1.0000
  H   H15       1.0  0.50853  0.08374  0.95884  1.0000
  H   H16       1.0  0.49361  0.91527  0.03960  1.0000
  H   H17       1.0  0.50667  0.13203  0.78810  1.0000
  H   H18       1.0  0.49198  0.86783  0.21062  1.0000
  H   H19       1.0  0.08484  0.36215  0.52554  1.0000
  H   H20       1.0  0.89283  0.62937  0.47402  1.0000
  H   H21       1.0  0.16995  0.54959  0.49572  1.0000
  H   H22       1.0  0.81849  0.44360  0.50889  1.0000
  H   H23       1.0  0.11663  0.52407  0.28203  1.0000
  H   H24       1.0  0.88282  0.47683  0.72624  1.0000
  H   H25       1.0  0.00190  0.36578  0.04565  1.0000
  H   H26       1.0  0.99916  0.63235  0.95534  1.0000
  H   H27       1.0  0.86996  0.14479  0.87963  1.0000
  H   H28       1.0  0.13404  0.85367  0.12195  1.0000
  H   H29       1.0  0.75276  0.90905  0.81799  1.0000
  H   H30       1.0  0.24953  0.08380  0.18393  1.0000
  H   H31       1.0  0.70658  0.74852  0.89397  1.0000
  H   H32       1.0  0.30125  0.25048  0.11601  1.0000
  H   H33       1.0  0.79587  0.81728  0.11692  1.0000
  H   H34       1.0  0.21817  0.18503  0.89207  1.0000
  C   C1        1.0  0.64803  0.15889  0.51589  1.0000
  C   C2        1.0  0.35749  0.84344  0.48793  1.0000
  C   C3        1.0  0.49734  0.10887  0.44675  1.0000
  C   C4        1.0  0.50841  0.88764  0.55495  1.0000
  C   C5        1.0  0.39515  0.14050  0.50137  1.0000
  C   C6        1.0  0.60642  0.85333  0.49562  1.0000
  C   C7        1.0  0.44454  0.22580  0.62716  1.0000
  C   C8        1.0  0.55259  0.77144  0.36869  1.0000
  C   C9        1.0  0.59482  0.27211  0.69576  1.0000
  C   C10       1.0  0.40206  0.72858  0.30330  1.0000
  C   C11       1.0  0.69782  0.23898  0.64302  1.0000
  C   C12       1.0  0.30364  0.76484  0.36021  1.0000
  C   C13       1.0  0.75157  0.12656  0.45081  1.0000
  C   C14       1.0  0.25271  0.87869  0.55126  1.0000
  C   C15       1.0  0.23434  0.08125  0.42158  1.0000
  C   C16       1.0  0.76779  0.90101  0.56790  1.0000
  C   C17       1.0  0.63121  0.33091  0.90721  1.0000
  C   C18       1.0  0.36507  0.66950  0.09168  1.0000
  C   C19       1.0  0.69729  0.42654  0.03131  1.0000
  C   C20       1.0  0.29920  0.57363  0.96765  1.0000
  C   C21       1.0  0.69881  0.39933  0.12753  1.0000
  C   C22       1.0  0.29950  0.60042  0.87132  1.0000
  C   C23       1.0  0.63030  0.27564  0.10215  1.0000
  C   C24       1.0  0.36960  0.72377  0.89657  1.0000
  C   C25       1.0  0.56097  0.18060  0.97925  1.0000
  C   C26       1.0  0.43993  0.81870  0.01946  1.0000
  C   C27       1.0  0.56108  0.20747  0.88277  1.0000
  C   C28       1.0  0.43821  0.79232  0.11601  1.0000
  C   C29       1.0  0.64236  0.24834  0.20706  1.0000
  C   C30       1.0  0.35680  0.75138  0.79168  1.0000
  C   C31       1.0  0.06582  0.35252  0.43374  1.0000
  C   C32       1.0  0.91809  0.64137  0.56716  1.0000
  C   C33       1.0  0.11183  0.45737  0.41496  1.0000
  C   C34       1.0  0.87719  0.53705  0.58790  1.0000
  C   C35       1.0  0.08360  0.44275  0.29692  1.0000
  C   C36       1.0  0.91208  0.55575  0.70732  1.0000
  C   C37       1.0  0.01060  0.32066  0.19550  1.0000
  C   C38       1.0  0.98732  0.67909  0.80636  1.0000
  C   C39       1.0  0.97179  0.22047  0.22273  1.0000
  C   C40       1.0  0.02307  0.77792  0.77615  1.0000
  C   C41       1.0  0.97202  0.28951  0.06821  1.0000
  C   C42       1.0  0.02888  0.70904  0.93327  1.0000
  C   C43       1.0  0.89894  0.16748  0.97612  1.0000
  C   C44       1.0  0.10343  0.83050  0.02528  1.0000
  C   C45       1.0  0.86152  0.06509  0.00343  1.0000
  C   C46       1.0  0.14116  0.93198  0.99700  1.0000
  C   C47       1.0  0.78721  0.93644  0.91574  1.0000
  C   C48       1.0  0.21656  0.05977  0.08697  1.0000
  C   C49       1.0  0.76264  0.84882  0.95777  1.0000
  C   C50       1.0  0.24483  0.15083  0.04980  1.0000
  C   C51       1.0  0.81263  0.88614  0.08412  1.0000
  C   C52       1.0  0.19825  0.11514  0.92361  1.0000
  C   C53       1.0  0.90386  0.09471  0.12845  1.0000
  C   C54       1.0  0.09897  0.90495  0.87218  1.0000
  N   N1        1.0  0.99588  0.23535  0.33943  1.0000
  N   N2        1.0  0.98931  0.75926  0.65846  1.0000
  N   N3        1.0  0.88333  0.00741  0.16939  1.0000
  N   N4        1.0  0.12691  0.99544  0.83695  1.0000
  N   N5        1.0  0.76833  0.55714  0.06129  1.0000
  N   N6        1.0  0.22540  0.44366  0.93799  1.0000
  O   O1        1.0  0.88905  0.15992  0.50890  1.0000
  O   O2        1.0  0.11828  0.84862  0.48943  1.0000
  O   O3        1.0  0.70068  0.06367  0.33279  1.0000
  O   O4        1.0  0.29859  0.94040  0.66952  1.0000
  O   O5        1.0  0.19219  0.98522  0.31914  1.0000
  O   O6        1.0  0.81915  0.97320  0.68218  1.0000
  O   O7        1.0  0.14845  0.13597  0.46622  1.0000
  O   O8        1.0  0.85217  0.86245  0.50821  1.0000
  O   O9        1.0  0.58828  0.12487  0.17158  1.0000
  O   O10       1.0  0.40877  0.87488  0.82738  1.0000
  O   O11       1.0  0.70018  0.33087  0.31535  1.0000
  O   O12       1.0  0.29944  0.66873  0.68339  1.0000
  O   O13       1.0  0.70298  0.59814  0.99939  1.0000
  O   O14       1.0  0.28769  0.40199  0.00069  1.0000
  O   O15       1.0  0.88906  0.62008  0.14797  1.0000
  O   O16       1.0  0.10484  0.38163  0.85067  1.0000
  O   O17       1.0  0.64830  0.36423  0.81966  1.0000
  O   O18       1.0  0.34375  0.63732  0.17898  1.0000
  O   O19       1.0  0.89720  0.91336  0.33147  1.0000
  O   O20       1.0  0.11231  0.11363  0.66312  1.0000
