data_image0
_chemical_formula_structural       Ag4H8C20N20
_chemical_formula_sum              "Ag4 H8 C20 N20"
_cell_length_a       5.10828
_cell_length_b       7.69219
_cell_length_c       14.9701
_cell_angle_alpha    90.0008
_cell_angle_beta     89.9996
_cell_angle_gamma    89.9999

_space_group_name_H-M_alt    "P 1"
_space_group_IT_number       1

loop_
  _space_group_symop_operation_xyz
  'x, y, z'

loop_
  _atom_site_type_symbol
  _atom_site_label
  _atom_site_symmetry_multiplicity
  _atom_site_fract_x
  _atom_site_fract_y
  _atom_site_fract_z
  _atom_site_occupancy
  Ag  Ag1       1.0  0.25793  0.95854  0.19324  1.0000
  Ag  Ag2       1.0  0.75792  0.04146  0.80676  1.0000
  Ag  Ag3       1.0  0.75792  0.54146  0.69324  1.0000
  Ag  Ag4       1.0  0.25793  0.45854  0.30676  1.0000
  H   H1        1.0  0.48175  0.89001  0.62549  1.0000
  H   H2        1.0  0.98175  0.10999  0.37451  1.0000
  H   H3        1.0  0.98175  0.60998  0.12549  1.0000
  H   H4        1.0  0.48175  0.39002  0.87451  1.0000
  H   H5        1.0  0.22818  0.74883  0.60242  1.0000
  H   H6        1.0  0.72818  0.25118  0.39758  1.0000
  H   H7        1.0  0.72818  0.75117  0.10242  1.0000
  H   H8        1.0  0.22818  0.24883  0.89758  1.0000
  C   C1        1.0  0.89080  0.61384  0.90374  1.0000
  C   C2        1.0  0.39082  0.38615  0.09626  1.0000
  C   C3        1.0  0.39080  0.88616  0.40374  1.0000
  C   C4        1.0  0.89080  0.11384  0.59626  1.0000
  C   C5        1.0  0.35807  0.85061  0.96678  1.0000
  C   C6        1.0  0.85808  0.14938  0.03322  1.0000
  C   C7        1.0  0.85806  0.64939  0.46678  1.0000
  C   C8        1.0  0.35807  0.35062  0.53322  1.0000
  C   C9        1.0  0.07955  0.70121  0.85288  1.0000
  C   C10       1.0  0.57956  0.29879  0.14712  1.0000
  C   C11       1.0  0.57955  0.79879  0.35288  1.0000
  C   C12       1.0  0.07955  0.20121  0.64712  1.0000
  C   C13       1.0  0.28947  0.80641  0.87915  1.0000
  C   C14       1.0  0.78948  0.19359  0.12085  1.0000
  C   C15       1.0  0.78946  0.69359  0.37915  1.0000
  C   C16       1.0  0.28946  0.30641  0.62085  1.0000
  C   C17       1.0  0.28920  0.78435  0.73427  1.0000
  C   C18       1.0  0.78921  0.21565  0.26573  1.0000
  C   C19       1.0  0.78921  0.71565  0.23427  1.0000
  C   C20       1.0  0.28921  0.28435  0.76573  1.0000
  N   N1        1.0  0.36384  0.79154  0.64737  1.0000
  N   N2        1.0  0.86385  0.20847  0.35263  1.0000
  N   N3        1.0  0.86385  0.70846  0.14737  1.0000
  N   N4        1.0  0.36384  0.29154  0.85263  1.0000
  N   N5        1.0  0.07909  0.68854  0.76107  1.0000
  N   N6        1.0  0.57910  0.31146  0.23893  1.0000
  N   N7        1.0  0.57909  0.81146  0.26107  1.0000
  N   N8        1.0  0.07909  0.18854  0.73893  1.0000
  N   N9        1.0  0.72653  0.53827  0.94180  1.0000
  N   N10       1.0  0.22653  0.46172  0.05820  1.0000
  N   N11       1.0  0.22653  0.96173  0.44180  1.0000
  N   N12       1.0  0.72653  0.03828  0.55820  1.0000
  N   N13       1.0  0.42277  0.85889  0.80338  1.0000
  N   N14       1.0  0.92279  0.14111  0.19662  1.0000
  N   N15       1.0  0.92278  0.64112  0.30338  1.0000
  N   N16       1.0  0.42277  0.35889  0.69662  1.0000
  N   N17       1.0  0.40815  0.88268  0.04131  1.0000
  N   N18       1.0  0.90816  0.11732  0.95869  1.0000
  N   N19       1.0  0.90814  0.61732  0.54131  1.0000
  N   N20       1.0  0.40815  0.38268  0.45869  1.0000
