data_image0
_chemical_formula_structural       Ca4H20C28O22
_chemical_formula_sum              "Ca4 H20 C28 O22"
_cell_length_a       6.34397
_cell_length_b       9.13265
_cell_length_c       14.3202
_cell_angle_alpha    102.078
_cell_angle_beta     103.798
_cell_angle_gamma    93.3783

_space_group_name_H-M_alt    "P 1"
_space_group_IT_number       1

loop_
  _space_group_symop_operation_xyz
  'x, y, z'

loop_
  _atom_site_type_symbol
  _atom_site_label
  _atom_site_symmetry_multiplicity
  _atom_site_fract_x
  _atom_site_fract_y
  _atom_site_fract_z
  _atom_site_occupancy
  Ca  Ca1       1.0  0.25779  0.08168  0.85540  1.0000
  Ca  Ca2       1.0  0.74221  0.91831  0.14460  1.0000
  Ca  Ca3       1.0  0.24291  0.17620  0.15264  1.0000
  Ca  Ca4       1.0  0.75709  0.82380  0.84736  1.0000
  H   H1        1.0  0.34261  0.73790  0.16210  1.0000
  H   H2        1.0  0.65739  0.26210  0.83790  1.0000
  H   H3        1.0  0.45240  0.53074  0.23317  1.0000
  H   H4        1.0  0.54760  0.46926  0.76683  1.0000
  H   H5        1.0  0.23047  0.35180  0.77735  1.0000
  H   H6        1.0  0.76953  0.64820  0.22265  1.0000
  H   H7        1.0  0.15871  0.62178  0.84273  1.0000
  H   H8        1.0  0.84129  0.37822  0.15727  1.0000
  H   H9        1.0  0.27727  0.92051  0.54383  1.0000
  H   H10       1.0  0.72273  0.07949  0.45617  1.0000
  H   H11       1.0  0.11379  0.79246  0.28253  1.0000
  H   H12       1.0  0.88621  0.20755  0.71747  1.0000
  H   H13       1.0  0.21294  0.41427  0.35289  1.0000
  H   H14       1.0  0.78706  0.58574  0.64711  1.0000
  H   H15       1.0  0.28057  0.38473  0.52025  1.0000
  H   H16       1.0  0.71943  0.61527  0.47975  1.0000
  H   H17       1.0  0.27239  0.76655  0.70325  1.0000
  H   H18       1.0  0.72761  0.23346  0.29675  1.0000
  H   H19       1.0  0.38214  0.92814  0.70323  1.0000
  H   H20       1.0  0.61787  0.07186  0.29677  1.0000
  C   C1        1.0  0.25196  0.85632  0.00181  1.0000
  C   C2        1.0  0.74804  0.14368  0.99819  1.0000
  C   C3        1.0  0.25276  0.69664  0.00251  1.0000
  C   C4        1.0  0.74724  0.30336  0.99749  1.0000
  C   C5        1.0  0.30639  0.65279  0.09287  1.0000
  C   C6        1.0  0.69361  0.34721  0.90713  1.0000
  C   C7        1.0  0.30295  0.50106  0.09294  1.0000
  C   C8        1.0  0.69705  0.49893  0.90706  1.0000
  C   C9        1.0  0.24908  0.38810  0.00393  1.0000
  C   C10       1.0  0.75092  0.61189  0.99607  1.0000
  C   C11       1.0  0.19997  0.43705  0.91426  1.0000
  C   C12       1.0  0.80003  0.56295  0.08574  1.0000
  C   C13       1.0  0.19796  0.58779  0.91287  1.0000
  C   C14       1.0  0.80204  0.41221  0.08713  1.0000
  C   C15       1.0  0.33418  0.20873  0.65269  1.0000
  C   C16       1.0  0.66581  0.79127  0.34731  1.0000
  C   C17       1.0  0.28604  0.15847  0.54432  1.0000
  C   C18       1.0  0.71396  0.84153  0.45568  1.0000
  C   C19       1.0  0.25602  0.00409  0.49931  1.0000
  C   C20       1.0  0.74399  0.99591  0.50069  1.0000
  C   C21       1.0  0.19602  0.95491  0.39729  1.0000
  C   C22       1.0  0.80398  0.04509  0.60271  1.0000
  C   C23       1.0  0.16191  0.05899  0.33587  1.0000
  C   C24       1.0  0.83809  0.94102  0.66413  1.0000
  C   C25       1.0  0.19817  0.21408  0.38321  1.0000
  C   C26       1.0  0.80183  0.78592  0.61680  1.0000
  C   C27       1.0  0.25810  0.26476  0.48510  1.0000
  C   C28       1.0  0.74190  0.73524  0.51490  1.0000
  O   O1        1.0  0.13542  0.89394  0.92573  1.0000
  O   O2        1.0  0.86459  0.10606  0.07427  1.0000
  O   O3        1.0  0.36894  0.95557  0.07671  1.0000
  O   O4        1.0  0.63105  0.04443  0.92329  1.0000
  O   O5        1.0  0.35162  0.44980  0.17913  1.0000
  O   O6        1.0  0.64838  0.55020  0.82087  1.0000
  O   O7        1.0  0.24827  0.24343  0.00423  1.0000
  O   O8        1.0  0.75173  0.75657  0.99577  1.0000
  O   O9        1.0  0.15666  0.32440  0.82910  1.0000
  O   O10       1.0  0.84334  0.67560  0.17090  1.0000
  O   O11       1.0  0.34579  0.35130  0.69200  1.0000
  O   O12       1.0  0.65421  0.64871  0.30800  1.0000
  O   O13       1.0  0.35335  0.11068  0.70578  1.0000
  O   O14       1.0  0.64665  0.88932  0.29422  1.0000
  O   O15       1.0  0.16811  0.80432  0.35444  1.0000
  O   O16       1.0  0.83189  0.19568  0.64556  1.0000
  O   O17       1.0  0.10014  0.01179  0.23815  1.0000
  O   O18       1.0  0.89985  0.98821  0.76185  1.0000
  O   O19       1.0  0.16528  0.30980  0.31733  1.0000
  O   O20       1.0  0.83472  0.69020  0.68267  1.0000
  O   O21       1.0  0.39210  0.84449  0.73947  1.0000
  O   O22       1.0  0.60790  0.15551  0.26053  1.0000
