data_image0
_chemical_formula_structural       Cd4H20C28S4N24Cl4
_chemical_formula_sum              "Cd4 H20 C28 S4 N24 Cl4"
_cell_length_a       7.98911
_cell_length_b       10.6135
_cell_length_c       14.5164
_cell_angle_alpha    84.0529
_cell_angle_beta     74.0498
_cell_angle_gamma    67.9097

_space_group_name_H-M_alt    "P 1"
_space_group_IT_number       1

loop_
  _space_group_symop_operation_xyz
  'x, y, z'

loop_
  _atom_site_type_symbol
  _atom_site_label
  _atom_site_symmetry_multiplicity
  _atom_site_fract_x
  _atom_site_fract_y
  _atom_site_fract_z
  _atom_site_occupancy
  Cd  Cd1       1.0  0.33819  0.12721  0.55431  1.0000
  Cd  Cd2       1.0  0.02012  0.87273  0.44554  1.0000
  Cd  Cd3       1.0  0.64283  0.62719  0.94556  1.0000
  Cd  Cd4       1.0  0.21574  0.37288  0.05442  1.0000
  H   H1        1.0  0.64247  0.49773  0.60777  1.0000
  H   H2        1.0  0.74844  0.50213  0.39235  1.0000
  H   H3        1.0  0.00060  0.99779  0.89242  1.0000
  H   H4        1.0  0.89095  0.00219  0.10761  1.0000
  H   H5        1.0  0.05646  0.54378  0.80766  1.0000
  H   H6        1.0  0.40806  0.45605  0.19249  1.0000
  H   H7        1.0  0.61438  0.04406  0.69236  1.0000
  H   H8        1.0  0.35110  0.95586  0.30739  1.0000
  H   H9        1.0  0.65835  0.37343  0.82331  1.0000
  H   H10       1.0  0.85545  0.62666  0.17669  1.0000
  H   H11       1.0  0.23206  0.87369  0.67654  1.0000
  H   H12       1.0  0.78274  0.12660  0.32325  1.0000
  H   H13       1.0  0.89349  0.19662  0.69867  1.0000
  H   H14       1.0  0.78949  0.80327  0.30142  1.0000
  H   H15       1.0  0.34252  0.69690  0.80127  1.0000
  H   H16       1.0  0.84122  0.30345  0.19865  1.0000
  H   H17       1.0  0.74617  0.25720  0.53062  1.0000
  H   H18       1.0  0.53493  0.74279  0.46942  1.0000
  H   H19       1.0  0.02752  0.75707  0.96945  1.0000
  H   H20       1.0  0.75439  0.24293  0.03055  1.0000
  C   C1        1.0  0.01819  0.46810  0.78208  1.0000
  C   C2        1.0  0.26867  0.53179  0.21806  1.0000
  C   C3        1.0  0.55058  0.96835  0.71793  1.0000
  C   C4        1.0  0.23721  0.03166  0.28186  1.0000
  C   C5        1.0  0.79950  0.37205  0.79089  1.0000
  C   C6        1.0  0.96286  0.62794  0.20914  1.0000
  C   C7        1.0  0.34079  0.87232  0.70900  1.0000
  C   C8        1.0  0.92256  0.12790  0.29080  1.0000
  C   C9        1.0  0.92727  0.27657  0.72199  1.0000
  C   C10       1.0  0.92647  0.72333  0.27807  1.0000
  C   C11       1.0  0.39964  0.77685  0.77795  1.0000
  C   C12       1.0  0.95493  0.22344  0.22193  1.0000
  C   C13       1.0  0.14564  0.37383  0.71126  1.0000
  C   C14       1.0  0.23122  0.62601  0.28891  1.0000
  C   C15       1.0  0.60723  0.87408  0.78882  1.0000
  C   C16       1.0  0.27050  0.12605  0.21109  1.0000
  C   C17       1.0  0.33271  0.37360  0.66664  1.0000
  C   C18       1.0  0.37342  0.62627  0.33354  1.0000
  C   C19       1.0  0.74971  0.87372  0.83347  1.0000
  C   C20       1.0  0.45726  0.12637  0.16651  1.0000
  C   C21       1.0  0.61084  0.31121  0.57822  1.0000
  C   C22       1.0  0.50103  0.68878  0.42185  1.0000
  C   C23       1.0  0.93976  0.81109  0.92181  1.0000
  C   C24       1.0  0.67302  0.18891  0.07816  1.0000
  C   C25       1.0  0.10642  0.34356  0.40579  1.0000
  C   C26       1.0  0.85613  0.65614  0.59418  1.0000
  C   C27       1.0  0.26244  0.84351  0.09408  1.0000
  C   C28       1.0  0.19995  0.15644  0.90605  1.0000
  S   S1        1.0  0.32967  0.28399  0.40128  1.0000
  S   S2        1.0  0.01514  0.71597  0.59864  1.0000
  S   S3        1.0  0.48118  0.78396  0.09856  1.0000
  S   S4        1.0  0.36362  0.21615  0.90140  1.0000
  N   N1        1.0  0.09802  0.27902  0.68152  1.0000
  N   N2        1.0  0.05918  0.72083  0.31860  1.0000
  N   N3        1.0  0.52987  0.77926  0.81850  1.0000
  N   N4        1.0  0.12809  0.22097  0.18143  1.0000
  N   N5        1.0  0.84632  0.46728  0.82027  1.0000
  N   N6        1.0  0.13418  0.53270  0.17979  1.0000
  N   N7        1.0  0.41698  0.96753  0.67965  1.0000
  N   N8        1.0  0.06452  0.03252  0.32010  1.0000
  N   N9        1.0  0.46563  0.27047  0.60781  1.0000
  N   N10       1.0  0.34460  0.72948  0.39231  1.0000
  N   N11       1.0  0.82400  0.77044  0.89222  1.0000
  N   N12       1.0  0.48710  0.22961  0.10774  1.0000
  N   N13       1.0  0.56565  0.43217  0.61856  1.0000
  N   N14       1.0  0.61695  0.56779  0.38154  1.0000
  N   N15       1.0  0.93479  0.93213  0.88153  1.0000
  N   N16       1.0  0.74869  0.06786  0.11845  1.0000
  N   N17       1.0  0.38969  0.47406  0.67519  1.0000
  N   N18       1.0  0.53933  0.52583  0.32499  1.0000
  N   N19       1.0  0.81527  0.97416  0.82494  1.0000
  N   N20       1.0  0.61463  0.02587  0.17502  1.0000
  N   N21       1.0  0.94676  0.38774  0.40604  1.0000
  N   N22       1.0  0.74093  0.61185  0.59400  1.0000
  N   N23       1.0  0.10297  0.88766  0.09390  1.0000
  N   N24       1.0  0.08444  0.11225  0.90631  1.0000
  Cl  Cl1       1.0  0.07804  0.03794  0.54800  1.0000
  Cl  Cl2       1.0  0.66429  0.96221  0.45195  1.0000
  Cl  Cl3       1.0  0.37611  0.53808  0.95202  1.0000
  Cl  Cl4       1.0  0.86627  0.46215  0.04799  1.0000
