data_image0
_chemical_formula_structural       Co2P4H44C48N4O12
_chemical_formula_sum              "Co2 P4 H44 C48 N4 O12"
_cell_length_a       10.8307
_cell_length_b       10.8424
_cell_length_c       11.353
_cell_angle_alpha    75.3684
_cell_angle_beta     83.8882
_cell_angle_gamma    62.4426

_space_group_name_H-M_alt    "P 1"
_space_group_IT_number       1

loop_
  _space_group_symop_operation_xyz
  'x, y, z'

loop_
  _atom_site_type_symbol
  _atom_site_label
  _atom_site_symmetry_multiplicity
  _atom_site_fract_x
  _atom_site_fract_y
  _atom_site_fract_z
  _atom_site_occupancy
  Co  Co1       1.0  0.19222  0.80974  0.01926  1.0000
  Co  Co2       1.0  0.80777  0.19026  0.98074  1.0000
  P   P1        1.0  0.01964  0.61834  0.11952  1.0000
  P   P2        1.0  0.98036  0.38167  0.88048  1.0000
  P   P3        1.0  0.95931  0.92833  0.82078  1.0000
  P   P4        1.0  0.04069  0.07168  0.17922  1.0000
  H   H1        1.0  0.90275  0.64122  0.31120  1.0000
  H   H2        1.0  0.09725  0.35877  0.68881  1.0000
  H   H3        1.0  0.93163  0.48150  0.27146  1.0000
  H   H4        1.0  0.06837  0.51849  0.72855  1.0000
  H   H5        1.0  0.82810  0.94324  0.50428  1.0000
  H   H6        1.0  0.17190  0.05676  0.49572  1.0000
  H   H7        1.0  0.74918  0.39266  0.22774  1.0000
  H   H8        1.0  0.25081  0.60733  0.77226  1.0000
  H   H9        1.0  0.73424  0.26168  0.70613  1.0000
  H   H10       1.0  0.26577  0.73832  0.29386  1.0000
  H   H11       1.0  0.49294  0.38537  0.63186  1.0000
  H   H12       1.0  0.50707  0.61464  0.36813  1.0000
  H   H13       1.0  0.99177  0.08929  0.65382  1.0000
  H   H14       1.0  0.00823  0.91071  0.34618  1.0000
  H   H15       1.0  0.01499  0.93371  0.61064  1.0000
  H   H16       1.0  0.98501  0.06629  0.38936  1.0000
  H   H17       1.0  0.59074  0.07065  0.42221  1.0000
  H   H18       1.0  0.40927  0.92935  0.57779  1.0000
  H   H19       1.0  0.70370  0.63214  0.09449  1.0000
  H   H20       1.0  0.29629  0.36785  0.90551  1.0000
  H   H21       1.0  0.55368  0.32488  0.26591  1.0000
  H   H22       1.0  0.44630  0.67512  0.73409  1.0000
  H   H23       1.0  0.32353  0.51618  0.51653  1.0000
  H   H24       1.0  0.67648  0.48382  0.48346  1.0000
  H   H25       1.0  0.32023  0.49995  0.17141  1.0000
  H   H26       1.0  0.67976  0.50005  0.82858  1.0000
  H   H27       1.0  0.33954  0.17040  0.71818  1.0000
  H   H28       1.0  0.66046  0.82960  0.28182  1.0000
  H   H29       1.0  0.09382  0.64535  0.41692  1.0000
  H   H30       1.0  0.90618  0.35465  0.58309  1.0000
  H   H31       1.0  0.16081  0.26751  0.30674  1.0000
  H   H32       1.0  0.83920  0.73249  0.69326  1.0000
  H   H33       1.0  0.38675  0.13600  0.41015  1.0000
  H   H34       1.0  0.61325  0.86400  0.58985  1.0000
  H   H35       1.0  0.59223  0.03080  0.78233  1.0000
  H   H36       1.0  0.40777  0.96920  0.21768  1.0000
  H   H37       1.0  0.66663  0.80545  0.94300  1.0000
  H   H38       1.0  0.33336  0.19454  0.05701  1.0000
  H   H39       1.0  0.17260  0.07388  0.81881  1.0000
  H   H40       1.0  0.82740  0.92612  0.18118  1.0000
  H   H41       1.0  0.89493  0.76342  0.90907  1.0000
  H   H42       1.0  0.10507  0.23659  0.09094  1.0000
  H   H43       1.0  0.12374  0.43258  0.03185  1.0000
  H   H44       1.0  0.87625  0.56742  0.96816  1.0000
  C   C1        1.0  0.52000  0.23846  0.52106  1.0000
  C   C2        1.0  0.48001  0.76154  0.47893  1.0000
  C   C3        1.0  0.98009  0.54970  0.27592  1.0000
  C   C4        1.0  0.01991  0.45029  0.72409  1.0000
  C   C5        1.0  0.37643  0.31507  0.47063  1.0000
  C   C6        1.0  0.62358  0.68494  0.52936  1.0000
  C   C7        1.0  0.75522  0.04140  0.53158  1.0000
  C   C8        1.0  0.24479  0.95860  0.46842  1.0000
  C   C9        1.0  0.64641  0.46643  0.18759  1.0000
  C   C10       1.0  0.35358  0.53356  0.81241  1.0000
  C   C11       1.0  0.79993  0.09337  0.61070  1.0000
  C   C12       1.0  0.20007  0.90663  0.38930  1.0000
  C   C13       1.0  0.70229  0.21913  0.64447  1.0000
  C   C14       1.0  0.29771  0.78088  0.35552  1.0000
  C   C15       1.0  0.56543  0.28935  0.60149  1.0000
  C   C16       1.0  0.43457  0.71067  0.39850  1.0000
  C   C17       1.0  0.94654  0.01554  0.66003  1.0000
  C   C18       1.0  0.05346  0.98446  0.33997  1.0000
  C   C19       1.0  0.11056  0.46695  0.35293  1.0000
  C   C20       1.0  0.88944  0.53305  0.64707  1.0000
  C   C21       1.0  0.49145  0.68671  0.05540  1.0000
  C   C22       1.0  0.50855  0.31329  0.94459  1.0000
  C   C23       1.0  0.61903  0.11291  0.48677  1.0000
  C   C24       1.0  0.38098  0.88710  0.51323  1.0000
  C   C25       1.0  0.62193  0.59842  0.11160  1.0000
  C   C26       1.0  0.37806  0.40158  0.88840  1.0000
  C   C27       1.0  0.53829  0.42791  0.20869  1.0000
  C   C28       1.0  0.46170  0.57208  0.79131  1.0000
  C   C29       1.0  0.28825  0.45873  0.47347  1.0000
  C   C30       1.0  0.71175  0.54127  0.52653  1.0000
  C   C31       1.0  0.45936  0.82034  0.96320  1.0000
  C   C32       1.0  0.54063  0.17965  0.03680  1.0000
  C   C33       1.0  0.40831  0.52427  0.15564  1.0000
  C   C34       1.0  0.59168  0.47573  0.84435  1.0000
  C   C35       1.0  0.37629  0.07041  0.78729  1.0000
  C   C36       1.0  0.62371  0.92959  0.21272  1.0000
  C   C37       1.0  0.15808  0.53292  0.41582  1.0000
  C   C38       1.0  0.84193  0.46708  0.58418  1.0000
  C   C39       1.0  0.19513  0.32199  0.35456  1.0000
  C   C40       1.0  0.80489  0.67801  0.64544  1.0000
  C   C41       1.0  0.32464  0.24804  0.41233  1.0000
  C   C42       1.0  0.67537  0.75196  0.58767  1.0000
  C   C43       1.0  0.51644  0.99315  0.82311  1.0000
  C   C44       1.0  0.48356  0.00685  0.17689  1.0000
  C   C45       1.0  0.55856  0.86677  0.91269  1.0000
  C   C46       1.0  0.44143  0.13323  0.08732  1.0000
  C   C47       1.0  0.28347  0.01749  0.84164  1.0000
  C   C48       1.0  0.71653  0.98251  0.15836  1.0000
  N   N1        1.0  0.38459  0.65122  0.08032  1.0000
  N   N2        1.0  0.61540  0.34879  0.91967  1.0000
  N   N3        1.0  0.32449  0.89472  0.92657  1.0000
  N   N4        1.0  0.67551  0.10528  0.07343  1.0000
  O   O1        1.0  0.06664  0.72960  0.12164  1.0000
  O   O2        1.0  0.93335  0.27041  0.87836  1.0000
  O   O3        1.0  0.89285  0.66804  0.03785  1.0000
  O   O4        1.0  0.10714  0.33196  0.96215  1.0000
  O   O5        1.0  0.14752  0.48686  0.07943  1.0000
  O   O6        1.0  0.85248  0.51315  0.92057  1.0000
  O   O7        1.0  0.11396  0.84555  0.85639  1.0000
  O   O8        1.0  0.88603  0.15444  0.14362  1.0000
  O   O9        1.0  0.86824  0.03742  0.89310  1.0000
  O   O10       1.0  0.13176  0.96259  0.10691  1.0000
  O   O11       1.0  0.89691  0.82053  0.82285  1.0000
  O   O12       1.0  0.10308  0.17948  0.17715  1.0000
