data_image0
_chemical_formula_structural       Ag4H40C48N20O12F16
_chemical_formula_sum              "Ag4 H40 C48 N20 O12 F16"
_cell_length_a       7.70676
_cell_length_b       12.5365
_cell_length_c       16.2378
_cell_angle_alpha    87.2783
_cell_angle_beta     76.7259
_cell_angle_gamma    78.065

_space_group_name_H-M_alt    "P 1"
_space_group_IT_number       1

loop_
  _space_group_symop_operation_xyz
  'x, y, z'

loop_
  _atom_site_type_symbol
  _atom_site_label
  _atom_site_symmetry_multiplicity
  _atom_site_fract_x
  _atom_site_fract_y
  _atom_site_fract_z
  _atom_site_occupancy
  Ag  Ag1       1.0  0.77742  0.46230  0.99661  1.0000
  Ag  Ag2       1.0  0.22555  0.03788  0.99664  1.0000
  Ag  Ag3       1.0  0.22258  0.53770  0.00338  1.0000
  Ag  Ag4       1.0  0.77445  0.96212  0.00336  1.0000
  H   H1        1.0  0.72548  0.64073  0.09701  1.0000
  H   H2        1.0  0.17754  0.85933  0.09732  1.0000
  H   H3        1.0  0.27452  0.35926  0.90299  1.0000
  H   H4        1.0  0.82246  0.14067  0.90268  1.0000
  H   H5        1.0  0.72903  0.77801  0.09998  1.0000
  H   H6        1.0  0.17139  0.72207  0.09996  1.0000
  H   H7        1.0  0.27097  0.22199  0.90002  1.0000
  H   H8        1.0  0.82861  0.27793  0.90004  1.0000
  H   H9        1.0  0.87095  0.88635  0.82591  1.0000
  H   H10       1.0  0.30377  0.61323  0.82573  1.0000
  H   H11       1.0  0.12906  0.11364  0.17409  1.0000
  H   H12       1.0  0.69623  0.38677  0.17427  1.0000
  H   H13       1.0  0.87661  0.54158  0.82112  1.0000
  H   H14       1.0  0.30182  0.95809  0.82143  1.0000
  H   H15       1.0  0.12340  0.45842  0.17888  1.0000
  H   H16       1.0  0.69817  0.04191  0.17857  1.0000
  H   H17       1.0  0.91918  0.82695  0.37031  1.0000
  H   H18       1.0  0.71057  0.67343  0.37133  1.0000
  H   H19       1.0  0.08082  0.17305  0.62970  1.0000
  H   H20       1.0  0.28943  0.32657  0.62867  1.0000
  H   H21       1.0  0.16040  0.79664  0.33471  1.0000
  H   H22       1.0  0.50555  0.70328  0.33429  1.0000
  H   H23       1.0  0.83960  0.20336  0.66529  1.0000
  H   H24       1.0  0.49445  0.29671  0.66571  1.0000
  H   H25       1.0  0.05807  0.87998  0.42552  1.0000
  H   H26       1.0  0.51775  0.62004  0.42530  1.0000
  H   H27       1.0  0.94193  0.12002  0.57448  1.0000
  H   H28       1.0  0.48224  0.37995  0.57470  1.0000
  H   H29       1.0  0.25750  0.58731  0.36673  1.0000
  H   H30       1.0  0.37642  0.91307  0.36617  1.0000
  H   H31       1.0  0.74250  0.41269  0.63327  1.0000
  H   H32       1.0  0.62358  0.08692  0.63382  1.0000
  H   H33       1.0  0.03468  0.61588  0.34829  1.0000
  H   H34       1.0  0.61683  0.88402  0.34901  1.0000
  H   H35       1.0  0.96532  0.38412  0.65171  1.0000
  H   H36       1.0  0.38316  0.11597  0.65099  1.0000
  H   H37       1.0  0.07652  0.54235  0.44049  1.0000
  H   H38       1.0  0.48417  0.95767  0.44086  1.0000
  H   H39       1.0  0.92348  0.45766  0.55952  1.0000
  H   H40       1.0  0.51582  0.04233  0.55913  1.0000
  C   C1        1.0  0.80304  0.70974  0.98123  1.0000
  C   C2        1.0  0.21579  0.79017  0.98123  1.0000
  C   C3        1.0  0.19696  0.29026  0.01877  1.0000
  C   C4        1.0  0.78421  0.20983  0.01877  1.0000
  C   C5        1.0  0.85808  0.80772  0.85576  1.0000
  C   C6        1.0  0.28673  0.69191  0.85569  1.0000
  C   C7        1.0  0.14193  0.19228  0.14424  1.0000
  C   C8        1.0  0.71327  0.30809  0.14431  1.0000
  C   C9        1.0  0.88254  0.71438  0.80701  1.0000
  C   C10       1.0  0.31093  0.78518  0.80708  1.0000
  C   C11       1.0  0.11747  0.28562  0.19299  1.0000
  C   C12       1.0  0.68907  0.21483  0.19292  1.0000
  C   C13       1.0  0.86330  0.61858  0.85292  1.0000
  C   C14       1.0  0.28373  0.88111  0.85310  1.0000
  C   C15       1.0  0.13670  0.38142  0.14708  1.0000
  C   C16       1.0  0.71626  0.11890  0.14690  1.0000
  C   C17       1.0  0.93094  0.71570  0.71443  1.0000
  C   C18       1.0  0.35512  0.78391  0.71448  1.0000
  C   C19       1.0  0.06908  0.28430  0.28557  1.0000
  C   C20       1.0  0.64488  0.21609  0.28552  1.0000
  C   C21       1.0  0.84930  0.79829  0.66603  1.0000
  C   C22       1.0  0.48480  0.70139  0.66660  1.0000
  C   C23       1.0  0.15071  0.20171  0.33397  1.0000
  C   C24       1.0  0.51520  0.29862  0.33340  1.0000
  C   C25       1.0  0.89031  0.79737  0.57831  1.0000
  C   C26       1.0  0.53144  0.70245  0.57890  1.0000
  C   C27       1.0  0.10970  0.20263  0.42169  1.0000
  C   C28       1.0  0.46856  0.29755  0.42110  1.0000
  C   C29       1.0  0.02368  0.71505  0.53003  1.0000
  C   C30       1.0  0.44675  0.78491  0.53006  1.0000
  C   C31       1.0  0.97633  0.28496  0.46997  1.0000
  C   C32       1.0  0.55325  0.21509  0.46994  1.0000
  C   C33       1.0  0.11218  0.63510  0.57959  1.0000
  C   C34       1.0  0.30902  0.86477  0.57904  1.0000
  C   C35       1.0  0.88784  0.36490  0.42041  1.0000
  C   C36       1.0  0.69098  0.13523  0.42096  1.0000
  C   C37       1.0  0.06408  0.63415  0.66710  1.0000
  C   C38       1.0  0.26961  0.86557  0.66659  1.0000
  C   C39       1.0  0.93593  0.36584  0.33290  1.0000
  C   C40       1.0  0.73039  0.13443  0.33341  1.0000
  C   C41       1.0  0.04843  0.80923  0.39128  1.0000
  C   C42       1.0  0.56088  0.69089  0.39139  1.0000
  C   C43       1.0  0.95157  0.19077  0.60872  1.0000
  C   C44       1.0  0.43912  0.30910  0.60861  1.0000
  C   C45       1.0  0.11246  0.60847  0.39793  1.0000
  C   C46       1.0  0.49010  0.89162  0.39809  1.0000
  C   C47       1.0  0.88754  0.39153  0.60207  1.0000
  C   C48       1.0  0.50989  0.10837  0.60191  1.0000
  N   N1        1.0  0.82594  0.61534  0.93769  1.0000
  N   N2        1.0  0.23613  0.88452  0.93782  1.0000
  N   N3        1.0  0.17406  0.38466  0.06231  1.0000
  N   N4        1.0  0.76386  0.11549  0.06219  1.0000
  N   N5        1.0  0.76768  0.70686  0.06578  1.0000
  N   N6        1.0  0.16661  0.79320  0.06574  1.0000
  N   N7        1.0  0.23232  0.29314  0.93422  1.0000
  N   N8        1.0  0.83338  0.20680  0.93426  1.0000
  N   N9        1.0  0.82033  0.80621  0.94054  1.0000
  N   N10       1.0  0.23942  0.69359  0.94043  1.0000
  N   N11       1.0  0.17967  0.19379  0.05946  1.0000
  N   N12       1.0  0.76057  0.30641  0.05957  1.0000
  N   N13       1.0  0.06527  0.71160  0.44367  1.0000
  N   N14       1.0  0.49149  0.78849  0.44373  1.0000
  N   N15       1.0  0.93474  0.28841  0.55633  1.0000
  N   N16       1.0  0.50850  0.21151  0.55627  1.0000
  N   N17       1.0  0.58779  0.40668  0.84256  1.0000
  N   N18       1.0  0.56801  0.09336  0.84276  1.0000
  N   N19       1.0  0.41220  0.59332  0.15745  1.0000
  N   N20       1.0  0.43199  0.90664  0.15724  1.0000
  O   O1        1.0  0.53456  0.43019  0.92191  1.0000
  O   O2        1.0  0.54266  0.06996  0.92215  1.0000
  O   O3        1.0  0.46544  0.56981  0.07809  1.0000
  O   O4        1.0  0.45733  0.93004  0.07785  1.0000
  O   O5        1.0  0.75712  0.37969  0.81095  1.0000
  O   O6        1.0  0.43025  0.12057  0.81052  1.0000
  O   O7        1.0  0.24288  0.62031  0.18905  1.0000
  O   O8        1.0  0.56975  0.87944  0.18948  1.0000
  O   O9        1.0  0.47104  0.40998  0.79918  1.0000
  O   O10       1.0  0.72740  0.08975  0.79995  1.0000
  O   O11       1.0  0.52895  0.59002  0.20082  1.0000
  O   O12       1.0  0.27260  0.91025  0.20005  1.0000
  F   F1        1.0  0.71342  0.87896  0.70588  1.0000
  F   F2        1.0  0.58050  0.62061  0.70704  1.0000
  F   F3        1.0  0.28659  0.12104  0.29412  1.0000
  F   F4        1.0  0.41950  0.37939  0.29296  1.0000
  F   F5        1.0  0.78777  0.87466  0.53850  1.0000
  F   F6        1.0  0.67316  0.62506  0.53975  1.0000
  F   F7        1.0  0.21225  0.12535  0.46150  1.0000
  F   F8        1.0  0.32683  0.37494  0.46025  1.0000
  F   F9        1.0  0.25803  0.55979  0.54070  1.0000
  F   F10       1.0  0.20231  0.94019  0.53951  1.0000
  F   F11       1.0  0.74199  0.44022  0.45929  1.0000
  F   F12       1.0  0.79768  0.05981  0.46049  1.0000
  F   F13       1.0  0.16136  0.55431  0.70797  1.0000
  F   F14       1.0  0.13177  0.94535  0.70685  1.0000
  F   F15       1.0  0.83864  0.44569  0.29203  1.0000
  F   F16       1.0  0.86824  0.05465  0.29315  1.0000
