data_image0
_chemical_formula_structural       Ag4H40C48N16Cl4O16F16
_chemical_formula_sum              "Ag4 H40 C48 N16 Cl4 O16 F16"
_cell_length_a       6.43596
_cell_length_b       14.788
_cell_length_c       16.1283
_cell_angle_alpha    90
_cell_angle_beta     90
_cell_angle_gamma    101.449

_space_group_name_H-M_alt    "P 1"
_space_group_IT_number       1

loop_
  _space_group_symop_operation_xyz
  'x, y, z'

loop_
  _atom_site_type_symbol
  _atom_site_label
  _atom_site_symmetry_multiplicity
  _atom_site_fract_x
  _atom_site_fract_y
  _atom_site_fract_z
  _atom_site_occupancy
  Ag  Ag1       1.0  0.48711  0.41731  0.35790  1.0000
  Ag  Ag2       1.0  0.51290  0.08269  0.85790  1.0000
  Ag  Ag3       1.0  0.51290  0.58269  0.64210  1.0000
  Ag  Ag4       1.0  0.48711  0.91732  0.14210  1.0000
  H   H1        1.0  0.13392  0.42907  0.46069  1.0000
  H   H2        1.0  0.86608  0.07094  0.96069  1.0000
  H   H3        1.0  0.86609  0.57093  0.53931  1.0000
  H   H4        1.0  0.13392  0.92906  0.03931  1.0000
  H   H5        1.0  0.85828  0.40205  0.46496  1.0000
  H   H6        1.0  0.14172  0.09795  0.96497  1.0000
  H   H7        1.0  0.14172  0.59794  0.53503  1.0000
  H   H8        1.0  0.85828  0.90206  0.03504  1.0000
  H   H9        1.0  0.31103  0.42583  0.18823  1.0000
  H   H10       1.0  0.68897  0.07418  0.68824  1.0000
  H   H11       1.0  0.68898  0.57417  0.81177  1.0000
  H   H12       1.0  0.31103  0.92582  0.31177  1.0000
  H   H13       1.0  0.63119  0.35747  0.19920  1.0000
  H   H14       1.0  0.36880  0.14252  0.69921  1.0000
  H   H15       1.0  0.36881  0.64253  0.80079  1.0000
  H   H16       1.0  0.63119  0.85748  0.30080  1.0000
  H   H17       1.0  0.23973  0.40700  0.80302  1.0000
  H   H18       1.0  0.76026  0.09300  0.30302  1.0000
  H   H19       1.0  0.76026  0.59300  0.19697  1.0000
  H   H20       1.0  0.23974  0.90701  0.69698  1.0000
  H   H21       1.0  0.07186  0.40533  0.71509  1.0000
  H   H22       1.0  0.92813  0.09467  0.21509  1.0000
  H   H23       1.0  0.92813  0.59467  0.28490  1.0000
  H   H24       1.0  0.07187  0.90533  0.78491  1.0000
  H   H25       1.0  0.14386  0.30184  0.74889  1.0000
  H   H26       1.0  0.85614  0.19816  0.24890  1.0000
  H   H27       1.0  0.85613  0.69816  0.25110  1.0000
  H   H28       1.0  0.14387  0.80184  0.75111  1.0000
  H   H29       1.0  0.58920  0.29531  0.82475  1.0000
  H   H30       1.0  0.41079  0.20469  0.32476  1.0000
  H   H31       1.0  0.41080  0.70469  0.17525  1.0000
  H   H32       1.0  0.58921  0.79531  0.67525  1.0000
  H   H33       1.0  0.72620  0.27750  0.73198  1.0000
  H   H34       1.0  0.27380  0.22249  0.23199  1.0000
  H   H35       1.0  0.27379  0.72249  0.26802  1.0000
  H   H36       1.0  0.72621  0.77750  0.76802  1.0000
  H   H37       1.0  0.66397  0.38678  0.75159  1.0000
  H   H38       1.0  0.33602  0.11322  0.25160  1.0000
  H   H39       1.0  0.33601  0.61322  0.24841  1.0000
  H   H40       1.0  0.66398  0.88678  0.74841  1.0000
  C   C1        1.0  0.98577  0.40690  0.34775  1.0000
  C   C2        1.0  0.01423  0.09310  0.84775  1.0000
  C   C3        1.0  0.01424  0.59310  0.65226  1.0000
  C   C4        1.0  0.98577  0.90690  0.15225  1.0000
  C   C5        1.0  0.16046  0.41216  0.22117  1.0000
  C   C6        1.0  0.83954  0.08784  0.72117  1.0000
  C   C7        1.0  0.83953  0.58784  0.77882  1.0000
  C   C8        1.0  0.16046  0.91216  0.27883  1.0000
  C   C9        1.0  0.96939  0.39049  0.17737  1.0000
  C   C10       1.0  0.03060  0.10951  0.67738  1.0000
  C   C11       1.0  0.03061  0.60951  0.82262  1.0000
  C   C12       1.0  0.96939  0.89049  0.32263  1.0000
  C   C13       1.0  0.78735  0.37802  0.22704  1.0000
  C   C14       1.0  0.21264  0.12198  0.72704  1.0000
  C   C15       1.0  0.21265  0.62198  0.77296  1.0000
  C   C16       1.0  0.78735  0.87802  0.27296  1.0000
  C   C17       1.0  0.95834  0.38131  0.08698  1.0000
  C   C18       1.0  0.04166  0.11869  0.58698  1.0000
  C   C19       1.0  0.04166  0.61869  0.91302  1.0000
  C   C20       1.0  0.95835  0.88130  0.41302  1.0000
  C   C21       1.0  0.10500  0.34374  0.04051  1.0000
  C   C22       1.0  0.89500  0.15626  0.54052  1.0000
  C   C23       1.0  0.89500  0.65626  0.95948  1.0000
  C   C24       1.0  0.10500  0.84374  0.45949  1.0000
  C   C25       1.0  0.09269  0.33396  0.95504  1.0000
  C   C26       1.0  0.90731  0.16604  0.45505  1.0000
  C   C27       1.0  0.90731  0.66604  0.04495  1.0000
  C   C28       1.0  0.09270  0.83396  0.54495  1.0000
  C   C29       1.0  0.93087  0.36152  0.90789  1.0000
  C   C30       1.0  0.06912  0.13847  0.40790  1.0000
  C   C31       1.0  0.06912  0.63847  0.09210  1.0000
  C   C32       1.0  0.93088  0.86152  0.59211  1.0000
  C   C33       1.0  0.78423  0.39973  0.95484  1.0000
  C   C34       1.0  0.21577  0.10027  0.45484  1.0000
  C   C35       1.0  0.21577  0.60027  0.04516  1.0000
  C   C36       1.0  0.78423  0.89973  0.54516  1.0000
  C   C37       1.0  0.79745  0.40847  0.04017  1.0000
  C   C38       1.0  0.20254  0.09153  0.54018  1.0000
  C   C39       1.0  0.20254  0.59152  0.95982  1.0000
  C   C40       1.0  0.79746  0.90847  0.45983  1.0000
  C   C41       1.0  0.10302  0.36661  0.77044  1.0000
  C   C42       1.0  0.89698  0.13338  0.27045  1.0000
  C   C43       1.0  0.89698  0.63339  0.22955  1.0000
  C   C44       1.0  0.10302  0.86662  0.72956  1.0000
  C   C45       1.0  0.71301  0.32736  0.78135  1.0000
  C   C46       1.0  0.28698  0.17264  0.28135  1.0000
  C   C47       1.0  0.28698  0.67264  0.21865  1.0000
  C   C48       1.0  0.71302  0.82736  0.71865  1.0000
  N   N1        1.0  0.79278  0.38950  0.30940  1.0000
  N   N2        1.0  0.20721  0.11050  0.80941  1.0000
  N   N3        1.0  0.20722  0.61051  0.69059  1.0000
  N   N4        1.0  0.79279  0.88950  0.19060  1.0000
  N   N5        1.0  0.99306  0.41377  0.43003  1.0000
  N   N6        1.0  0.00694  0.08623  0.93004  1.0000
  N   N7        1.0  0.00695  0.58623  0.56995  1.0000
  N   N8        1.0  0.99306  0.91377  0.06997  1.0000
  N   N9        1.0  0.17109  0.41711  0.30417  1.0000
  N   N10       1.0  0.82891  0.08290  0.80418  1.0000
  N   N11       1.0  0.82892  0.58290  0.69582  1.0000
  N   N12       1.0  0.17109  0.91711  0.19583  1.0000
  N   N13       1.0  0.91629  0.35206  0.82337  1.0000
  N   N14       1.0  0.08370  0.14794  0.32338  1.0000
  N   N15       1.0  0.08370  0.64794  0.17662  1.0000
  N   N16       1.0  0.91630  0.85206  0.67662  1.0000
  Cl  Cl1       1.0  0.54816  0.63888  0.43772  1.0000
  Cl  Cl2       1.0  0.45185  0.86113  0.93772  1.0000
  Cl  Cl3       1.0  0.45184  0.36113  0.56228  1.0000
  Cl  Cl4       1.0  0.54816  0.13888  0.06228  1.0000
  O   O1        1.0  0.66954  0.56358  0.43200  1.0000
  O   O2        1.0  0.33049  0.93643  0.93202  1.0000
  O   O3        1.0  0.33046  0.43642  0.56799  1.0000
  O   O4        1.0  0.66953  0.06358  0.06800  1.0000
  O   O5        1.0  0.59889  0.68570  0.51763  1.0000
  O   O6        1.0  0.40112  0.81430  0.01763  1.0000
  O   O7        1.0  0.40111  0.31431  0.48237  1.0000
  O   O8        1.0  0.59889  0.18570  0.98237  1.0000
  O   O9        1.0  0.32152  0.59883  0.43392  1.0000
  O   O10       1.0  0.67849  0.90116  0.93393  1.0000
  O   O11       1.0  0.67848  0.40117  0.56608  1.0000
  O   O12       1.0  0.32151  0.09884  0.06608  1.0000
  O   O13       1.0  0.60799  0.70317  0.37037  1.0000
  O   O14       1.0  0.39201  0.79684  0.87037  1.0000
  O   O15       1.0  0.39201  0.29683  0.62963  1.0000
  O   O16       1.0  0.60799  0.20317  0.12963  1.0000
  F   F1        1.0  0.25900  0.30966  0.08042  1.0000
  F   F2        1.0  0.74099  0.19034  0.58042  1.0000
  F   F3        1.0  0.74099  0.69034  0.91958  1.0000
  F   F4        1.0  0.25901  0.80966  0.41958  1.0000
  F   F5        1.0  0.23454  0.29119  0.91659  1.0000
  F   F6        1.0  0.76547  0.20881  0.41659  1.0000
  F   F7        1.0  0.76546  0.70881  0.08341  1.0000
  F   F8        1.0  0.23454  0.79119  0.58341  1.0000
  F   F9        1.0  0.63096  0.43424  0.91487  1.0000
  F   F10       1.0  0.36903  0.06576  0.41488  1.0000
  F   F11       1.0  0.36903  0.56576  0.08513  1.0000
  F   F12       1.0  0.63096  0.93424  0.58513  1.0000
  F   F13       1.0  0.65417  0.45066  0.07857  1.0000
  F   F14       1.0  0.34584  0.04934  0.57857  1.0000
  F   F15       1.0  0.34583  0.54933  0.92143  1.0000
  F   F16       1.0  0.65417  0.95066  0.42143  1.0000
