data_image0
_chemical_formula_structural       Ag4H40C48N20O12F16
_chemical_formula_sum              "Ag4 H40 C48 N20 O12 F16"
_cell_length_a       6.34869
_cell_length_b       9.16264
_cell_length_c       25.1946
_cell_angle_alpha    90
_cell_angle_beta     90
_cell_angle_gamma    100.567

_space_group_name_H-M_alt    "P 1"
_space_group_IT_number       1

loop_
  _space_group_symop_operation_xyz
  'x, y, z'

loop_
  _atom_site_type_symbol
  _atom_site_label
  _atom_site_symmetry_multiplicity
  _atom_site_fract_x
  _atom_site_fract_y
  _atom_site_fract_z
  _atom_site_occupancy
  Ag  Ag1       1.0  0.86467  0.49879  0.66265  1.0000
  Ag  Ag2       1.0  0.13533  0.00121  0.16265  1.0000
  Ag  Ag3       1.0  0.13533  0.50121  0.33735  1.0000
  Ag  Ag4       1.0  0.86467  0.99879  0.83735  1.0000
  H   H1        1.0  0.43095  0.31621  0.69179  1.0000
  H   H2        1.0  0.56906  0.18379  0.19179  1.0000
  H   H3        1.0  0.56905  0.68378  0.30821  1.0000
  H   H4        1.0  0.43094  0.81621  0.80821  1.0000
  H   H5        1.0  0.16936  0.34876  0.70109  1.0000
  H   H6        1.0  0.83064  0.15124  0.20109  1.0000
  H   H7        1.0  0.83064  0.65124  0.29891  1.0000
  H   H8        1.0  0.16936  0.84876  0.79891  1.0000
  H   H9        1.0  0.71035  0.57846  0.54995  1.0000
  H   H10       1.0  0.28966  0.92154  0.04995  1.0000
  H   H11       1.0  0.28966  0.42154  0.45005  1.0000
  H   H12       1.0  0.71034  0.07846  0.95005  1.0000
  H   H13       1.0  0.08861  0.69027  0.57407  1.0000
  H   H14       1.0  0.91140  0.80972  0.07407  1.0000
  H   H15       1.0  0.91139  0.30972  0.42593  1.0000
  H   H16       1.0  0.08860  0.19027  0.92593  1.0000
  H   H17       1.0  0.77092  0.96496  0.34347  1.0000
  H   H18       1.0  0.22908  0.53504  0.84347  1.0000
  H   H19       1.0  0.22909  0.03504  0.65652  1.0000
  H   H20       1.0  0.77092  0.46496  0.15652  1.0000
  H   H21       1.0  0.75503  0.15554  0.33317  1.0000
  H   H22       1.0  0.24497  0.34446  0.83317  1.0000
  H   H23       1.0  0.24497  0.84446  0.66683  1.0000
  H   H24       1.0  0.75503  0.65554  0.16683  1.0000
  H   H25       1.0  0.60753  0.01424  0.29177  1.0000
  H   H26       1.0  0.39247  0.48576  0.79178  1.0000
  H   H27       1.0  0.39247  0.98576  0.70823  1.0000
  H   H28       1.0  0.60753  0.51424  0.20823  1.0000
  H   H29       1.0  0.21332  0.02998  0.31664  1.0000
  H   H30       1.0  0.78667  0.47002  0.81664  1.0000
  H   H31       1.0  0.78668  0.97002  0.68336  1.0000
  H   H32       1.0  0.21332  0.52998  0.18336  1.0000
  H   H33       1.0  0.36556  0.20356  0.33739  1.0000
  H   H34       1.0  0.63444  0.29645  0.83739  1.0000
  H   H35       1.0  0.63444  0.79644  0.66261  1.0000
  H   H36       1.0  0.36556  0.70356  0.16261  1.0000
  H   H37       1.0  0.18909  0.09451  0.38286  1.0000
  H   H38       1.0  0.81092  0.40549  0.88286  1.0000
  H   H39       1.0  0.81092  0.90549  0.61714  1.0000
  H   H40       1.0  0.18909  0.59451  0.11714  1.0000
  C   C1        1.0  0.34191  0.46430  0.63982  1.0000
  C   C2        1.0  0.65810  0.03570  0.13983  1.0000
  C   C3        1.0  0.65809  0.53570  0.36018  1.0000
  C   C4        1.0  0.34190  0.96430  0.86017  1.0000
  C   C5        1.0  0.55788  0.56948  0.57078  1.0000
  C   C6        1.0  0.44212  0.93052  0.07078  1.0000
  C   C7        1.0  0.44212  0.43052  0.42922  1.0000
  C   C8        1.0  0.55787  0.06948  0.92922  1.0000
  C   C9        1.0  0.39874  0.64382  0.55164  1.0000
  C   C10       1.0  0.60127  0.85618  0.05164  1.0000
  C   C11       1.0  0.60126  0.35618  0.44836  1.0000
  C   C12       1.0  0.39874  0.14382  0.94836  1.0000
  C   C13       1.0  0.21420  0.62757  0.58319  1.0000
  C   C14       1.0  0.78581  0.87242  0.08319  1.0000
  C   C15       1.0  0.78581  0.37242  0.41681  1.0000
  C   C16       1.0  0.21419  0.12757  0.91681  1.0000
  C   C17       1.0  0.42259  0.73578  0.50360  1.0000
  C   C18       1.0  0.57741  0.76422  0.00360  1.0000
  C   C19       1.0  0.57741  0.26422  0.49640  1.0000
  C   C20       1.0  0.42258  0.23579  0.99640  1.0000
  C   C21       1.0  0.61576  0.82715  0.48858  1.0000
  C   C22       1.0  0.38423  0.67285  0.98858  1.0000
  C   C23       1.0  0.38424  0.17285  0.51142  1.0000
  C   C24       1.0  0.61576  0.32715  0.01142  1.0000
  C   C25       1.0  0.63417  0.91871  0.44440  1.0000
  C   C26       1.0  0.36582  0.58130  0.94440  1.0000
  C   C27       1.0  0.36582  0.08129  0.55560  1.0000
  C   C28       1.0  0.63418  0.41871  0.05560  1.0000
  C   C29       1.0  0.45984  0.92692  0.41020  1.0000
  C   C30       1.0  0.54015  0.57308  0.91020  1.0000
  C   C31       1.0  0.54016  0.07307  0.58980  1.0000
  C   C32       1.0  0.45984  0.42692  0.08980  1.0000
  C   C33       1.0  0.26633  0.83251  0.42474  1.0000
  C   C34       1.0  0.73367  0.66749  0.92474  1.0000
  C   C35       1.0  0.73367  0.16748  0.57526  1.0000
  C   C36       1.0  0.26633  0.33251  0.07526  1.0000
  C   C37       1.0  0.25028  0.74269  0.46935  1.0000
  C   C38       1.0  0.74972  0.75731  0.96935  1.0000
  C   C39       1.0  0.74973  0.25731  0.53065  1.0000
  C   C40       1.0  0.25027  0.24269  0.03065  1.0000
  C   C41       1.0  0.66418  0.04114  0.33254  1.0000
  C   C42       1.0  0.33582  0.45886  0.83254  1.0000
  C   C43       1.0  0.33582  0.95886  0.66746  1.0000
  C   C44       1.0  0.66418  0.54114  0.16746  1.0000
  C   C45       1.0  0.30100  0.08946  0.35021  1.0000
  C   C46       1.0  0.69900  0.41054  0.85022  1.0000
  C   C47       1.0  0.69900  0.91054  0.64979  1.0000
  C   C48       1.0  0.30100  0.58946  0.14979  1.0000
  N   N1        1.0  0.18180  0.53829  0.62560  1.0000
  N   N2        1.0  0.81821  0.96171  0.12560  1.0000
  N   N3        1.0  0.81820  0.46171  0.37441  1.0000
  N   N4        1.0  0.18179  0.03829  0.87440  1.0000
  N   N5        1.0  0.30830  0.36654  0.67945  1.0000
  N   N6        1.0  0.69171  0.13346  0.17945  1.0000
  N   N7        1.0  0.69170  0.63345  0.32056  1.0000
  N   N8        1.0  0.30829  0.86654  0.82055  1.0000
  N   N9        1.0  0.53569  0.48652  0.61471  1.0000
  N   N10       1.0  0.46431  0.01348  0.11471  1.0000
  N   N11       1.0  0.46431  0.51348  0.38529  1.0000
  N   N12       1.0  0.53568  0.98652  0.88529  1.0000
  N   N13       1.0  0.47927  0.02254  0.36798  1.0000
  N   N14       1.0  0.52072  0.47746  0.86798  1.0000
  N   N15       1.0  0.52073  0.97746  0.63202  1.0000
  N   N16       1.0  0.47928  0.52254  0.13202  1.0000
  N   N17       1.0  0.78404  0.71137  0.75566  1.0000
  N   N18       1.0  0.21596  0.78863  0.25566  1.0000
  N   N19       1.0  0.21596  0.28863  0.24434  1.0000
  N   N20       1.0  0.78404  0.21137  0.74434  1.0000
  O   O1        1.0  0.66918  0.60800  0.72929  1.0000
  O   O2        1.0  0.33082  0.89200  0.22930  1.0000
  O   O3        1.0  0.33082  0.39200  0.27071  1.0000
  O   O4        1.0  0.66918  0.10800  0.77071  1.0000
  O   O5        1.0  0.69693  0.77007  0.79371  1.0000
  O   O6        1.0  0.30306  0.72993  0.29371  1.0000
  O   O7        1.0  0.30307  0.22994  0.20629  1.0000
  O   O8        1.0  0.69693  0.27007  0.70629  1.0000
  O   O9        1.0  0.97888  0.75455  0.74458  1.0000
  O   O10       1.0  0.02111  0.74545  0.24458  1.0000
  O   O11       1.0  0.02112  0.24546  0.25542  1.0000
  O   O12       1.0  0.97888  0.25455  0.75542  1.0000
  F   F1        1.0  0.79032  0.83694  0.52061  1.0000
  F   F2        1.0  0.20969  0.66307  0.02061  1.0000
  F   F3        1.0  0.20969  0.16306  0.47939  1.0000
  F   F4        1.0  0.79031  0.33694  0.97939  1.0000
  F   F5        1.0  0.82281  0.01378  0.43668  1.0000
  F   F6        1.0  0.17718  0.48622  0.93669  1.0000
  F   F7        1.0  0.17719  0.98622  0.56332  1.0000
  F   F8        1.0  0.82280  0.51379  0.06331  1.0000
  F   F9        1.0  0.09107  0.82144  0.39295  1.0000
  F   F10       1.0  0.90892  0.67858  0.89295  1.0000
  F   F11       1.0  0.90893  0.17856  0.60705  1.0000
  F   F12       1.0  0.09108  0.32144  0.10705  1.0000
  F   F13       1.0  0.05987  0.64902  0.47740  1.0000
  F   F14       1.0  0.94013  0.85098  0.97740  1.0000
  F   F15       1.0  0.94013  0.35099  0.52260  1.0000
  F   F16       1.0  0.05986  0.14902  0.02260  1.0000
