data_image0
_chemical_formula_structural       Ag4H28C44N16O16F16
_chemical_formula_sum              "Ag4 H28 C44 N16 O16 F16"
_cell_length_a       6.43804
_cell_length_b       11.3282
_cell_length_c       18.417
_cell_angle_alpha    95.7561
_cell_angle_beta     90
_cell_angle_gamma    90

_space_group_name_H-M_alt    "P 1"
_space_group_IT_number       1

loop_
  _space_group_symop_operation_xyz
  'x, y, z'

loop_
  _atom_site_type_symbol
  _atom_site_label
  _atom_site_symmetry_multiplicity
  _atom_site_fract_x
  _atom_site_fract_y
  _atom_site_fract_z
  _atom_site_occupancy
  Ag  Ag1       1.0  0.32406  0.42264  0.39045  1.0000
  Ag  Ag2       1.0  0.82407  0.07736  0.60955  1.0000
  Ag  Ag3       1.0  0.67594  0.57736  0.60955  1.0000
  Ag  Ag4       1.0  0.17594  0.92264  0.39045  1.0000
  H   H1        1.0  0.95601  0.57604  0.41138  1.0000
  H   H2        1.0  0.45601  0.92396  0.58862  1.0000
  H   H3        1.0  0.04399  0.42396  0.58862  1.0000
  H   H4        1.0  0.54399  0.07604  0.41138  1.0000
  H   H5        1.0  0.69267  0.55293  0.43196  1.0000
  H   H6        1.0  0.19268  0.94707  0.56804  1.0000
  H   H7        1.0  0.30733  0.44707  0.56804  1.0000
  H   H8        1.0  0.80732  0.05293  0.43196  1.0000
  H   H9        1.0  0.50852  0.21404  0.29622  1.0000
  H   H10       1.0  0.00854  0.28596  0.70378  1.0000
  H   H11       1.0  0.49147  0.78597  0.70378  1.0000
  H   H12       1.0  0.99147  0.71403  0.29622  1.0000
  H   H13       1.0  0.15603  0.27301  0.25152  1.0000
  H   H14       1.0  0.65605  0.22698  0.74848  1.0000
  H   H15       1.0  0.84396  0.72699  0.74848  1.0000
  H   H16       1.0  0.34396  0.77301  0.25152  1.0000
  H   H17       1.0  0.74499  0.88849  0.96551  1.0000
  H   H18       1.0  0.24499  0.61151  0.03449  1.0000
  H   H19       1.0  0.25501  0.11151  0.03449  1.0000
  H   H20       1.0  0.75501  0.38849  0.96551  1.0000
  H   H21       1.0  0.86552  0.74570  0.95082  1.0000
  H   H22       1.0  0.36551  0.75430  0.04918  1.0000
  H   H23       1.0  0.13448  0.25430  0.04918  1.0000
  H   H24       1.0  0.63448  0.24570  0.95082  1.0000
  H   H25       1.0  0.02395  0.87456  0.97170  1.0000
  H   H26       1.0  0.52394  0.62544  0.02830  1.0000
  H   H27       1.0  0.97605  0.12544  0.02830  1.0000
  H   H28       1.0  0.47606  0.37456  0.97170  1.0000
  C   C1        1.0  0.82534  0.42745  0.35810  1.0000
  C   C2        1.0  0.32535  0.07255  0.64190  1.0000
  C   C3        1.0  0.17465  0.57255  0.64190  1.0000
  C   C4        1.0  0.67465  0.92745  0.35810  1.0000
  C   C5        1.0  0.65193  0.26519  0.30100  1.0000
  C   C6        1.0  0.15194  0.23481  0.69901  1.0000
  C   C7        1.0  0.34806  0.73481  0.69901  1.0000
  C   C8        1.0  0.84806  0.76519  0.30099  1.0000
  C   C9        1.0  0.83121  0.22571  0.26274  1.0000
  C   C10       1.0  0.33123  0.27428  0.73727  1.0000
  C   C11       1.0  0.16878  0.77429  0.73727  1.0000
  C   C12       1.0  0.66878  0.72572  0.26273  1.0000
  C   C13       1.0  0.00871  0.29573  0.27840  1.0000
  C   C14       1.0  0.50872  0.20427  0.72160  1.0000
  C   C15       1.0  0.99129  0.70427  0.72160  1.0000
  C   C16       1.0  0.49128  0.79573  0.27840  1.0000
  C   C17       1.0  0.83442  0.11822  0.21085  1.0000
  C   C18       1.0  0.33444  0.38178  0.78916  1.0000
  C   C19       1.0  0.16557  0.88178  0.78915  1.0000
  C   C20       1.0  0.66556  0.61823  0.21084  1.0000
  C   C21       1.0  0.66853  0.08565  0.16343  1.0000
  C   C22       1.0  0.16855  0.41435  0.83657  1.0000
  C   C23       1.0  0.33146  0.91435  0.83657  1.0000
  C   C24       1.0  0.83146  0.58565  0.16343  1.0000
  C   C25       1.0  0.67509  0.98601  0.11279  1.0000
  C   C26       1.0  0.17509  0.51399  0.88722  1.0000
  C   C27       1.0  0.32491  0.01399  0.88722  1.0000
  C   C28       1.0  0.82491  0.48602  0.11278  1.0000
  C   C29       1.0  0.84953  0.91160  0.10572  1.0000
  C   C30       1.0  0.34953  0.58840  0.89428  1.0000
  C   C31       1.0  0.15047  0.08841  0.89428  1.0000
  C   C32       1.0  0.65047  0.41160  0.10572  1.0000
  C   C33       1.0  0.01429  0.94150  0.15368  1.0000
  C   C34       1.0  0.51431  0.55849  0.84632  1.0000
  C   C35       1.0  0.98570  0.05850  0.84632  1.0000
  C   C36       1.0  0.48569  0.44151  0.15368  1.0000
  C   C37       1.0  0.00561  0.04101  0.20444  1.0000
  C   C38       1.0  0.50562  0.45899  0.79556  1.0000
  C   C39       1.0  0.99439  0.95899  0.79556  1.0000
  C   C40       1.0  0.49438  0.54101  0.20444  1.0000
  C   C41       1.0  0.87351  0.83313  0.98156  1.0000
  C   C42       1.0  0.37350  0.66687  0.01844  1.0000
  C   C43       1.0  0.12649  0.16687  0.01844  1.0000
  C   C44       1.0  0.62650  0.33313  0.98156  1.0000
  N   N1        1.0  0.00991  0.39200  0.32634  1.0000
  N   N2        1.0  0.50992  0.10800  0.67366  1.0000
  N   N3        1.0  0.99009  0.60800  0.67366  1.0000
  N   N4        1.0  0.49009  0.89200  0.32634  1.0000
  N   N5        1.0  0.82273  0.52767  0.40258  1.0000
  N   N6        1.0  0.32273  0.97233  0.59742  1.0000
  N   N7        1.0  0.17727  0.47233  0.59742  1.0000
  N   N8        1.0  0.67727  0.02767  0.40258  1.0000
  N   N9        1.0  0.64503  0.36510  0.34593  1.0000
  N   N10       1.0  0.14504  0.13490  0.65407  1.0000
  N   N11       1.0  0.35496  0.63490  0.65407  1.0000
  N   N12       1.0  0.85496  0.86510  0.34593  1.0000
  N   N13       1.0  0.16118  0.19126  0.44609  1.0000
  N   N14       1.0  0.66118  0.30874  0.55391  1.0000
  N   N15       1.0  0.83882  0.80874  0.55391  1.0000
  N   N16       1.0  0.33882  0.69126  0.44609  1.0000
  O   O1        1.0  0.85749  0.81193  0.05789  1.0000
  O   O2        1.0  0.35750  0.68807  0.94211  1.0000
  O   O3        1.0  0.14250  0.18807  0.94212  1.0000
  O   O4        1.0  0.64250  0.31193  0.05788  1.0000
  O   O5        1.0  0.10755  0.29450  0.47065  1.0000
  O   O6        1.0  0.60755  0.20550  0.52935  1.0000
  O   O7        1.0  0.89245  0.70550  0.52935  1.0000
  O   O8        1.0  0.39246  0.79450  0.47064  1.0000
  O   O9        1.0  0.29623  0.17460  0.39601  1.0000
  O   O10       1.0  0.79623  0.32540  0.60399  1.0000
  O   O11       1.0  0.70377  0.82540  0.60399  1.0000
  O   O12       1.0  0.20377  0.67460  0.39601  1.0000
  O   O13       1.0  0.07696  0.10128  0.47118  1.0000
  O   O14       1.0  0.57696  0.39872  0.52881  1.0000
  O   O15       1.0  0.92304  0.89872  0.52881  1.0000
  O   O16       1.0  0.42304  0.60128  0.47119  1.0000
  F   F1        1.0  0.49470  0.15321  0.16507  1.0000
  F   F2        1.0  0.99472  0.34679  0.83494  1.0000
  F   F3        1.0  0.50529  0.84679  0.83494  1.0000
  F   F4        1.0  0.00529  0.65321  0.16506  1.0000
  F   F5        1.0  0.50890  0.96043  0.06888  1.0000
  F   F6        1.0  0.00891  0.53957  0.93112  1.0000
  F   F7        1.0  0.49110  0.03957  0.93113  1.0000
  F   F8        1.0  0.99109  0.46043  0.06887  1.0000
  F   F9        1.0  0.18614  0.87252  0.15124  1.0000
  F   F10       1.0  0.68615  0.62748  0.84876  1.0000
  F   F11       1.0  0.81385  0.12749  0.84876  1.0000
  F   F12       1.0  0.31385  0.37252  0.15124  1.0000
  F   F13       1.0  0.17049  0.06100  0.24961  1.0000
  F   F14       1.0  0.67051  0.43900  0.75039  1.0000
  F   F15       1.0  0.82951  0.93900  0.75039  1.0000
  F   F16       1.0  0.32951  0.56100  0.24961  1.0000
