data_image0
_chemical_formula_structural       Ni2H60C58N8O10
_chemical_formula_sum              "Ni2 H60 C58 N8 O10"
_cell_length_a       10.2009
_cell_length_b       10.9461
_cell_length_c       13.277
_cell_angle_alpha    87.7269
_cell_angle_beta     72.3409
_cell_angle_gamma    66.235

_space_group_name_H-M_alt    "P 1"
_space_group_IT_number       1

loop_
  _space_group_symop_operation_xyz
  'x, y, z'

loop_
  _atom_site_type_symbol
  _atom_site_label
  _atom_site_symmetry_multiplicity
  _atom_site_fract_x
  _atom_site_fract_y
  _atom_site_fract_z
  _atom_site_occupancy
  Ni  Ni1       1.0  0.63591  0.88905  0.64211  1.0000
  Ni  Ni2       1.0  0.36404  0.11089  0.35843  1.0000
  H   H1        1.0  0.70153  0.00986  0.45359  1.0000
  H   H2        1.0  0.29849  0.98966  0.54645  1.0000
  H   H3        1.0  0.81768  0.96956  0.52714  1.0000
  H   H4        1.0  0.18303  0.02898  0.47247  1.0000
  H   H5        1.0  0.27736  0.79369  0.91159  1.0000
  H   H6        1.0  0.72291  0.20559  0.08856  1.0000
  H   H7        1.0  0.85409  0.81945  0.88649  1.0000
  H   H8        1.0  0.14561  0.18088  0.11403  1.0000
  H   H9        1.0  0.15235  0.92132  0.63120  1.0000
  H   H10       1.0  0.84825  0.07710  0.36862  1.0000
  H   H11       1.0  0.07046  0.55824  0.97352  1.0000
  H   H12       1.0  0.92812  0.44201  0.02686  1.0000
  H   H13       1.0  0.06585  0.57799  0.10730  1.0000
  H   H14       1.0  0.93283  0.42200  0.89310  1.0000
  H   H15       1.0  0.22077  0.57834  0.00114  1.0000
  H   H16       1.0  0.77830  0.42089  0.99927  1.0000
  H   H17       1.0  0.02829  0.81086  0.18357  1.0000
  H   H18       1.0  0.97239  0.18850  0.81664  1.0000
  H   H19       1.0  0.02113  0.93992  0.09762  1.0000
  H   H20       1.0  0.98006  0.05941  0.90260  1.0000
  H   H21       1.0  0.19107  0.79467  0.07742  1.0000
  H   H22       1.0  0.80964  0.20409  0.92260  1.0000
  H   H23       1.0  0.80333  0.75124  0.03790  1.0000
  H   H24       1.0  0.19592  0.24976  0.96267  1.0000
  H   H25       1.0  0.78230  0.91392  0.07567  1.0000
  H   H26       1.0  0.21789  0.08688  0.92451  1.0000
  H   H27       1.0  0.81946  0.78550  0.16173  1.0000
  H   H28       1.0  0.18003  0.21554  0.83873  1.0000
  H   H29       1.0  0.68760  0.62123  0.78027  1.0000
  H   H30       1.0  0.31486  0.37530  0.21953  1.0000
  H   H31       1.0  0.75132  0.37815  0.80821  1.0000
  H   H32       1.0  0.25117  0.61813  0.19014  1.0000
  H   H33       1.0  0.85677  0.20579  0.65546  1.0000
  H   H34       1.0  0.14479  0.79172  0.34211  1.0000
  H   H35       1.0  0.90261  0.26816  0.47141  1.0000
  H   H36       1.0  0.09738  0.73138  0.52662  1.0000
  H   H37       1.0  0.78389  0.75691  0.41067  1.0000
  H   H38       1.0  0.21642  0.24260  0.58957  1.0000
  H   H39       1.0  0.96859  0.40918  0.29985  1.0000
  H   H40       1.0  0.02994  0.58905  0.70034  1.0000
  H   H41       1.0  0.87491  0.57671  0.27319  1.0000
  H   H42       1.0  0.12593  0.42160  0.72607  1.0000
  H   H43       1.0  0.73849  0.37245  0.35158  1.0000
  H   H44       1.0  0.25895  0.62805  0.64786  1.0000
  H   H45       1.0  0.75719  0.43880  0.22865  1.0000
  H   H46       1.0  0.23990  0.56304  0.77129  1.0000
  H   H47       1.0  0.49242  0.53113  0.35578  1.0000
  H   H48       1.0  0.50500  0.47179  0.64628  1.0000
  H   H49       1.0  0.55042  0.59528  0.44661  1.0000
  H   H50       1.0  0.45027  0.40686  0.55372  1.0000
  H   H51       1.0  0.49839  0.83097  0.44485  1.0000
  H   H52       1.0  0.50222  0.16976  0.55548  1.0000
  H   H53       1.0  0.40627  0.02318  0.11073  1.0000
  H   H54       1.0  0.59224  0.97973  0.89113  1.0000
  H   H55       1.0  0.44927  0.86759  0.95791  1.0000
  H   H56       1.0  0.54848  0.13651  0.04323  1.0000
  H   H57       1.0  0.53443  0.62490  0.97111  1.0000
  H   H58       1.0  0.46531  0.37889  0.02848  1.0000
  H   H59       1.0  0.57967  0.52506  0.13669  1.0000
  H   H60       1.0  0.42105  0.47719  0.86214  1.0000
  C   C1        1.0  0.37958  0.86684  0.71797  1.0000
  C   C2        1.0  0.62082  0.13259  0.28217  1.0000
  C   C3        1.0  0.23298  0.85446  0.76600  1.0000
  C   C4        1.0  0.76746  0.14468  0.23402  1.0000
  C   C5        1.0  0.19628  0.81393  0.86863  1.0000
  C   C6        1.0  0.80398  0.18541  0.13148  1.0000
  C   C7        1.0  0.05855  0.80306  0.91586  1.0000
  C   C8        1.0  0.94151  0.19665  0.08438  1.0000
  C   C9        1.0  0.96095  0.82880  0.85503  1.0000
  C   C10       1.0  0.03901  0.17101  0.14527  1.0000
  C   C11       1.0  0.99537  0.87102  0.75317  1.0000
  C   C12       1.0  0.00491  0.12817  0.24694  1.0000
  C   C13       1.0  0.13032  0.88540  0.70938  1.0000
  C   C14       1.0  0.87018  0.11345  0.29060  1.0000
  C   C15       1.0  0.88977  0.90134  0.68851  1.0000
  C   C16       1.0  0.11066  0.09760  0.31148  1.0000
  C   C17       1.0  0.01705  0.76374  0.02965  1.0000
  C   C18       1.0  0.98280  0.23621  0.97066  1.0000
  C   C19       1.0  0.09803  0.61060  0.02751  1.0000
  C   C20       1.0  0.90096  0.38926  0.97287  1.0000
  C   C21       1.0  0.06782  0.83113  0.10070  1.0000
  C   C22       1.0  0.93280  0.16818  0.89948  1.0000
  C   C23       1.0  0.84595  0.80609  0.07789  1.0000
  C   C24       1.0  0.15376  0.19466  0.92250  1.0000
  C   C25       1.0  0.75765  0.58039  0.60986  1.0000
  C   C26       1.0  0.24332  0.41805  0.38978  1.0000
  C   C27       1.0  0.73330  0.54472  0.71414  1.0000
  C   C28       1.0  0.26852  0.45259  0.28521  1.0000
  C   C29       1.0  0.76954  0.40946  0.72817  1.0000
  C   C30       1.0  0.23241  0.58762  0.27043  1.0000
  C   C31       1.0  0.82888  0.31106  0.64177  1.0000
  C   C32       1.0  0.17247  0.68670  0.35641  1.0000
  C   C33       1.0  0.85402  0.34523  0.53749  1.0000
  C   C34       1.0  0.14651  0.65360  0.46098  1.0000
  C   C35       1.0  0.81769  0.48083  0.52318  1.0000
  C   C36       1.0  0.18274  0.51814  0.47611  1.0000
  C   C37       1.0  0.78143  0.68081  0.46503  1.0000
  C   C38       1.0  0.21888  0.31840  0.53495  1.0000
  C   C39       1.0  0.86098  0.49845  0.32425  1.0000
  C   C40       1.0  0.13839  0.50072  0.67554  1.0000
  C   C41       1.0  0.73401  0.46422  0.31328  1.0000
  C   C42       1.0  0.26413  0.53649  0.68671  1.0000
  C   C43       1.0  0.57358  0.57075  0.36179  1.0000
  C   C44       1.0  0.42547  0.43092  0.63886  1.0000
  C   C45       1.0  0.49963  0.81950  0.36357  1.0000
  C   C46       1.0  0.50070  0.18157  0.63680  1.0000
  C   C47       1.0  0.47414  0.85977  0.20702  1.0000
  C   C48       1.0  0.52570  0.14203  0.79355  1.0000
  C   C49       1.0  0.44596  0.91547  0.11506  1.0000
  C   C50       1.0  0.55306  0.08723  0.88600  1.0000
  C   C51       1.0  0.46926  0.82851  0.03127  1.0000
  C   C52       1.0  0.52940  0.17488  0.96947  1.0000
  C   C53       1.0  0.51796  0.68919  0.03863  1.0000
  C   C54       1.0  0.48154  0.31403  0.96132  1.0000
  C   C55       1.0  0.54502  0.63220  0.12998  1.0000
  C   C56       1.0  0.45506  0.37020  0.86959  1.0000
  C   C57       1.0  0.52373  0.71943  0.21311  1.0000
  C   C58       1.0  0.47624  0.28231  0.78698  1.0000
  N   N1        1.0  0.73550  0.70432  0.57000  1.0000
  N   N2        1.0  0.26529  0.29447  0.43006  1.0000
  N   N3        1.0  0.83084  0.54907  0.43250  1.0000
  N   N4        1.0  0.16914  0.45028  0.56710  1.0000
  N   N5        1.0  0.46027  0.91896  0.30305  1.0000
  N   N6        1.0  0.53986  0.08230  0.69755  1.0000
  N   N7        1.0  0.53958  0.69743  0.31342  1.0000
  N   N8        1.0  0.46054  0.30388  0.68671  1.0000
  O   O1        1.0  0.46947  0.84301  0.77196  1.0000
  O   O2        1.0  0.53102  0.15629  0.22814  1.0000
  O   O3        1.0  0.41276  0.90103  0.62264  1.0000
  O   O4        1.0  0.58761  0.09898  0.37764  1.0000
  O   O5        1.0  0.79550  0.84657  0.71516  1.0000
  O   O6        1.0  0.20377  0.15363  0.28553  1.0000
  O   O7        1.0  0.90355  0.97396  0.61305  1.0000
  O   O8        1.0  0.09804  0.02370  0.38614  1.0000
  O   O9        1.0  0.75873  0.93973  0.49238  1.0000
  O   O10       1.0  0.24050  0.05975  0.50803  1.0000
