data_image0
_chemical_formula_structural       Zn4H4C20O16
_chemical_formula_sum              "Zn4 H4 C20 O16"
_cell_length_a       7.43772
_cell_length_b       8.18815
_cell_length_c       9.02403
_cell_angle_alpha    89.2096
_cell_angle_beta     114.355
_cell_angle_gamma    90.01

_space_group_name_H-M_alt    "P 1"
_space_group_IT_number       1

loop_
  _space_group_symop_operation_xyz
  'x, y, z'

loop_
  _atom_site_type_symbol
  _atom_site_label
  _atom_site_symmetry_multiplicity
  _atom_site_fract_x
  _atom_site_fract_y
  _atom_site_fract_z
  _atom_site_occupancy
  Zn  Zn1       1.0  0.26098  0.56172  0.38154  1.0000
  Zn  Zn2       1.0  0.87911  0.93832  0.61840  1.0000
  Zn  Zn3       1.0  0.73902  0.43828  0.61846  1.0000
  Zn  Zn4       1.0  0.12090  0.06168  0.38160  1.0000
  H   H1        1.0  0.25607  0.25012  0.99992  1.0000
  H   H2        1.0  0.74393  0.74988  0.00008  1.0000
  H   H3        1.0  0.92307  0.24986  0.00016  1.0000
  H   H4        1.0  0.07693  0.75014  0.99984  1.0000
  C   C1        1.0  0.74778  0.32092  0.12857  1.0000
  C   C2        1.0  0.61918  0.17898  0.87156  1.0000
  C   C3        1.0  0.25222  0.67908  0.87143  1.0000
  C   C4        1.0  0.38082  0.82101  0.12844  1.0000
  C   C5        1.0  0.55833  0.32345  0.12795  1.0000
  C   C6        1.0  0.43030  0.17664  0.87208  1.0000
  C   C7        1.0  0.44167  0.67655  0.87205  1.0000
  C   C8        1.0  0.56970  0.82337  0.12792  1.0000
  C   C9        1.0  0.40210  0.25007  1.00000  1.0000
  C   C10       1.0  0.59790  0.74994  0.00000  1.0000
  C   C11       1.0  0.77625  0.24989  0.00010  1.0000
  C   C12       1.0  0.22375  0.75011  0.99990  1.0000
  C   C13       1.0  0.92953  0.39090  0.25869  1.0000
  C   C14       1.0  0.67064  0.10904  0.74140  1.0000
  C   C15       1.0  0.07047  0.60910  0.74131  1.0000
  C   C16       1.0  0.32936  0.89096  0.25860  1.0000
  C   C17       1.0  0.52561  0.40185  0.26326  1.0000
  C   C18       1.0  0.26221  0.09827  0.73670  1.0000
  C   C19       1.0  0.47439  0.59816  0.73674  1.0000
  C   C20       1.0  0.73779  0.90174  0.26330  1.0000
  O   O1        1.0  0.96983  0.53969  0.24569  1.0000
  O   O2        1.0  0.72393  0.96027  0.75433  1.0000
  O   O3        1.0  0.03017  0.46031  0.75432  1.0000
  O   O4        1.0  0.27607  0.03973  0.24566  1.0000
  O   O5        1.0  0.05116  0.29670  0.36813  1.0000
  O   O6        1.0  0.68270  0.20326  0.63196  1.0000
  O   O7        1.0  0.94885  0.70330  0.63187  1.0000
  O   O8        1.0  0.31730  0.79674  0.36804  1.0000
  O   O9        1.0  0.67973  0.44444  0.38622  1.0000
  O   O10       1.0  0.29353  0.05547  0.61391  1.0000
  O   O11       1.0  0.32027  0.55556  0.61378  1.0000
  O   O12       1.0  0.70646  0.94453  0.38610  1.0000
  O   O13       1.0  0.34882  0.42339  0.24648  1.0000
  O   O14       1.0  0.10204  0.07687  0.75325  1.0000
  O   O15       1.0  0.65118  0.57661  0.75352  1.0000
  O   O16       1.0  0.89796  0.92313  0.24676  1.0000
