data_image0
_chemical_formula_structural       Cu2H22C36Br4N6O12
_chemical_formula_sum              "Cu2 H22 C36 Br4 N6 O12"
_cell_length_a       9.83143
_cell_length_b       10.1354
_cell_length_c       11.0011
_cell_angle_alpha    73.4981
_cell_angle_beta     87.3503
_cell_angle_gamma    77.4666

_space_group_name_H-M_alt    "P 1"
_space_group_IT_number       1

loop_
  _space_group_symop_operation_xyz
  'x, y, z'

loop_
  _atom_site_type_symbol
  _atom_site_label
  _atom_site_symmetry_multiplicity
  _atom_site_fract_x
  _atom_site_fract_y
  _atom_site_fract_z
  _atom_site_occupancy
  Cu  Cu1       1.0  0.85420  0.36744  0.56580  1.0000
  Cu  Cu2       1.0  0.14578  0.63255  0.43420  1.0000
  H   H1        1.0  0.85764  0.92698  0.52432  1.0000
  H   H2        1.0  0.14238  0.07303  0.47566  1.0000
  H   H3        1.0  0.55112  0.67579  0.66276  1.0000
  H   H4        1.0  0.44892  0.32419  0.33721  1.0000
  H   H5        1.0  0.47760  0.10451  0.68430  1.0000
  H   H6        1.0  0.52240  0.89546  0.31571  1.0000
  H   H7        1.0  0.71969  0.36874  0.80677  1.0000
  H   H8        1.0  0.28030  0.63125  0.19328  1.0000
  H   H9        1.0  0.78115  0.27405  0.03960  1.0000
  H   H10       1.0  0.21887  0.72595  0.96044  1.0000
  H   H11       1.0  0.97256  0.35378  0.31683  1.0000
  H   H12       1.0  0.02741  0.64621  0.68320  1.0000
  H   H13       1.0  0.19623  0.10114  0.93211  1.0000
  H   H14       1.0  0.80378  0.89886  0.06788  1.0000
  H   H15       1.0  0.60079  0.55912  0.43604  1.0000
  H   H16       1.0  0.39916  0.44091  0.56395  1.0000
  H   H17       1.0  0.11398  0.19584  0.70587  1.0000
  H   H18       1.0  0.88598  0.80416  0.29413  1.0000
  H   H19       1.0  0.90315  0.46279  0.08899  1.0000
  H   H20       1.0  0.09685  0.53721  0.91102  1.0000
  H   H21       1.0  0.51296  0.67246  0.21701  1.0000
  H   H22       1.0  0.48703  0.32759  0.78296  1.0000
  C   C1        1.0  0.80704  0.66514  0.55693  1.0000
  C   C2        1.0  0.19302  0.33488  0.44305  1.0000
  C   C3        1.0  0.50257  0.88892  0.67834  1.0000
  C   C4        1.0  0.49745  0.11105  0.32164  1.0000
  C   C5        1.0  0.71375  0.78904  0.58971  1.0000
  C   C6        1.0  0.28627  0.21095  0.41028  1.0000
  C   C7        1.0  0.75684  0.91693  0.56752  1.0000
  C   C8        1.0  0.24318  0.08308  0.43247  1.0000
  C   C9        1.0  0.67215  0.03037  0.60222  1.0000
  C   C10       1.0  0.32785  0.96962  0.39777  1.0000
  C   C11       1.0  0.58533  0.77447  0.64544  1.0000
  C   C12       1.0  0.41469  0.22552  0.35454  1.0000
  C   C13       1.0  0.54336  0.01653  0.65750  1.0000
  C   C14       1.0  0.45663  0.98344  0.34251  1.0000
  C   C15       1.0  0.71641  0.16755  0.58743  1.0000
  C   C16       1.0  0.28359  0.83248  0.41257  1.0000
  C   C17       1.0  0.99478  0.18365  0.00226  1.0000
  C   C18       1.0  0.00525  0.81634  0.99777  1.0000
  C   C19       1.0  0.82337  0.30776  0.83963  1.0000
  C   C20       1.0  0.17662  0.69224  0.16040  1.0000
  C   C21       1.0  0.85814  0.25695  0.96817  1.0000
  C   C22       1.0  0.14188  0.74305  0.03185  1.0000
  C   C23       1.0  0.87307  0.42678  0.28978  1.0000
  C   C24       1.0  0.12690  0.57323  0.71024  1.0000
  C   C25       1.0  0.08988  0.16012  0.90892  1.0000
  C   C26       1.0  0.91011  0.83988  0.09108  1.0000
  C   C27       1.0  0.66494  0.53974  0.35702  1.0000
  C   C28       1.0  0.33503  0.46028  0.64297  1.0000
  C   C29       1.0  0.04505  0.21228  0.78290  1.0000
  C   C30       1.0  0.95493  0.78772  0.21711  1.0000
  C   C31       1.0  0.83358  0.48718  0.16309  1.0000
  C   C32       1.0  0.16640  0.51283  0.83693  1.0000
  C   C33       1.0  0.61593  0.60344  0.23298  1.0000
  C   C34       1.0  0.38406  0.39658  0.76700  1.0000
  C   C35       1.0  0.70259  0.57604  0.13522  1.0000
  C   C36       1.0  0.29740  0.42398  0.86477  1.0000
  Br  Br1       1.0  0.05221  0.11498  0.17460  1.0000
  Br  Br2       1.0  0.94783  0.88501  0.82541  1.0000
  Br  Br3       1.0  0.64351  0.65789  0.96357  1.0000
  Br  Br4       1.0  0.35650  0.34212  0.03643  1.0000
  N   N1        1.0  0.79129  0.45350  0.38498  1.0000
  N   N2        1.0  0.20866  0.54652  0.61501  1.0000
  N   N3        1.0  0.91504  0.28654  0.74866  1.0000
  N   N4        1.0  0.08494  0.71345  0.25138  1.0000
  N   N5        1.0  0.37001  0.87270  0.74138  1.0000
  N   N6        1.0  0.63000  0.12726  0.25861  1.0000
  O   O1        1.0  0.84328  0.17144  0.55420  1.0000
  O   O2        1.0  0.15670  0.82856  0.44583  1.0000
  O   O3        1.0  0.77168  0.54665  0.60692  1.0000
  O   O4        1.0  0.22838  0.45336  0.39307  1.0000
  O   O5        1.0  0.90913  0.68533  0.48698  1.0000
  O   O6        1.0  0.09091  0.31471  0.51300  1.0000
  O   O7        1.0  0.62996  0.26799  0.61128  1.0000
  O   O8        1.0  0.37001  0.73201  0.38870  1.0000
  O   O9        1.0  0.30058  0.97358  0.77541  1.0000
  O   O10       1.0  0.69943  0.02636  0.22460  1.0000
  O   O11       1.0  0.33530  0.75791  0.75971  1.0000
  O   O12       1.0  0.66471  0.24207  0.24025  1.0000
