data_image0
_chemical_formula_structural       MnH18C20I8O12
_chemical_formula_sum              "Mn1 H18 C20 I8 O12"
_cell_length_a       9.74051
_cell_length_b       10.1363
_cell_length_c       10.2613
_cell_angle_alpha    100.55
_cell_angle_beta     101.062
_cell_angle_gamma    111.826

_space_group_name_H-M_alt    "P 1"
_space_group_IT_number       1

loop_
  _space_group_symop_operation_xyz
  'x, y, z'

loop_
  _atom_site_type_symbol
  _atom_site_label
  _atom_site_symmetry_multiplicity
  _atom_site_fract_x
  _atom_site_fract_y
  _atom_site_fract_z
  _atom_site_occupancy
  Mn  Mn1       1.0  0.50000  0.50000  0.50000  1.0000
  H   H1        1.0  0.78473  0.32513  0.40563  1.0000
  H   H2        1.0  0.21527  0.67487  0.59435  1.0000
  H   H3        1.0  0.73710  0.32476  0.56685  1.0000
  H   H4        1.0  0.26291  0.67525  0.43315  1.0000
  H   H5        1.0  0.82656  0.49609  0.52644  1.0000
  H   H6        1.0  0.17344  0.50391  0.47354  1.0000
  H   H7        1.0  0.47992  0.59587  0.20805  1.0000
  H   H8        1.0  0.52008  0.40414  0.79195  1.0000
  H   H9        1.0  0.30774  0.44026  0.09939  1.0000
  H   H10       1.0  0.69226  0.55975  0.90061  1.0000
  H   H11       1.0  0.47728  0.41488  0.17108  1.0000
  H   H12       1.0  0.52273  0.58513  0.82891  1.0000
  H   H13       1.0  0.51457  0.26922  0.39594  1.0000
  H   H14       1.0  0.48543  0.73078  0.60406  1.0000
  H   H15       1.0  0.26503  0.36604  0.28679  1.0000
  H   H16       1.0  0.73497  0.63396  0.71320  1.0000
  H   H17       1.0  0.71042  0.03583  0.68081  1.0000
  H   H18       1.0  0.28958  0.96416  0.31920  1.0000
  C   C1        1.0  0.28700  0.18818  0.45737  1.0000
  C   C2        1.0  0.71300  0.81182  0.54263  1.0000
  C   C3        1.0  0.13824  0.08703  0.47647  1.0000
  C   C4        1.0  0.86177  0.91297  0.52353  1.0000
  C   C5        1.0  0.14140  0.01722  0.58265  1.0000
  C   C6        1.0  0.85860  0.98278  0.41735  1.0000
  C   C7        1.0  0.00345  0.93112  0.60723  1.0000
  C   C8        1.0  0.99655  0.06888  0.39277  1.0000
  C   C9        1.0  0.74519  0.37951  0.48380  1.0000
  C   C10       1.0  0.25481  0.62049  0.51619  1.0000
  C   C11       1.0  0.40875  0.47770  0.18904  1.0000
  C   C12       1.0  0.59125  0.52230  0.81096  1.0000
  C   C13       1.0  0.85422  0.18805  0.84699  1.0000
  C   C14       1.0  0.14578  0.81195  0.15302  1.0000
  C   C15       1.0  0.92484  0.35144  0.92040  1.0000
  C   C16       1.0  0.07515  0.64856  0.07961  1.0000
  C   C17       1.0  0.86572  0.40406  0.02249  1.0000
  C   C18       1.0  0.13427  0.59594  0.97751  1.0000
  C   C19       1.0  0.94088  0.55233  0.10287  1.0000
  C   C20       1.0  0.05912  0.44766  0.89713  1.0000
  I   I1        1.0  0.35856  0.05727  0.70922  1.0000
  I   I2        1.0  0.64144  0.94273  0.29079  1.0000
  I   I3        1.0  0.00957  0.84443  0.77870  1.0000
  I   I4        1.0  0.99043  0.15557  0.22130  1.0000
  I   I5        1.0  0.65931  0.25661  0.04886  1.0000
  I   I6        1.0  0.34068  0.74340  0.95114  1.0000
  I   I7        1.0  0.85670  0.63368  0.25862  1.0000
  I   I8        1.0  0.14329  0.36632  0.74138  1.0000
  O   O1        1.0  0.33001  0.32589  0.51342  1.0000
  O   O2        1.0  0.67000  0.67411  0.48658  1.0000
  O   O3        1.0  0.35911  0.13351  0.38843  1.0000
  O   O4        1.0  0.64089  0.86649  0.61157  1.0000
  O   O5        1.0  0.59682  0.37346  0.41742  1.0000
  O   O6        1.0  0.40318  0.62654  0.58258  1.0000
  O   O7        1.0  0.35726  0.46039  0.31066  1.0000
  O   O8        1.0  0.64274  0.53961  0.68934  1.0000
  O   O9        1.0  0.89328  0.10469  0.90182  1.0000
  O   O10       1.0  0.10672  0.89531  0.09820  1.0000
  O   O11       1.0  0.75145  0.14844  0.72532  1.0000
  O   O12       1.0  0.24854  0.85155  0.27469  1.0000
