data_image0
_chemical_formula_structural       V8Ni3H12C12N6O23
_chemical_formula_sum              "V8 Ni3 H12 C12 N6 O23"
_cell_length_a       8.50672
_cell_length_b       8.89425
_cell_length_c       12.4973
_cell_angle_alpha    102.33
_cell_angle_beta     96.7106
_cell_angle_gamma    118.004

_space_group_name_H-M_alt    "P 1"
_space_group_IT_number       1

loop_
  _space_group_symop_operation_xyz
  'x, y, z'

loop_
  _atom_site_type_symbol
  _atom_site_label
  _atom_site_symmetry_multiplicity
  _atom_site_fract_x
  _atom_site_fract_y
  _atom_site_fract_z
  _atom_site_occupancy
  V   V1        1.0  0.21466  0.12156  0.42534  1.0000
  V   V2        1.0  0.78537  0.87912  0.57504  1.0000
  V   V3        1.0  0.85442  0.03628  0.24251  1.0000
  V   V4        1.0  0.14565  0.96423  0.75737  1.0000
  V   V5        1.0  0.07369  0.69576  0.11516  1.0000
  V   V6        1.0  0.92686  0.30458  0.88433  1.0000
  V   V7        1.0  0.47014  0.97981  0.30436  1.0000
  V   V8        1.0  0.52982  0.02043  0.69570  1.0000
  Ni  Ni1       1.0  0.99996  0.00022  0.99985  1.0000
  Ni  Ni2       1.0  0.84487  0.68690  0.33152  1.0000
  Ni  Ni3       1.0  0.15515  0.31264  0.66844  1.0000
  H   H1        1.0  0.46483  0.60742  0.29553  1.0000
  H   H2        1.0  0.53459  0.39196  0.70430  1.0000
  H   H3        1.0  0.15227  0.35885  0.16863  1.0000
  H   H4        1.0  0.84714  0.64072  0.83106  1.0000
  H   H5        1.0  0.38830  0.06820  0.03943  1.0000
  H   H6        1.0  0.61110  0.93132  0.96025  1.0000
  H   H7        1.0  0.70260  0.31833  0.16346  1.0000
  H   H8        1.0  0.29672  0.68113  0.83641  1.0000
  H   H9        1.0  0.19042  0.68165  0.39524  1.0000
  H   H10       1.0  0.80996  0.31789  0.60516  1.0000
  H   H11       1.0  0.68385  0.43330  0.47276  1.0000
  H   H12       1.0  0.31668  0.56632  0.52768  1.0000
  C   C1        1.0  0.44688  0.48662  0.23778  1.0000
  C   C2        1.0  0.55248  0.51276  0.76203  1.0000
  C   C3        1.0  0.27591  0.35054  0.16856  1.0000
  C   C4        1.0  0.72350  0.64902  0.83117  1.0000
  C   C5        1.0  0.40700  0.18928  0.09693  1.0000
  C   C6        1.0  0.59237  0.81018  0.90281  1.0000
  C   C7        1.0  0.57894  0.32619  0.16506  1.0000
  C   C8        1.0  0.42034  0.67319  0.83476  1.0000
  C   C9        1.0  0.10415  0.59880  0.44116  1.0000
  C   C10       1.0  0.89624  0.40069  0.55923  1.0000
  C   C11       1.0  0.82550  0.46340  0.48509  1.0000
  C   C12       1.0  0.17498  0.53614  0.51529  1.0000
  N   N1        1.0  0.59768  0.47330  0.23607  1.0000
  N   N2        1.0  0.40170  0.52612  0.76377  1.0000
  N   N3        1.0  0.25605  0.20162  0.09923  1.0000
  N   N4        1.0  0.74340  0.79801  0.90044  1.0000
  N   N5        1.0  0.92947  0.56223  0.42609  1.0000
  N   N6        1.0  0.07093  0.43737  0.57425  1.0000
  O   O1        1.0  0.39942  0.13196  0.35995  1.0000
  O   O2        1.0  0.60084  0.86836  0.64080  1.0000
  O   O3        1.0  0.08041  0.91453  0.42717  1.0000
  O   O4        1.0  0.92104  0.08682  0.57397  1.0000
  O   O5        1.0  0.07846  0.17447  0.33691  1.0000
  O   O6        1.0  0.92157  0.82582  0.66298  1.0000
  O   O7        1.0  0.71340  0.73024  0.44742  1.0000
  O   O8        1.0  0.28653  0.27055  0.55320  1.0000
  O   O9        1.0  0.69495  0.10376  0.28746  1.0000
  O   O10       1.0  0.30512  0.89647  0.71262  1.0000
  O   O11       1.0  0.87408  0.06275  0.11512  1.0000
  O   O12       1.0  0.12573  0.93798  0.88476  1.0000
  O   O13       1.0  0.01304  0.82854  0.07262  1.0000
  O   O14       1.0  0.98719  0.17198  0.92750  1.0000
  O   O15       1.0  0.32214  0.82637  0.17034  1.0000
  O   O16       1.0  0.67841  0.17426  0.82949  1.0000
  O   O17       1.0  0.46706  0.86530  0.38909  1.0000
  O   O18       1.0  0.53285  0.13461  0.61073  1.0000
  O   O19       1.0  0.78195  0.82719  0.24048  1.0000
  O   O20       1.0  0.21815  0.17360  0.75928  1.0000
  O   O21       1.0  0.97707  0.63697  0.21946  1.0000
  O   O22       1.0  0.02390  0.36293  0.77997  1.0000
  O   O23       1.0  0.00011  0.50045  0.99943  1.0000
