data_image0
_chemical_formula_structural       CoH18C20I8O12
_chemical_formula_sum              "Co1 H18 C20 I8 O12"
_cell_length_a       9.63083
_cell_length_b       10.6916
_cell_length_c       10.0106
_cell_angle_alpha    103.442
_cell_angle_beta     98.1049
_cell_angle_gamma    113.458

_space_group_name_H-M_alt    "P 1"
_space_group_IT_number       1

loop_
  _space_group_symop_operation_xyz
  'x, y, z'

loop_
  _atom_site_type_symbol
  _atom_site_label
  _atom_site_symmetry_multiplicity
  _atom_site_fract_x
  _atom_site_fract_y
  _atom_site_fract_z
  _atom_site_occupancy
  Co  Co1       1.0  0.50000  0.50000  0.50000  1.0000
  H   H1        1.0  0.54083  0.28166  0.40535  1.0000
  H   H2        1.0  0.45916  0.71834  0.59466  1.0000
  H   H3        1.0  0.72826  0.66072  0.73994  1.0000
  H   H4        1.0  0.27175  0.33928  0.26006  1.0000
  H   H5        1.0  0.84709  0.50896  0.57282  1.0000
  H   H6        1.0  0.15291  0.49105  0.42718  1.0000
  H   H7        1.0  0.82343  0.35501  0.43615  1.0000
  H   H8        1.0  0.17656  0.64500  0.56385  1.0000
  H   H9        1.0  0.75353  0.33280  0.59014  1.0000
  H   H10       1.0  0.24647  0.66720  0.40986  1.0000
  H   H11       1.0  0.58941  0.39248  0.76350  1.0000
  H   H12       1.0  0.41062  0.60753  0.23651  1.0000
  H   H13       1.0  0.52020  0.50301  0.86894  1.0000
  H   H14       1.0  0.47979  0.49697  0.13105  1.0000
  H   H15       1.0  0.72654  0.55571  0.90084  1.0000
  H   H16       1.0  0.27346  0.44431  0.09917  1.0000
  H   H17       1.0  0.29466  0.97171  0.30513  1.0000
  H   H18       1.0  0.70534  0.02828  0.69487  1.0000
  C   C1        1.0  0.28859  0.18409  0.44802  1.0000
  C   C2        1.0  0.71142  0.81592  0.55198  1.0000
  C   C3        1.0  0.13823  0.08093  0.46859  1.0000
  C   C4        1.0  0.86177  0.91907  0.53141  1.0000
  C   C5        1.0  0.99409  0.06177  0.39050  1.0000
  C   C6        1.0  0.00591  0.93824  0.60950  1.0000
  C   C7        1.0  0.85554  0.98139  0.42307  1.0000
  C   C8        1.0  0.14446  0.01862  0.57694  1.0000
  C   C9        1.0  0.76981  0.39497  0.51529  1.0000
  C   C10       1.0  0.23019  0.60504  0.48471  1.0000
  C   C11       1.0  0.61477  0.50368  0.81900  1.0000
  C   C12       1.0  0.38523  0.49633  0.18100  1.0000
  C   C13       1.0  0.14111  0.80795  0.14498  1.0000
  C   C14       1.0  0.85889  0.19204  0.85502  1.0000
  C   C15       1.0  0.07349  0.64748  0.07596  1.0000
  C   C16       1.0  0.92652  0.35251  0.92404  1.0000
  C   C17       1.0  0.13216  0.59318  0.96783  1.0000
  C   C18       1.0  0.86784  0.40681  0.03217  1.0000
  C   C19       1.0  0.05823  0.44555  0.89078  1.0000
  C   C20       1.0  0.94176  0.55444  0.10921  1.0000
  I   I1        1.0  0.98565  0.14136  0.21711  1.0000
  I   I2        1.0  0.01435  0.85865  0.78289  1.0000
  I   I3        1.0  0.63431  0.94405  0.30873  1.0000
  I   I4        1.0  0.36569  0.05596  0.69128  1.0000
  I   I5        1.0  0.33668  0.73549  0.92889  1.0000
  I   I6        1.0  0.66331  0.26450  0.07109  1.0000
  I   I7        1.0  0.14284  0.36234  0.72748  1.0000
  I   I8        1.0  0.85715  0.63765  0.27251  1.0000
  O   O1        1.0  0.32671  0.31536  0.51163  1.0000
  O   O2        1.0  0.67329  0.68465  0.48837  1.0000
  O   O3        1.0  0.36487  0.13758  0.37338  1.0000
  O   O4        1.0  0.63513  0.86242  0.62662  1.0000
  O   O5        1.0  0.62281  0.38407  0.44436  1.0000
  O   O6        1.0  0.37718  0.61593  0.55565  1.0000
  O   O7        1.0  0.62232  0.58212  0.71853  1.0000
  O   O8        1.0  0.37769  0.41788  0.28148  1.0000
  O   O9        1.0  0.09077  0.87798  0.08963  1.0000
  O   O10       1.0  0.90924  0.12201  0.91037  1.0000
  O   O11       1.0  0.25448  0.86134  0.26417  1.0000
  O   O12       1.0  0.74552  0.13864  0.73583  1.0000
