data_image0
_chemical_formula_structural       Ni2H28C32N8O12
_chemical_formula_sum              "Ni2 H28 C32 N8 O12"
_cell_length_a       8.64375
_cell_length_b       8.87479
_cell_length_c       12.9702
_cell_angle_alpha    77.8964
_cell_angle_beta     70.535
_cell_angle_gamma    60.8473

_space_group_name_H-M_alt    "P 1"
_space_group_IT_number       1

loop_
  _space_group_symop_operation_xyz
  'x, y, z'

loop_
  _atom_site_type_symbol
  _atom_site_label
  _atom_site_symmetry_multiplicity
  _atom_site_fract_x
  _atom_site_fract_y
  _atom_site_fract_z
  _atom_site_occupancy
  Ni  Ni1       1.0  0.00000  0.00000  1.00000  1.0000
  Ni  Ni2       1.0  0.00000  0.50000  0.50000  1.0000
  H   H1        1.0  0.67948  0.22724  0.03019  1.0000
  H   H2        1.0  0.93680  0.27303  0.46980  1.0000
  H   H3        1.0  0.32052  0.77275  0.96981  1.0000
  H   H4        1.0  0.06320  0.72697  0.53020  1.0000
  H   H5        1.0  0.79422  0.32600  0.95736  1.0000
  H   H6        1.0  0.07734  0.17419  0.54267  1.0000
  H   H7        1.0  0.20578  0.67400  0.04264  1.0000
  H   H8        1.0  0.92265  0.82580  0.45734  1.0000
  H   H9        1.0  0.14373  0.17497  0.67491  1.0000
  H   H10       1.0  0.99402  0.32493  0.82490  1.0000
  H   H11       1.0  0.85627  0.82502  0.32509  1.0000
  H   H12       1.0  0.00598  0.67506  0.17510  1.0000
  H   H13       1.0  0.81289  0.03602  0.56338  1.0000
  H   H14       1.0  0.41235  0.46364  0.93692  1.0000
  H   H15       1.0  0.18711  0.96399  0.43662  1.0000
  H   H16       1.0  0.58765  0.53637  0.06307  1.0000
  H   H17       1.0  0.38152  0.49917  0.34881  1.0000
  H   H18       1.0  0.22965  0.00040  0.15109  1.0000
  H   H19       1.0  0.61849  0.50083  0.65119  1.0000
  H   H20       1.0  0.77034  0.99961  0.84891  1.0000
  H   H21       1.0  0.69114  0.86424  0.71329  1.0000
  H   H22       1.0  0.26857  0.63585  0.78709  1.0000
  H   H23       1.0  0.30886  0.13577  0.28671  1.0000
  H   H24       1.0  0.73143  0.36415  0.21291  1.0000
  H   H25       1.0  0.69413  0.30747  0.39383  1.0000
  H   H26       1.0  0.39554  0.19215  0.10621  1.0000
  H   H27       1.0  0.30587  0.69253  0.60617  1.0000
  H   H28       1.0  0.60445  0.80784  0.89380  1.0000
  C   C1        1.0  0.33089  0.92425  0.80229  1.0000
  C   C2        1.0  0.05756  0.57572  0.69778  1.0000
  C   C3        1.0  0.66912  0.07574  0.19771  1.0000
  C   C4        1.0  0.94243  0.42429  0.30223  1.0000
  C   C5        1.0  0.28947  0.14102  0.64529  1.0000
  C   C6        1.0  0.07617  0.35880  0.85461  1.0000
  C   C7        1.0  0.71054  0.85898  0.35471  1.0000
  C   C8        1.0  0.92383  0.64120  0.14539  1.0000
  C   C9        1.0  0.41021  0.01007  0.70189  1.0000
  C   C10       1.0  0.12244  0.48987  0.79816  1.0000
  C   C11       1.0  0.58979  0.98993  0.29811  1.0000
  C   C12       1.0  0.87756  0.51014  0.20184  1.0000
  C   C13       1.0  0.35974  0.22915  0.55583  1.0000
  C   C14       1.0  0.14504  0.27061  0.94410  1.0000
  C   C15       1.0  0.64025  0.77085  0.44417  1.0000
  C   C16       1.0  0.85496  0.72940  0.05590  1.0000
  C   C17       1.0  0.54861  0.18945  0.52522  1.0000
  C   C18       1.0  0.26358  0.31019  0.97478  1.0000
  C   C19       1.0  0.45139  0.81055  0.47478  1.0000
  C   C20       1.0  0.73643  0.68981  0.02522  1.0000
  C   C21       1.0  0.66985  0.06123  0.58311  1.0000
  C   C22       1.0  0.31434  0.43853  0.91707  1.0000
  C   C23       1.0  0.33015  0.93878  0.41689  1.0000
  C   C24       1.0  0.68566  0.56147  0.08293  1.0000
  C   C25       1.0  0.40432  0.39987  0.41491  1.0000
  C   C26       1.0  0.21934  0.09975  0.08501  1.0000
  C   C27       1.0  0.59568  0.60013  0.58509  1.0000
  C   C28       1.0  0.78065  0.90025  0.91499  1.0000
  C   C29       1.0  0.59886  0.97006  0.66979  1.0000
  C   C30       1.0  0.23885  0.52985  0.83041  1.0000
  C   C31       1.0  0.40114  0.02994  0.33021  1.0000
  C   C32       1.0  0.76115  0.47015  0.16958  1.0000
  N   N1        1.0  0.27355  0.36277  0.48516  1.0000
  N   N2        1.0  0.12177  0.13694  0.01470  1.0000
  N   N3        1.0  0.72646  0.63723  0.51484  1.0000
  N   N4        1.0  0.87824  0.86306  0.98530  1.0000
  N   N5        1.0  0.57105  0.29996  0.43568  1.0000
  N   N6        1.0  0.30691  0.19963  0.06432  1.0000
  N   N7        1.0  0.42895  0.70004  0.56432  1.0000
  N   N8        1.0  0.69309  0.80037  0.93569  1.0000
  O   O1        1.0  0.15791  0.97599  0.83069  1.0000
  O   O2        1.0  0.96475  0.52402  0.66936  1.0000
  O   O3        1.0  0.84209  0.02400  0.16931  1.0000
  O   O4        1.0  0.03525  0.47598  0.33064  1.0000
  O   O5        1.0  0.44051  0.80571  0.85642  1.0000
  O   O6        1.0  0.10269  0.69427  0.64364  1.0000
  O   O7        1.0  0.55949  0.19428  0.14357  1.0000
  O   O8        1.0  0.89730  0.30573  0.35636  1.0000
  O   O9        1.0  0.77244  0.22840  0.95637  1.0000
  O   O10       1.0  0.95711  0.27197  0.54357  1.0000
  O   O11       1.0  0.22755  0.77160  0.04363  1.0000
  O   O12       1.0  0.04288  0.72803  0.45643  1.0000
