data_image0
_chemical_formula_structural       Mn2H44C32I8N4O16
_chemical_formula_sum              "Mn2 H44 C32 I8 N4 O16"
_cell_length_a       8.44184
_cell_length_b       11.4861
_cell_length_c       13.801
_cell_angle_alpha    90
_cell_angle_beta     90
_cell_angle_gamma    101.609

_space_group_name_H-M_alt    "P 1"
_space_group_IT_number       1

loop_
  _space_group_symop_operation_xyz
  'x, y, z'

loop_
  _atom_site_type_symbol
  _atom_site_label
  _atom_site_symmetry_multiplicity
  _atom_site_fract_x
  _atom_site_fract_y
  _atom_site_fract_z
  _atom_site_occupancy
  Mn  Mn1       1.0  0.50001  0.00001  0.00000  1.0000
  Mn  Mn2       1.0  0.99999  0.50000  0.50000  1.0000
  H   H1        1.0  0.46194  0.86709  0.80149  1.0000
  H   H2        1.0  0.03806  0.63291  0.30149  1.0000
  H   H3        1.0  0.53806  0.13290  0.19850  1.0000
  H   H4        1.0  0.96194  0.36709  0.69851  1.0000
  H   H5        1.0  0.62620  0.13560  0.62530  1.0000
  H   H6        1.0  0.87382  0.36440  0.12530  1.0000
  H   H7        1.0  0.37382  0.86441  0.37470  1.0000
  H   H8        1.0  0.12619  0.63560  0.87470  1.0000
  H   H9        1.0  0.77948  0.05152  0.60572  1.0000
  H   H10       1.0  0.72053  0.44847  0.10572  1.0000
  H   H11       1.0  0.22052  0.94848  0.39428  1.0000
  H   H12       1.0  0.27947  0.55152  0.89428  1.0000
  H   H13       1.0  0.76239  0.11894  0.72139  1.0000
  H   H14       1.0  0.73762  0.38105  0.22139  1.0000
  H   H15       1.0  0.23762  0.88105  0.27862  1.0000
  H   H16       1.0  0.26238  0.61894  0.77862  1.0000
  H   H17       1.0  0.43422  0.80688  0.65392  1.0000
  H   H18       1.0  0.06577  0.69312  0.15392  1.0000
  H   H19       1.0  0.56578  0.19312  0.34608  1.0000
  H   H20       1.0  0.93422  0.30688  0.84608  1.0000
  H   H21       1.0  0.61322  0.84428  0.58277  1.0000
  H   H22       1.0  0.88677  0.65572  0.08277  1.0000
  H   H23       1.0  0.38679  0.15572  0.41722  1.0000
  H   H24       1.0  0.11322  0.34428  0.91723  1.0000
  H   H25       1.0  0.44972  0.92169  0.56571  1.0000
  H   H26       1.0  0.05028  0.57832  0.06571  1.0000
  H   H27       1.0  0.55028  0.07831  0.43429  1.0000
  H   H28       1.0  0.94972  0.42168  0.93429  1.0000
  H   H29       1.0  0.16128  0.80455  0.99449  1.0000
  H   H30       1.0  0.33874  0.69545  0.49448  1.0000
  H   H31       1.0  0.83874  0.19544  0.00551  1.0000
  H   H32       1.0  0.66127  0.30456  0.50552  1.0000
  H   H33       1.0  0.01241  0.87948  0.94576  1.0000
  H   H34       1.0  0.48760  0.62052  0.44576  1.0000
  H   H35       1.0  0.98760  0.12051  0.05424  1.0000
  H   H36       1.0  0.51240  0.37948  0.55424  1.0000
  H   H37       1.0  0.10492  0.92308  0.06082  1.0000
  H   H38       1.0  0.39509  0.57692  0.56082  1.0000
  H   H39       1.0  0.89509  0.07692  0.93918  1.0000
  H   H40       1.0  0.60491  0.42308  0.43918  1.0000
  H   H41       1.0  0.23633  0.05339  0.93701  1.0000
  H   H42       1.0  0.26367  0.44661  0.43701  1.0000
  H   H43       1.0  0.76368  0.94660  0.06299  1.0000
  H   H44       1.0  0.73631  0.55340  0.56299  1.0000
  C   C1        1.0  0.39969  0.24169  0.97946  1.0000
  C   C2        1.0  0.10031  0.25831  0.47946  1.0000
  C   C3        1.0  0.60031  0.75832  0.02054  1.0000
  C   C4        1.0  0.89966  0.74169  0.52055  1.0000
  C   C5        1.0  0.44743  0.37603  0.98919  1.0000
  C   C6        1.0  0.05257  0.12397  0.48919  1.0000
  C   C7        1.0  0.55257  0.62397  0.01081  1.0000
  C   C8        1.0  0.94743  0.87603  0.51082  1.0000
  C   C9        1.0  0.53926  0.44366  0.91641  1.0000
  C   C10       1.0  0.96074  0.05634  0.41641  1.0000
  C   C11       1.0  0.46074  0.55634  0.08359  1.0000
  C   C12       1.0  0.03926  0.94366  0.58360  1.0000
  C   C13       1.0  0.59303  0.56676  0.92710  1.0000
  C   C14       1.0  0.90698  0.93324  0.42710  1.0000
  C   C15       1.0  0.40698  0.43324  0.07290  1.0000
  C   C16       1.0  0.09302  0.06677  0.57290  1.0000
  C   C17       1.0  0.54601  0.95156  0.78572  1.0000
  C   C18       1.0  0.95399  0.54845  0.28572  1.0000
  C   C19       1.0  0.45400  0.04845  0.21429  1.0000
  C   C20       1.0  0.04601  0.45155  0.71429  1.0000
  C   C21       1.0  0.69515  0.07464  0.65929  1.0000
  C   C22       1.0  0.80486  0.42536  0.15929  1.0000
  C   C23       1.0  0.30486  0.92536  0.34072  1.0000
  C   C24       1.0  0.19514  0.57463  0.84072  1.0000
  C   C25       1.0  0.51787  0.88038  0.61927  1.0000
  C   C26       1.0  0.98212  0.61962  0.11928  1.0000
  C   C27       1.0  0.48213  0.11962  0.38072  1.0000
  C   C28       1.0  0.01787  0.38037  0.88073  1.0000
  C   C29       1.0  0.12520  0.89075  0.98774  1.0000
  C   C30       1.0  0.37481  0.60925  0.48774  1.0000
  C   C31       1.0  0.87481  0.10925  0.01226  1.0000
  C   C32       1.0  0.62519  0.39075  0.51226  1.0000
  I   I1        1.0  0.58429  0.35751  0.78748  1.0000
  I   I2        1.0  0.91572  0.14249  0.28748  1.0000
  I   I3        1.0  0.41570  0.64249  0.21251  1.0000
  I   I4        1.0  0.08429  0.85751  0.71252  1.0000
  I   I5        1.0  0.73628  0.66988  0.81998  1.0000
  I   I6        1.0  0.76371  0.83012  0.31998  1.0000
  I   I7        1.0  0.26374  0.33012  0.18003  1.0000
  I   I8        1.0  0.23628  0.16988  0.68002  1.0000
  N   N1        1.0  0.58663  0.96728  0.69227  1.0000
  N   N2        1.0  0.91336  0.53271  0.19228  1.0000
  N   N3        1.0  0.41338  0.03271  0.30772  1.0000
  N   N4        1.0  0.08663  0.46728  0.80773  1.0000
  O   O1        1.0  0.50558  0.18612  0.01071  1.0000
  O   O2        1.0  0.99442  0.31388  0.51070  1.0000
  O   O3        1.0  0.49442  0.81388  0.98929  1.0000
  O   O4        1.0  0.00556  0.68611  0.48931  1.0000
  O   O5        1.0  0.26427  0.19833  0.94216  1.0000
  O   O6        1.0  0.23574  0.30167  0.44216  1.0000
  O   O7        1.0  0.73574  0.80167  0.05783  1.0000
  O   O8        1.0  0.76424  0.69834  0.55783  1.0000
  O   O9        1.0  0.25477  0.96894  0.93902  1.0000
  O   O10       1.0  0.24523  0.53106  0.43902  1.0000
  O   O11       1.0  0.74524  0.03106  0.06098  1.0000
  O   O12       1.0  0.75476  0.46895  0.56098  1.0000
  O   O13       1.0  0.59819  0.02463  0.85153  1.0000
  O   O14       1.0  0.90182  0.47537  0.35154  1.0000
  O   O15       1.0  0.40182  0.97536  0.14847  1.0000
  O   O16       1.0  0.09818  0.52463  0.64847  1.0000
