data_image0
_chemical_formula_structural       Zn2H44C32I8N4O16
_chemical_formula_sum              "Zn2 H44 C32 I8 N4 O16"
_cell_length_a       8.52585
_cell_length_b       11.3799
_cell_length_c       13.662
_cell_angle_alpha    90
_cell_angle_beta     90
_cell_angle_gamma    99.8805

_space_group_name_H-M_alt    "P 1"
_space_group_IT_number       1

loop_
  _space_group_symop_operation_xyz
  'x, y, z'

loop_
  _atom_site_type_symbol
  _atom_site_label
  _atom_site_symmetry_multiplicity
  _atom_site_fract_x
  _atom_site_fract_y
  _atom_site_fract_z
  _atom_site_occupancy
  Zn  Zn1       1.0  1.00000  0.50000  0.50000  1.0000
  Zn  Zn2       1.0  0.50000  0.00000  1.00000  1.0000
  H   H1        1.0  0.68532  0.31355  0.51233  1.0000
  H   H2        1.0  0.81467  0.18645  0.01233  1.0000
  H   H3        1.0  0.31467  0.68645  0.48768  1.0000
  H   H4        1.0  0.18532  0.81355  0.98767  1.0000
  H   H5        1.0  0.53143  0.37669  0.45273  1.0000
  H   H6        1.0  0.96857  0.12331  0.95273  1.0000
  H   H7        1.0  0.46857  0.62331  0.54727  1.0000
  H   H8        1.0  0.03143  0.87669  0.04727  1.0000
  H   H9        1.0  0.61753  0.43895  0.56532  1.0000
  H   H10       1.0  0.88247  0.06105  0.06532  1.0000
  H   H11       1.0  0.38247  0.56105  0.43468  1.0000
  H   H12       1.0  0.11753  0.93895  0.93468  1.0000
  H   H13       1.0  0.04152  0.63182  0.69492  1.0000
  H   H14       1.0  0.45848  0.86818  0.19492  1.0000
  H   H15       1.0  0.95848  0.36818  0.30508  1.0000
  H   H16       1.0  0.54152  0.13182  0.80507  1.0000
  H   H17       1.0  0.06329  0.58492  0.92950  1.0000
  H   H18       1.0  0.43672  0.91508  0.42950  1.0000
  H   H19       1.0  0.93671  0.41508  0.07050  1.0000
  H   H20       1.0  0.56329  0.08492  0.57050  1.0000
  H   H21       1.0  0.88997  0.65546  0.92016  1.0000
  H   H22       1.0  0.61003  0.84454  0.42016  1.0000
  H   H23       1.0  0.11003  0.34454  0.07984  1.0000
  H   H24       1.0  0.38997  0.15546  0.57983  1.0000
  H   H25       1.0  0.05611  0.70032  0.84210  1.0000
  H   H26       1.0  0.44389  0.79968  0.34210  1.0000
  H   H27       1.0  0.94389  0.29968  0.15790  1.0000
  H   H28       1.0  0.55611  0.20032  0.65790  1.0000
  H   H29       1.0  0.75811  0.37981  0.77817  1.0000
  H   H30       1.0  0.74189  0.12019  0.27817  1.0000
  H   H31       1.0  0.24189  0.62019  0.22183  1.0000
  H   H32       1.0  0.25811  0.87981  0.72183  1.0000
  H   H33       1.0  0.71947  0.45702  0.88759  1.0000
  H   H34       1.0  0.78054  0.04298  0.38758  1.0000
  H   H35       1.0  0.28053  0.54298  0.11242  1.0000
  H   H36       1.0  0.21947  0.95702  0.61241  1.0000
  H   H37       1.0  0.87900  0.37387  0.88479  1.0000
  H   H38       1.0  0.62101  0.12613  0.38479  1.0000
  H   H39       1.0  0.12100  0.62613  0.11521  1.0000
  H   H40       1.0  0.37900  0.87387  0.61521  1.0000
  H   H41       1.0  0.74547  0.55567  0.43777  1.0000
  H   H42       1.0  0.75453  0.94433  0.93777  1.0000
  H   H43       1.0  0.25453  0.44433  0.56223  1.0000
  H   H44       1.0  0.24547  0.05567  0.06223  1.0000
  C   C1        1.0  0.09715  0.25882  0.52025  1.0000
  C   C2        1.0  0.40285  0.24118  0.02025  1.0000
  C   C3        1.0  0.90285  0.74118  0.47975  1.0000
  C   C4        1.0  0.59715  0.75882  0.97975  1.0000
  C   C5        1.0  0.05073  0.12406  0.51058  1.0000
  C   C6        1.0  0.44928  0.37594  0.01058  1.0000
  C   C7        1.0  0.94928  0.87594  0.48942  1.0000
  C   C8        1.0  0.55072  0.62406  0.98942  1.0000
  C   C9        1.0  0.95999  0.05800  0.58407  1.0000
  C   C10       1.0  0.54001  0.44200  0.08407  1.0000
  C   C11       1.0  0.04001  0.94200  0.41593  1.0000
  C   C12       1.0  0.45999  0.55800  0.91593  1.0000
  C   C13       1.0  0.90772  0.93471  0.57346  1.0000
  C   C14       1.0  0.59228  0.56529  0.07346  1.0000
  C   C15       1.0  0.09228  0.06529  0.42654  1.0000
  C   C16       1.0  0.40772  0.43471  0.92654  1.0000
  C   C17       1.0  0.64178  0.39657  0.49591  1.0000
  C   C18       1.0  0.85822  0.10342  0.99591  1.0000
  C   C19       1.0  0.35822  0.60342  0.50409  1.0000
  C   C20       1.0  0.14178  0.89658  0.00409  1.0000
  C   C21       1.0  0.95921  0.54867  0.71201  1.0000
  C   C22       1.0  0.54079  0.95132  0.21202  1.0000
  C   C23       1.0  0.04079  0.45133  0.28799  1.0000
  C   C24       1.0  0.45921  0.04867  0.78798  1.0000
  C   C25       1.0  0.98522  0.62365  0.87904  1.0000
  C   C26       1.0  0.51478  0.87635  0.37904  1.0000
  C   C27       1.0  0.01478  0.37635  0.12096  1.0000
  C   C28       1.0  0.48522  0.12364  0.62096  1.0000
  C   C29       1.0  0.81246  0.43035  0.84133  1.0000
  C   C30       1.0  0.68755  0.06965  0.34132  1.0000
  C   C31       1.0  0.18754  0.56965  0.15867  1.0000
  C   C32       1.0  0.31246  0.93035  0.65867  1.0000
  I   I1        1.0  0.91376  0.14657  0.71342  1.0000
  I   I2        1.0  0.58624  0.35344  0.21343  1.0000
  I   I3        1.0  0.08624  0.85343  0.28657  1.0000
  I   I4        1.0  0.41376  0.64656  0.78657  1.0000
  I   I5        1.0  0.76422  0.83426  0.68061  1.0000
  I   I6        1.0  0.73578  0.66574  0.18061  1.0000
  I   I7        1.0  0.23578  0.16574  0.31939  1.0000
  I   I8        1.0  0.26422  0.33426  0.81939  1.0000
  N   N1        1.0  0.91837  0.53578  0.80647  1.0000
  N   N2        1.0  0.58163  0.96423  0.30647  1.0000
  N   N3        1.0  0.08163  0.46423  0.19353  1.0000
  N   N4        1.0  0.41837  0.03577  0.69352  1.0000
  O   O1        1.0  0.99206  0.31608  0.48829  1.0000
  O   O2        1.0  0.50795  0.18392  0.98829  1.0000
  O   O3        1.0  0.00795  0.68392  0.51171  1.0000
  O   O4        1.0  0.49205  0.81608  0.01171  1.0000
  O   O5        1.0  0.23027  0.29973  0.55800  1.0000
  O   O6        1.0  0.26973  0.20027  0.05800  1.0000
  O   O7        1.0  0.76973  0.70027  0.44200  1.0000
  O   O8        1.0  0.73027  0.79973  0.94200  1.0000
  O   O9        1.0  0.76466  0.47036  0.44105  1.0000
  O   O10       1.0  0.73533  0.02964  0.94105  1.0000
  O   O11       1.0  0.23533  0.52964  0.55895  1.0000
  O   O12       1.0  0.26466  0.97036  0.05895  1.0000
  O   O13       1.0  0.90903  0.47405  0.64673  1.0000
  O   O14       1.0  0.59098  0.02595  0.14673  1.0000
  O   O15       1.0  0.09097  0.52596  0.35327  1.0000
  O   O16       1.0  0.40903  0.97405  0.85326  1.0000
