data_image0
_chemical_formula_structural       ZnH18C20I8O12
_chemical_formula_sum              "Zn1 H18 C20 I8 O12"
_cell_length_a       9.61127
_cell_length_b       10.5912
_cell_length_c       10.0521
_cell_angle_alpha    103.087
_cell_angle_beta     98.377
_cell_angle_gamma    112.718

_space_group_name_H-M_alt    "P 1"
_space_group_IT_number       1

loop_
  _space_group_symop_operation_xyz
  'x, y, z'

loop_
  _atom_site_type_symbol
  _atom_site_label
  _atom_site_symmetry_multiplicity
  _atom_site_fract_x
  _atom_site_fract_y
  _atom_site_fract_z
  _atom_site_occupancy
  Zn  Zn1       1.0  0.50000  0.50000  0.50000  1.0000
  H   H1        1.0  0.85103  0.50071  0.56713  1.0000
  H   H2        1.0  0.14897  0.49931  0.43287  1.0000
  H   H3        1.0  0.82574  0.34514  0.43227  1.0000
  H   H4        1.0  0.17426  0.65489  0.56774  1.0000
  H   H5        1.0  0.75721  0.32501  0.58635  1.0000
  H   H6        1.0  0.24280  0.67502  0.41365  1.0000
  H   H7        1.0  0.27187  0.53338  0.19613  1.0000
  H   H8        1.0  0.72815  0.46664  0.80385  1.0000
  H   H9        1.0  0.35969  0.45043  0.07995  1.0000
  H   H10       1.0  0.64033  0.54959  0.92004  1.0000
  H   H11       1.0  0.47957  0.60647  0.22894  1.0000
  H   H12       1.0  0.52044  0.39354  0.77105  1.0000
  H   H13       1.0  0.54462  0.27784  0.40681  1.0000
  H   H14       1.0  0.45538  0.72217  0.59320  1.0000
  H   H15       1.0  0.27913  0.33665  0.25765  1.0000
  H   H16       1.0  0.72087  0.66338  0.74234  1.0000
  H   H17       1.0  0.28999  0.96702  0.30682  1.0000
  H   H18       1.0  0.71002  0.03296  0.69318  1.0000
  C   C1        1.0  0.28981  0.18384  0.45206  1.0000
  C   C2        1.0  0.71020  0.81616  0.54795  1.0000
  C   C3        1.0  0.13901  0.08159  0.47134  1.0000
  C   C4        1.0  0.86102  0.91839  0.52865  1.0000
  C   C5        1.0  0.14310  0.01699  0.57851  1.0000
  C   C6        1.0  0.85691  0.98298  0.42149  1.0000
  C   C7        1.0  0.99635  0.06437  0.39194  1.0000
  C   C8        1.0  0.00369  0.93562  0.60806  1.0000
  C   C9        1.0  0.77304  0.38700  0.51103  1.0000
  C   C10       1.0  0.22696  0.61303  0.48898  1.0000
  C   C11       1.0  0.37104  0.50693  0.18998  1.0000
  C   C12       1.0  0.62897  0.49309  0.81001  1.0000
  C   C13       1.0  0.13647  0.80753  0.14657  1.0000
  C   C14       1.0  0.86351  0.19246  0.85343  1.0000
  C   C15       1.0  0.06996  0.64731  0.07583  1.0000
  C   C16       1.0  0.93002  0.35268  0.92417  1.0000
  C   C17       1.0  0.93834  0.55289  0.10690  1.0000
  C   C18       1.0  0.06163  0.44712  0.89311  1.0000
  C   C19       1.0  0.86811  0.40545  0.03007  1.0000
  C   C20       1.0  0.13185  0.59452  0.96992  1.0000
  I   I1        1.0  0.36227  0.05378  0.69707  1.0000
  I   I2        1.0  0.63774  0.94623  0.30296  1.0000
  I   I3        1.0  0.99109  0.14930  0.22193  1.0000
  I   I4        1.0  0.00891  0.85070  0.77808  1.0000
  I   I5        1.0  0.84941  0.63329  0.26761  1.0000
  I   I6        1.0  0.15055  0.36669  0.73238  1.0000
  I   I7        1.0  0.66371  0.26153  0.06595  1.0000
  I   I8        1.0  0.33626  0.73846  0.93405  1.0000
  O   O1        1.0  0.32885  0.31562  0.51674  1.0000
  O   O2        1.0  0.67115  0.68436  0.48323  1.0000
  O   O3        1.0  0.36432  0.13587  0.37678  1.0000
  O   O4        1.0  0.63573  0.86411  0.62322  1.0000
  O   O5        1.0  0.62695  0.37912  0.44084  1.0000
  O   O6        1.0  0.37304  0.62089  0.55916  1.0000
  O   O7        1.0  0.38109  0.41975  0.27900  1.0000
  O   O8        1.0  0.61891  0.58027  0.72099  1.0000
  O   O9        1.0  0.08749  0.88067  0.09323  1.0000
  O   O10       1.0  0.91248  0.11932  0.90680  1.0000
  O   O11       1.0  0.24850  0.85697  0.26537  1.0000
  O   O12       1.0  0.75149  0.14302  0.73464  1.0000
