data_image0
_chemical_formula_structural       Cd4H40C64N8O20
_chemical_formula_sum              "Cd4 H40 C64 N8 O20"
_cell_length_a       7.77709
_cell_length_b       9.18885
_cell_length_c       19.728
_cell_angle_alpha    90
_cell_angle_beta     90.1206
_cell_angle_gamma    90

_space_group_name_H-M_alt    "P 1"
_space_group_IT_number       1

loop_
  _space_group_symop_operation_xyz
  'x, y, z'

loop_
  _atom_site_type_symbol
  _atom_site_label
  _atom_site_symmetry_multiplicity
  _atom_site_fract_x
  _atom_site_fract_y
  _atom_site_fract_z
  _atom_site_occupancy
  Cd  Cd1       1.0  0.15348  0.03948  0.92526  1.0000
  Cd  Cd2       1.0  0.84652  0.53948  0.07474  1.0000
  Cd  Cd3       1.0  0.65420  0.65149  0.57465  1.0000
  Cd  Cd4       1.0  0.34580  0.15149  0.42535  1.0000
  H   H1        1.0  0.04866  0.22370  0.02854  1.0000
  H   H2        1.0  0.95134  0.72371  0.97146  1.0000
  H   H3        1.0  0.25444  0.24129  0.01820  1.0000
  H   H4        1.0  0.74556  0.74130  0.98180  1.0000
  H   H5        1.0  0.05768  0.40120  0.93058  1.0000
  H   H6        1.0  0.94232  0.90119  0.06942  1.0000
  H   H7        1.0  0.95622  0.59781  0.85318  1.0000
  H   H8        1.0  0.04379  0.09781  0.14682  1.0000
  H   H9        1.0  0.93043  0.54301  0.72776  1.0000
  H   H10       1.0  0.06957  0.04301  0.27224  1.0000
  H   H11       1.0  0.93996  0.36045  0.63520  1.0000
  H   H12       1.0  0.06004  0.86045  0.36480  1.0000
  H   H13       1.0  0.01633  0.11350  0.59536  1.0000
  H   H14       1.0  0.98367  0.61351  0.40464  1.0000
  H   H15       1.0  0.12165  0.86093  0.62133  1.0000
  H   H16       1.0  0.87836  0.36093  0.37867  1.0000
  H   H17       1.0  0.22038  0.68119  0.70739  1.0000
  H   H18       1.0  0.77963  0.18119  0.29261  1.0000
  H   H19       1.0  0.22331  0.75395  0.83062  1.0000
  H   H20       1.0  0.77670  0.25394  0.16938  1.0000
  H   H21       1.0  0.54818  0.46748  0.47139  1.0000
  H   H22       1.0  0.45182  0.96748  0.52861  1.0000
  H   H23       1.0  0.75408  0.44988  0.48176  1.0000
  H   H24       1.0  0.24592  0.94988  0.51824  1.0000
  H   H25       1.0  0.72434  0.93674  0.66948  1.0000
  H   H26       1.0  0.27566  0.43674  0.33052  1.0000
  H   H27       1.0  0.71981  0.00970  0.79268  1.0000
  H   H28       1.0  0.28020  0.50971  0.20732  1.0000
  H   H29       1.0  0.61996  0.83003  0.87841  1.0000
  H   H30       1.0  0.38004  0.33003  0.12159  1.0000
  H   H31       1.0  0.51438  0.57766  0.90406  1.0000
  H   H32       1.0  0.48561  0.07766  0.09594  1.0000
  H   H33       1.0  0.43844  0.33059  0.86406  1.0000
  H   H34       1.0  0.56155  0.83059  0.13594  1.0000
  H   H35       1.0  0.42961  0.14797  0.77167  1.0000
  H   H36       1.0  0.57038  0.64796  0.22833  1.0000
  H   H37       1.0  0.45669  0.09263  0.64638  1.0000
  H   H38       1.0  0.54330  0.59263  0.35361  1.0000
  H   H39       1.0  0.55929  0.28885  0.56916  1.0000
  H   H40       1.0  0.44071  0.78885  0.43084  1.0000
  C   C1        1.0  0.09351  0.06525  0.76615  1.0000
  C   C2        1.0  0.90649  0.56526  0.23385  1.0000
  C   C3        1.0  0.05522  0.21174  0.78899  1.0000
  C   C4        1.0  0.94478  0.71173  0.21102  1.0000
  C   C5        1.0  0.04038  0.37978  0.87657  1.0000
  C   C6        1.0  0.95962  0.87978  0.12343  1.0000
  C   C7        1.0  0.98529  0.49076  0.83249  1.0000
  C   C8        1.0  0.01471  0.99075  0.16751  1.0000
  C   C9        1.0  0.96827  0.45973  0.76426  1.0000
  C   C10       1.0  0.03173  0.95972  0.23574  1.0000
  C   C11       1.0  0.00191  0.31736  0.74059  1.0000
  C   C12       1.0  0.99810  0.81736  0.25941  1.0000
  C   C13       1.0  0.98524  0.27814  0.67067  1.0000
  C   C14       1.0  0.01476  0.77814  0.32934  1.0000
  C   C15       1.0  0.02586  0.14140  0.64894  1.0000
  C   C16       1.0  0.97413  0.64140  0.35106  1.0000
  C   C17       1.0  0.08269  0.03233  0.69575  1.0000
  C   C18       1.0  0.91731  0.53233  0.30425  1.0000
  C   C19       1.0  0.12937  0.89071  0.67472  1.0000
  C   C20       1.0  0.87064  0.39072  0.32528  1.0000
  C   C21       1.0  0.18249  0.79038  0.72256  1.0000
  C   C22       1.0  0.81751  0.29038  0.27744  1.0000
  C   C23       1.0  0.18513  0.83074  0.79114  1.0000
  C   C24       1.0  0.81488  0.33073  0.20886  1.0000
  C   C25       1.0  0.74335  0.10346  0.95098  1.0000
  C   C26       1.0  0.25665  0.60346  0.04902  1.0000
  C   C27       1.0  0.55684  0.12157  0.93772  1.0000
  C   C28       1.0  0.44316  0.62158  0.06228  1.0000
  C   C29       1.0  0.55195  0.24693  0.98474  1.0000
  C   C30       1.0  0.44805  0.74693  0.01525  1.0000
  C   C31       1.0  0.73807  0.23195  0.99635  1.0000
  C   C32       1.0  0.26194  0.73196  0.00364  1.0000
  C   C33       1.0  0.55594  0.47884  0.71064  1.0000
  C   C34       1.0  0.44405  0.97884  0.28936  1.0000
  C   C35       1.0  0.59405  0.62537  0.73355  1.0000
  C   C36       1.0  0.40595  0.12537  0.26645  1.0000
  C   C37       1.0  0.68578  0.85998  0.70883  1.0000
  C   C38       1.0  0.31423  0.35998  0.29117  1.0000
  C   C39       1.0  0.68217  0.90047  0.77739  1.0000
  C   C40       1.0  0.31783  0.40047  0.22261  1.0000
  C   C41       1.0  0.62842  0.80015  0.82505  1.0000
  C   C42       1.0  0.37158  0.30015  0.17495  1.0000
  C   C43       1.0  0.58222  0.65847  0.80389  1.0000
  C   C44       1.0  0.41778  0.15847  0.19611  1.0000
  C   C45       1.0  0.52468  0.54956  0.85055  1.0000
  C   C46       1.0  0.47531  0.04957  0.14945  1.0000
  C   C47       1.0  0.48428  0.41279  0.82873  1.0000
  C   C48       1.0  0.51571  0.91280  0.17127  1.0000
  C   C49       1.0  0.50190  0.37340  0.75891  1.0000
  C   C50       1.0  0.49809  0.87340  0.24109  1.0000
  C   C51       1.0  0.46818  0.23099  0.73523  1.0000
  C   C52       1.0  0.53181  0.73099  0.26477  1.0000
  C   C53       1.0  0.48588  0.19972  0.66708  1.0000
  C   C54       1.0  0.51411  0.69972  0.33292  1.0000
  C   C55       1.0  0.54164  0.31051  0.62312  1.0000
  C   C56       1.0  0.45836  0.81051  0.37688  1.0000
  C   C57       1.0  0.24380  0.58844  0.54865  1.0000
  C   C58       1.0  0.75620  0.08844  0.45135  1.0000
  C   C59       1.0  0.23797  0.45977  0.50337  1.0000
  C   C60       1.0  0.76203  0.95977  0.49663  1.0000
  C   C61       1.0  0.05204  0.44481  0.51506  1.0000
  C   C62       1.0  0.94796  0.94481  0.48493  1.0000
  C   C63       1.0  0.05743  0.57039  0.56194  1.0000
  C   C64       1.0  0.94257  0.07039  0.43806  1.0000
  N   N1        1.0  0.14178  0.96338  0.81213  1.0000
  N   N2        1.0  0.85822  0.46338  0.18787  1.0000
  N   N3        1.0  0.07490  0.24539  0.85551  1.0000
  N   N4        1.0  0.92510  0.74539  0.14449  1.0000
  N   N5        1.0  0.57626  0.44499  0.64419  1.0000
  N   N6        1.0  0.42374  0.94499  0.35581  1.0000
  N   N7        1.0  0.64287  0.72722  0.68772  1.0000
  N   N8        1.0  0.35713  0.22722  0.31228  1.0000
  O   O1        1.0  0.15896  0.16786  0.02432  1.0000
  O   O2        1.0  0.84104  0.66786  0.97568  1.0000
  O   O3        1.0  0.85481  0.01344  0.93168  1.0000
  O   O4        1.0  0.14519  0.51344  0.06832  1.0000
  O   O5        1.0  0.44690  0.06071  0.90037  1.0000
  O   O6        1.0  0.55310  0.56071  0.09963  1.0000
  O   O7        1.0  0.43374  0.32864  0.00564  1.0000
  O   O8        1.0  0.56627  0.82865  0.99437  1.0000
  O   O9        1.0  0.85081  0.29919  0.03166  1.0000
  O   O10       1.0  0.14920  0.79919  0.96834  1.0000
  O   O11       1.0  0.65856  0.52331  0.47560  1.0000
  O   O12       1.0  0.34144  0.02331  0.52440  1.0000
  O   O13       1.0  0.35551  0.67841  0.56792  1.0000
  O   O14       1.0  0.64449  0.17841  0.43208  1.0000
  O   O15       1.0  0.35038  0.39225  0.46821  1.0000
  O   O16       1.0  0.64962  0.89226  0.53179  1.0000
  O   O17       1.0  0.93362  0.36281  0.49441  1.0000
  O   O18       1.0  0.06638  0.86281  0.50559  1.0000
  O   O19       1.0  0.94783  0.63113  0.59933  1.0000
  O   O20       1.0  0.05217  0.13114  0.40067  1.0000
