data_image0
_chemical_formula_structural       Zn2H16C12N4O14
_chemical_formula_sum              "Zn2 H16 C12 N4 O14"
_cell_length_a       7.26431
_cell_length_b       8.13752
_cell_length_c       9.80764
_cell_angle_alpha    65.488
_cell_angle_beta     78.2119
_cell_angle_gamma    60.5248

_space_group_name_H-M_alt    "P 1"
_space_group_IT_number       1

loop_
  _space_group_symop_operation_xyz
  'x, y, z'

loop_
  _atom_site_type_symbol
  _atom_site_label
  _atom_site_symmetry_multiplicity
  _atom_site_fract_x
  _atom_site_fract_y
  _atom_site_fract_z
  _atom_site_occupancy
  Zn  Zn1       1.0  0.07940  0.00449  0.22754  1.0000
  Zn  Zn2       1.0  0.57947  0.23210  0.77257  1.0000
  H   H1        1.0  0.88181  0.37373  0.00746  1.0000
  H   H2        1.0  0.38144  0.38077  0.99269  1.0000
  H   H3        1.0  0.11316  0.29547  0.94009  1.0000
  H   H4        1.0  0.61294  0.23594  0.05980  1.0000
  H   H5        1.0  0.96427  0.80259  0.13700  1.0000
  H   H6        1.0  0.46439  0.93955  0.86297  1.0000
  H   H7        1.0  0.15999  0.83190  0.04152  1.0000
  H   H8        1.0  0.66007  0.87332  0.95845  1.0000
  H   H9        1.0  0.69161  0.03699  0.30151  1.0000
  H   H10       1.0  0.19184  0.33830  0.69838  1.0000
  H   H11       1.0  0.66906  0.26075  0.25898  1.0000
  H   H12       1.0  0.16914  0.51951  0.74103  1.0000
  H   H13       1.0  0.15549  0.52293  0.38873  1.0000
  H   H14       1.0  0.65532  0.91221  0.61099  1.0000
  H   H15       1.0  0.10624  0.40808  0.19953  1.0000
  H   H16       1.0  0.60638  0.60808  0.80043  1.0000
  C   C1        1.0  0.08701  0.84779  0.55665  1.0000
  C   C2        1.0  0.58700  0.40461  0.44352  1.0000
  C   C3        1.0  0.09064  0.04724  0.51276  1.0000
  C   C4        1.0  0.59069  0.56020  0.48733  1.0000
  C   C5        1.0  0.10137  0.11847  0.61759  1.0000
  C   C6        1.0  0.60137  0.73623  0.38240  1.0000
  C   C7        1.0  0.07908  0.02305  0.78560  1.0000
  C   C8        1.0  0.57907  0.80867  0.21441  1.0000
  C   C9        1.0  0.13444  0.38742  0.42374  1.0000
  C   C10       1.0  0.63433  0.81162  0.57612  1.0000
  C   C11       1.0  0.11220  0.32261  0.31952  1.0000
  C   C12       1.0  0.61229  0.64252  0.68043  1.0000
  N   N1        1.0  0.09390  0.15195  0.36538  1.0000
  N   N2        1.0  0.59404  0.51758  0.63469  1.0000
  N   N3        1.0  0.12734  0.28622  0.57108  1.0000
  N   N4        1.0  0.62723  0.85762  0.42879  1.0000
  O   O1        1.0  0.09273  0.79305  0.45093  1.0000
  O   O2        1.0  0.59287  0.24412  0.54926  1.0000
  O   O3        1.0  0.08612  0.74873  0.69525  1.0000
  O   O4        1.0  0.58594  0.44414  0.30494  1.0000
  O   O5        1.0  0.89404  0.08024  0.83872  1.0000
  O   O6        1.0  0.39406  0.91889  0.16135  1.0000
  O   O7        1.0  0.24635  0.90550  0.86353  1.0000
  O   O8        1.0  0.74637  0.76893  0.13647  1.0000
  O   O9        1.0  0.02949  0.28408  0.03605  1.0000
  O   O10       1.0  0.52914  0.32035  0.96393  1.0000
  O   O11       1.0  0.09981  0.79969  0.14557  1.0000
  O   O12       1.0  0.59996  0.94518  0.85442  1.0000
  O   O13       1.0  0.73552  0.14098  0.22318  1.0000
  O   O14       1.0  0.23570  0.36392  0.77672  1.0000
