data_image0
_chemical_formula_structural       Sr2P4H24C28O20
_chemical_formula_sum              "Sr2 P4 H24 C28 O20"
_cell_length_a       5.51549
_cell_length_b       7.80092
_cell_length_c       19.6807
_cell_angle_alpha    101.444
_cell_angle_beta     98.7523
_cell_angle_gamma    90.0129

_space_group_name_H-M_alt    "P 1"
_space_group_IT_number       1

loop_
  _space_group_symop_operation_xyz
  'x, y, z'

loop_
  _atom_site_type_symbol
  _atom_site_label
  _atom_site_symmetry_multiplicity
  _atom_site_fract_x
  _atom_site_fract_y
  _atom_site_fract_z
  _atom_site_occupancy
  Sr  Sr1       1.0  0.25002  0.82550  0.00002  1.0000
  Sr  Sr2       1.0  0.74998  0.17450  0.99998  1.0000
  P   P1        1.0  0.76731  0.80161  0.10625  1.0000
  P   P2        1.0  0.73265  0.69533  0.89384  1.0000
  P   P3        1.0  0.23269  0.19839  0.89375  1.0000
  P   P4        1.0  0.26735  0.30467  0.10616  1.0000
  H   H1        1.0  0.56855  0.52699  0.08553  1.0000
  H   H2        1.0  0.93132  0.44130  0.91440  1.0000
  H   H3        1.0  0.43144  0.47301  0.91447  1.0000
  H   H4        1.0  0.06868  0.55869  0.08560  1.0000
  H   H5        1.0  0.68271  0.92266  0.50410  1.0000
  H   H6        1.0  0.81773  0.41802  0.49603  1.0000
  H   H7        1.0  0.31734  0.07735  0.49590  1.0000
  H   H8        1.0  0.18222  0.58199  0.50396  1.0000
  H   H9        1.0  0.05783  0.72466  0.23642  1.0000
  H   H10       1.0  0.44205  0.48842  0.76368  1.0000
  H   H11       1.0  0.94220  0.27535  0.76358  1.0000
  H   H12       1.0  0.55795  0.51157  0.23632  1.0000
  H   H13       1.0  0.98268  0.79131  0.36054  1.0000
  H   H14       1.0  0.51730  0.43057  0.63958  1.0000
  H   H15       1.0  0.01735  0.20870  0.63946  1.0000
  H   H16       1.0  0.48268  0.56943  0.36042  1.0000
  H   H17       1.0  0.32200  0.05165  0.29894  1.0000
  H   H18       1.0  0.17805  0.75279  0.70119  1.0000
  H   H19       1.0  0.67801  0.94834  0.70107  1.0000
  H   H20       1.0  0.82192  0.24721  0.29880  1.0000
  H   H21       1.0  0.39500  0.98692  0.17484  1.0000
  H   H22       1.0  0.10495  0.81245  0.82527  1.0000
  H   H23       1.0  0.60500  0.01307  0.82516  1.0000
  H   H24       1.0  0.89505  0.18754  0.17473  1.0000
  C   C1        1.0  0.73044  0.85020  0.19752  1.0000
  C   C2        1.0  0.76951  0.65285  0.80258  1.0000
  C   C3        1.0  0.26957  0.14979  0.80248  1.0000
  C   C4        1.0  0.23049  0.34714  0.19742  1.0000
  C   C5        1.0  0.89569  0.79519  0.24992  1.0000
  C   C6        1.0  0.60426  0.54536  0.75017  1.0000
  C   C7        1.0  0.10433  0.20482  0.75008  1.0000
  C   C8        1.0  0.39574  0.45463  0.24983  1.0000
  C   C9        1.0  0.85363  0.83176  0.31943  1.0000
  C   C10       1.0  0.64640  0.51222  0.68067  1.0000
  C   C11       1.0  0.14639  0.16825  0.68057  1.0000
  C   C12       1.0  0.35358  0.48777  0.31933  1.0000
  C   C13       1.0  0.64495  0.92273  0.33673  1.0000
  C   C14       1.0  0.85521  0.58582  0.66339  1.0000
  C   C15       1.0  0.35508  0.07727  0.66328  1.0000
  C   C16       1.0  0.14477  0.41417  0.33661  1.0000
  C   C17       1.0  0.48148  0.97950  0.28445  1.0000
  C   C18       1.0  0.01859  0.69505  0.71566  1.0000
  C   C19       1.0  0.51853  0.02050  0.71556  1.0000
  C   C20       1.0  0.98139  0.30494  0.28433  1.0000
  C   C21       1.0  0.52337  0.94325  0.21530  1.0000
  C   C22       1.0  0.97664  0.72814  0.78480  1.0000
  C   C23       1.0  0.47664  0.05674  0.78470  1.0000
  C   C24       1.0  0.02335  0.27186  0.21519  1.0000
  C   C25       1.0  0.58609  0.95881  0.40940  1.0000
  C   C26       1.0  0.91413  0.54919  0.59070  1.0000
  C   C27       1.0  0.41393  0.04119  0.59060  1.0000
  C   C28       1.0  0.08581  0.45081  0.40929  1.0000
  O   O1        1.0  0.02983  0.74675  0.09915  1.0000
  O   O2        1.0  0.47013  0.64753  0.90094  1.0000
  O   O3        1.0  0.97018  0.25325  0.90085  1.0000
  O   O4        1.0  0.52987  0.35248  0.09906  1.0000
  O   O5        1.0  0.67347  0.95138  0.07178  1.0000
  O   O6        1.0  0.82662  0.87956  0.92840  1.0000
  O   O7        1.0  0.32654  0.04862  0.92823  1.0000
  O   O8        1.0  0.17339  0.12044  0.07160  1.0000
  O   O9        1.0  0.57411  0.64621  0.06917  1.0000
  O   O10       1.0  0.92575  0.57690  0.93082  1.0000
  O   O11       1.0  0.42589  0.35379  0.93083  1.0000
  O   O12       1.0  0.07425  0.42310  0.06918  1.0000
  O   O13       1.0  0.39972  0.04105  0.42331  1.0000
  O   O14       1.0  0.10009  0.61799  0.57674  1.0000
  O   O15       1.0  0.60030  0.95891  0.57669  1.0000
  O   O16       1.0  0.89987  0.38203  0.42325  1.0000
  O   O17       1.0  0.73994  0.89459  0.45547  1.0000
  O   O18       1.0  0.76072  0.43837  0.54466  1.0000
  O   O19       1.0  0.26013  0.10544  0.54453  1.0000
  O   O20       1.0  0.23925  0.56164  0.45534  1.0000
