data_image0
_chemical_formula_structural       K2H16C24N10O8
_chemical_formula_sum              "K2 H16 C24 N10 O8"
_cell_length_a       7.60055
_cell_length_b       9.30812
_cell_length_c       9.78455
_cell_angle_alpha    82.0405
_cell_angle_beta     81.2139
_cell_angle_gamma    81.4915

_space_group_name_H-M_alt    "P 1"
_space_group_IT_number       1

loop_
  _space_group_symop_operation_xyz
  'x, y, z'

loop_
  _atom_site_type_symbol
  _atom_site_label
  _atom_site_symmetry_multiplicity
  _atom_site_fract_x
  _atom_site_fract_y
  _atom_site_fract_z
  _atom_site_occupancy
  K   K1        1.0  0.27012  0.57635  0.96366  1.0000
  K   K2        1.0  0.72986  0.42363  0.03633  1.0000
  H   H1        1.0  0.18344  0.07791  0.09993  1.0000
  H   H2        1.0  0.81657  0.92209  0.90007  1.0000
  H   H3        1.0  0.11332  0.90396  0.95198  1.0000
  H   H4        1.0  0.88669  0.09604  0.04802  1.0000
  H   H5        1.0  0.49794  0.06368  0.61500  1.0000
  H   H6        1.0  0.50205  0.93632  0.38500  1.0000
  H   H7        1.0  0.57542  0.23352  0.76671  1.0000
  H   H8        1.0  0.42457  0.76648  0.23328  1.0000
  H   H9        1.0  0.39922  0.54222  0.38978  1.0000
  H   H10       1.0  0.60079  0.45778  0.61022  1.0000
  H   H11       1.0  0.23433  0.54946  0.62956  1.0000
  H   H12       1.0  0.76568  0.45055  0.37044  1.0000
  H   H13       1.0  0.99450  0.16837  0.58601  1.0000
  H   H14       1.0  0.00550  0.83163  0.41399  1.0000
  H   H15       1.0  0.16004  0.16101  0.34710  1.0000
  H   H16       1.0  0.83996  0.83899  0.65290  1.0000
  C   C1        1.0  0.38189  0.16961  0.94226  1.0000
  C   C2        1.0  0.61811  0.83038  0.05774  1.0000
  C   C3        1.0  0.25156  0.07416  0.99417  1.0000
  C   C4        1.0  0.74844  0.92584  0.00583  1.0000
  C   C5        1.0  0.21273  0.97742  0.91190  1.0000
  C   C6        1.0  0.78727  0.02257  0.08810  1.0000
  C   C7        1.0  0.30033  0.97534  0.77495  1.0000
  C   C8        1.0  0.69966  0.02467  0.22505  1.0000
  C   C9        1.0  0.43011  0.06817  0.72076  1.0000
  C   C10       1.0  0.56989  0.93184  0.27924  1.0000
  C   C11       1.0  0.47103  0.16343  0.80476  1.0000
  C   C12       1.0  0.52897  0.83657  0.19524  1.0000
  C   C13       1.0  0.29251  0.35067  0.35226  1.0000
  C   C14       1.0  0.70749  0.64933  0.64774  1.0000
  C   C15       1.0  0.31349  0.45894  0.43475  1.0000
  C   C16       1.0  0.68652  0.54106  0.56524  1.0000
  C   C17       1.0  0.22326  0.46268  0.56839  1.0000
  C   C18       1.0  0.77675  0.53732  0.43161  1.0000
  C   C19       1.0  0.10930  0.35643  0.62211  1.0000
  C   C20       1.0  0.89070  0.64358  0.37789  1.0000
  C   C21       1.0  0.08608  0.24748  0.54250  1.0000
  C   C22       1.0  0.91393  0.75252  0.45750  1.0000
  C   C23       1.0  0.17775  0.24374  0.41007  1.0000
  C   C24       1.0  0.82225  0.75626  0.58993  1.0000
  N   N1        1.0  0.25766  0.87346  0.69140  1.0000
  N   N2        1.0  0.74235  0.12654  0.30860  1.0000
  N   N3        1.0  0.01336  0.35912  0.75875  1.0000
  N   N4        1.0  0.98664  0.64088  0.24125  1.0000
  N   N5        1.0  0.42678  0.27152  0.01809  1.0000
  N   N6        1.0  0.57322  0.72847  0.98191  1.0000
  N   N7        1.0  0.34686  0.26035  0.14691  1.0000
  N   N8        1.0  0.65314  0.73965  0.85309  1.0000
  N   N9        1.0  0.38206  0.36047  0.21713  1.0000
  N   N10       1.0  0.61794  0.63952  0.78288  1.0000
  O   O1        1.0  0.16309  0.77606  0.74994  1.0000
  O   O2        1.0  0.83692  0.22393  0.25006  1.0000
  O   O3        1.0  0.31366  0.88360  0.56420  1.0000
  O   O4        1.0  0.68634  0.11640  0.43580  1.0000
  O   O5        1.0  0.04502  0.44814  0.83535  1.0000
  O   O6        1.0  0.95497  0.55186  0.16465  1.0000
  O   O7        1.0  0.89758  0.27377  0.80068  1.0000
  O   O8        1.0  0.10242  0.72623  0.19932  1.0000
