data_image0
_chemical_formula_structural       Cu2H24C26S4N4O8
_chemical_formula_sum              "Cu2 H24 C26 S4 N4 O8"
_cell_length_a       4.15844
_cell_length_b       8.52468
_cell_length_c       21.2082
_cell_angle_alpha    93.5188
_cell_angle_beta     90.082
_cell_angle_gamma    104.025

_space_group_name_H-M_alt    "P 1"
_space_group_IT_number       1

loop_
  _space_group_symop_operation_xyz
  'x, y, z'

loop_
  _atom_site_type_symbol
  _atom_site_label
  _atom_site_symmetry_multiplicity
  _atom_site_fract_x
  _atom_site_fract_y
  _atom_site_fract_z
  _atom_site_occupancy
  Cu  Cu1       1.0  0.50000  0.50000  0.50000  1.0000
  Cu  Cu2       1.0  1.00000  0.50000  0.00000  1.0000
  H   H1        1.0  0.39889  0.81553  0.46714  1.0000
  H   H2        1.0  0.58941  0.18402  0.03258  1.0000
  H   H3        1.0  0.60111  0.18448  0.53286  1.0000
  H   H4        1.0  0.41060  0.81598  0.96742  1.0000
  H   H5        1.0  0.33815  0.95074  0.37051  1.0000
  H   H6        1.0  0.39011  0.04955  0.12906  1.0000
  H   H7        1.0  0.66185  0.04927  0.62949  1.0000
  H   H8        1.0  0.60989  0.95045  0.87094  1.0000
  H   H9        1.0  0.62592  0.55190  0.26574  1.0000
  H   H10       1.0  0.06950  0.44948  0.23453  1.0000
  H   H11       1.0  0.37409  0.44811  0.73426  1.0000
  H   H12       1.0  0.93050  0.55051  0.76547  1.0000
  H   H13       1.0  0.66444  0.43229  0.36917  1.0000
  H   H14       1.0  0.22710  0.56956  0.13126  1.0000
  H   H15       1.0  0.33556  0.56772  0.63084  1.0000
  H   H16       1.0  0.77290  0.43044  0.86875  1.0000
  H   H17       1.0  0.09903  0.01118  0.20838  1.0000
  H   H18       1.0  0.08726  0.98916  0.29094  1.0000
  H   H19       1.0  0.90097  0.98882  0.79162  1.0000
  H   H20       1.0  0.91273  0.01084  0.70906  1.0000
  H   H21       1.0  0.80953  0.14956  0.42224  1.0000
  H   H22       1.0  0.65993  0.85156  0.07719  1.0000
  H   H23       1.0  0.19050  0.85044  0.57775  1.0000
  H   H24       1.0  0.34006  0.14844  0.92281  1.0000
  C   C1        1.0  0.44605  0.76133  0.42132  1.0000
  C   C2        1.0  0.68767  0.23880  0.07854  1.0000
  C   C3        1.0  0.55394  0.23868  0.57868  1.0000
  C   C4        1.0  0.31233  0.76120  0.92146  1.0000
  C   C5        1.0  0.41035  0.83566  0.36608  1.0000
  C   C6        1.0  0.57631  0.16470  0.13368  1.0000
  C   C7        1.0  0.58964  0.16434  0.63392  1.0000
  C   C8        1.0  0.42369  0.83530  0.86632  1.0000
  C   C9        1.0  0.46222  0.75791  0.30804  1.0000
  C   C10       1.0  0.70355  0.24262  0.19186  1.0000
  C   C11       1.0  0.53778  0.24210  0.69196  1.0000
  C   C12       1.0  0.29645  0.75738  0.80814  1.0000
  C   C13       1.0  0.56998  0.61366  0.30933  1.0000
  C   C14       1.0  0.95355  0.38733  0.19081  1.0000
  C   C15       1.0  0.43002  0.38635  0.69067  1.0000
  C   C16       1.0  0.04645  0.61267  0.80919  1.0000
  C   C17       1.0  0.59670  0.54738  0.36651  1.0000
  C   C18       1.0  0.04681  0.45380  0.13372  1.0000
  C   C19       1.0  0.40329  0.45263  0.63349  1.0000
  C   C20       1.0  0.95320  0.54620  0.86629  1.0000
  C   C21       1.0  0.24833  0.00017  0.24976  1.0000
  C   C22       1.0  0.75166  0.99983  0.75024  1.0000
  C   C23       1.0  0.06539  0.22341  0.43186  1.0000
  C   C24       1.0  0.84222  0.77754  0.06780  1.0000
  C   C25       1.0  0.93463  0.77658  0.56813  1.0000
  C   C26       1.0  0.15776  0.22246  0.93220  1.0000
  S   S1        1.0  0.38459  0.81657  0.23321  1.0000
  S   S2        1.0  0.56706  0.18357  0.26654  1.0000
  S   S3        1.0  0.61541  0.18343  0.76679  1.0000
  S   S4        1.0  0.43294  0.81643  0.73346  1.0000
  N   N1        1.0  0.52848  0.61817  0.42182  1.0000
  N   N2        1.0  0.91095  0.38239  0.07822  1.0000
  N   N3        1.0  0.47151  0.38183  0.57818  1.0000
  N   N4        1.0  0.08906  0.61761  0.92178  1.0000
  O   O1        1.0  0.07363  0.35025  0.46892  1.0000
  O   O2        1.0  0.72424  0.65054  0.03082  1.0000
  O   O3        1.0  0.92639  0.64974  0.53108  1.0000
  O   O4        1.0  0.27574  0.34946  0.96918  1.0000
  O   O5        1.0  0.30651  0.18110  0.40722  1.0000
  O   O6        1.0  0.12542  0.81989  0.09261  1.0000
  O   O7        1.0  0.69352  0.81888  0.59277  1.0000
  O   O8        1.0  0.87457  0.18011  0.90739  1.0000
