data_image0
_chemical_formula_structural       Mg2H60C28O4
_chemical_formula_sum              "Mg2 H60 C28 O4"
_cell_length_a       9.26835
_cell_length_b       9.59019
_cell_length_c       10.6914
_cell_angle_alpha    98.0557
_cell_angle_beta     90.0315
_cell_angle_gamma    118.883

_space_group_name_H-M_alt    "P 1"
_space_group_IT_number       1

loop_
  _space_group_symop_operation_xyz
  'x, y, z'

loop_
  _atom_site_type_symbol
  _atom_site_label
  _atom_site_symmetry_multiplicity
  _atom_site_fract_x
  _atom_site_fract_y
  _atom_site_fract_z
  _atom_site_occupancy
  Mg  Mg1       1.0  0.25912  0.99978  0.74995  1.0000
  Mg  Mg2       1.0  0.74088  0.00022  0.25005  1.0000
  H   H1        1.0  0.47924  0.23810  0.98178  1.0000
  H   H2        1.0  0.24107  0.76195  0.51789  1.0000
  H   H3        1.0  0.52076  0.76190  0.01822  1.0000
  H   H4        1.0  0.75893  0.23805  0.48211  1.0000
  H   H5        1.0  0.65977  0.21575  0.96311  1.0000
  H   H6        1.0  0.44385  0.78420  0.53684  1.0000
  H   H7        1.0  0.34023  0.78426  0.03689  1.0000
  H   H8        1.0  0.55614  0.21580  0.46316  1.0000
  H   H9        1.0  0.40691  0.79726  0.81328  1.0000
  H   H10       1.0  0.60940  0.20257  0.68685  1.0000
  H   H11       1.0  0.59310  0.20274  0.18672  1.0000
  H   H12       1.0  0.39060  0.79743  0.31315  1.0000
  H   H13       1.0  0.61655  0.95035  0.86201  1.0000
  H   H14       1.0  0.66598  0.04945  0.63829  1.0000
  H   H15       1.0  0.38345  0.04965  0.13799  1.0000
  H   H16       1.0  0.33402  0.95055  0.36171  1.0000
  H   H17       1.0  0.99637  0.73938  0.61880  1.0000
  H   H18       1.0  0.25686  0.26031  0.88123  1.0000
  H   H19       1.0  0.00362  0.26061  0.38120  1.0000
  H   H20       1.0  0.74314  0.73970  0.11877  1.0000
  H   H21       1.0  0.11272  0.67251  0.69602  1.0000
  H   H22       1.0  0.43994  0.32687  0.80400  1.0000
  H   H23       1.0  0.88728  0.32749  0.30398  1.0000
  H   H24       1.0  0.56006  0.67313  0.19600  1.0000
  H   H25       1.0  0.74150  0.74590  0.89026  1.0000
  H   H26       1.0  0.99565  0.25419  0.60938  1.0000
  H   H27       1.0  0.25850  0.25411  0.10974  1.0000
  H   H28       1.0  0.00436  0.74582  0.39062  1.0000
  H   H29       1.0  0.92528  0.91953  0.86096  1.0000
  H   H30       1.0  0.00566  0.08043  0.63869  1.0000
  H   H31       1.0  0.07472  0.08047  0.13905  1.0000
  H   H32       1.0  0.99434  0.91958  0.36131  1.0000
  H   H33       1.0  0.78077  0.78727  0.73240  1.0000
  H   H34       1.0  0.99328  0.21255  0.76722  1.0000
  H   H35       1.0  0.21923  0.21273  0.26760  1.0000
  H   H36       1.0  0.00673  0.78745  0.23278  1.0000
  H   H37       1.0  0.70701  0.46602  0.83193  1.0000
  H   H38       1.0  0.24123  0.53396  0.66810  1.0000
  H   H39       1.0  0.29299  0.53398  0.16808  1.0000
  H   H40       1.0  0.75878  0.46604  0.33190  1.0000
  H   H41       1.0  0.73862  0.49836  0.67180  1.0000
  H   H42       1.0  0.24046  0.50154  0.82823  1.0000
  H   H43       1.0  0.26137  0.50163  0.32821  1.0000
  H   H44       1.0  0.75955  0.49846  0.17177  1.0000
  H   H45       1.0  0.86530  0.44169  0.75281  1.0000
  H   H46       1.0  0.42371  0.55795  0.74731  1.0000
  H   H47       1.0  0.13469  0.55830  0.24719  1.0000
  H   H48       1.0  0.57629  0.44206  0.25270  1.0000
  H   H49       1.0  0.07750  0.63659  0.92856  1.0000
  H   H50       1.0  0.44084  0.36339  0.57165  1.0000
  H   H51       1.0  0.92249  0.36341  0.07144  1.0000
  H   H52       1.0  0.55916  0.63661  0.42835  1.0000
  H   H53       1.0  0.09908  0.83200  0.97603  1.0000
  H   H54       1.0  0.26713  0.16799  0.52395  1.0000
  H   H55       1.0  0.90092  0.16800  0.02397  1.0000
  H   H56       1.0  0.73287  0.83201  0.47605  1.0000
  H   H57       1.0  0.91813  0.65770  0.00672  1.0000
  H   H58       1.0  0.26039  0.34234  0.49336  1.0000
  H   H59       1.0  0.08187  0.34230  0.99328  1.0000
  H   H60       1.0  0.73961  0.65766  0.50664  1.0000
  C   C1        1.0  0.52945  0.15598  0.98545  1.0000
  C   C2        1.0  0.37339  0.84407  0.51437  1.0000
  C   C3        1.0  0.47056  0.84402  0.01454  1.0000
  C   C4        1.0  0.62661  0.15594  0.48563  1.0000
  C   C5        1.0  0.48715  0.89832  0.88681  1.0000
  C   C6        1.0  0.58867  0.10155  0.61333  1.0000
  C   C7        1.0  0.51286  0.10169  0.11319  1.0000
  C   C8        1.0  0.41132  0.89845  0.38668  1.0000
  C   C9        1.0  0.06059  0.75549  0.71163  1.0000
  C   C10       1.0  0.30480  0.24404  0.78840  1.0000
  C   C11       1.0  0.93940  0.24450  0.28837  1.0000
  C   C12       1.0  0.69520  0.75596  0.21160  1.0000
  C   C13       1.0  0.92921  0.69286  0.80789  1.0000
  C   C14       1.0  0.23621  0.30693  0.69211  1.0000
  C   C15       1.0  0.07078  0.30713  0.19211  1.0000
  C   C16       1.0  0.76379  0.69307  0.30789  1.0000
  C   C17       1.0  0.83867  0.79198  0.82394  1.0000
  C   C18       1.0  0.04658  0.20796  0.67577  1.0000
  C   C19       1.0  0.16133  0.20802  0.17606  1.0000
  C   C20       1.0  0.95342  0.79204  0.32423  1.0000
  C   C21       1.0  0.80195  0.51413  0.76406  1.0000
  C   C22       1.0  0.28794  0.48571  0.73600  1.0000
  C   C23       1.0  0.19804  0.48587  0.23595  1.0000
  C   C24       1.0  0.71207  0.51429  0.26399  1.0000
  C   C25       1.0  0.01052  0.70558  0.93728  1.0000
  C   C26       1.0  0.30485  0.29435  0.56280  1.0000
  C   C27       1.0  0.98948  0.29441  0.06272  1.0000
  C   C28       1.0  0.69516  0.70566  0.43720  1.0000
  O   O1        1.0  0.43481  0.01815  0.88826  1.0000
  O   O2        1.0  0.41649  0.98180  0.61159  1.0000
  O   O3        1.0  0.56519  0.98185  0.11174  1.0000
  O   O4        1.0  0.58351  0.01821  0.38841  1.0000
