data_image0
_chemical_formula_structural       Cu2H16C20Br4N4
_chemical_formula_sum              "Cu2 H16 C20 Br4 N4"
_cell_length_a       7.82296
_cell_length_b       9.31313
_cell_length_c       8.99307
_cell_angle_alpha    121.153
_cell_angle_beta     106.541
_cell_angle_gamma    90.0343

_space_group_name_H-M_alt    "P 1"
_space_group_IT_number       1

loop_
  _space_group_symop_operation_xyz
  'x, y, z'

loop_
  _atom_site_type_symbol
  _atom_site_label
  _atom_site_symmetry_multiplicity
  _atom_site_fract_x
  _atom_site_fract_y
  _atom_site_fract_z
  _atom_site_occupancy
  Cu  Cu1       1.0  0.74991  0.93087  0.00006  1.0000
  Cu  Cu2       1.0  0.25009  0.06914  0.99994  1.0000
  H   H1        1.0  0.09380  0.05066  0.33585  1.0000
  H   H2        1.0  0.40622  0.71491  0.66408  1.0000
  H   H3        1.0  0.90621  0.94933  0.66414  1.0000
  H   H4        1.0  0.59378  0.28509  0.33592  1.0000
  H   H5        1.0  0.25894  0.91957  0.50844  1.0000
  H   H6        1.0  0.24104  0.41120  0.49127  1.0000
  H   H7        1.0  0.74108  0.08043  0.49154  1.0000
  H   H8        1.0  0.75896  0.58880  0.50873  1.0000
  H   H9        1.0  0.13005  0.62105  0.39986  1.0000
  H   H10       1.0  0.36977  0.22118  0.59973  1.0000
  H   H11       1.0  0.86998  0.37895  0.60013  1.0000
  H   H12       1.0  0.63022  0.77882  0.40029  1.0000
  H   H13       1.0  0.85907  0.46201  0.12075  1.0000
  H   H14       1.0  0.64071  0.34113  0.87887  1.0000
  H   H15       1.0  0.14094  0.53799  0.87925  1.0000
  H   H16       1.0  0.35927  0.65888  0.12115  1.0000
  C   C1        1.0  0.04696  0.92115  0.29461  1.0000
  C   C2        1.0  0.45297  0.62664  0.70530  1.0000
  C   C3        1.0  0.95304  0.07884  0.70539  1.0000
  C   C4        1.0  0.54703  0.37337  0.29471  1.0000
  C   C5        1.0  0.13654  0.84766  0.38881  1.0000
  C   C6        1.0  0.36338  0.45889  0.61093  1.0000
  C   C7        1.0  0.86348  0.15233  0.61117  1.0000
  C   C8        1.0  0.63661  0.54111  0.38908  1.0000
  C   C9        1.0  0.06665  0.68170  0.32746  1.0000
  C   C10       1.0  0.43319  0.35425  0.67221  1.0000
  C   C11       1.0  0.93336  0.31829  0.67253  1.0000
  C   C12       1.0  0.56680  0.64576  0.32780  1.0000
  C   C13       1.0  0.91300  0.59285  0.17128  1.0000
  C   C14       1.0  0.58681  0.42146  0.82839  1.0000
  C   C15       1.0  0.08701  0.40715  0.82872  1.0000
  C   C16       1.0  0.41317  0.57853  0.17162  1.0000
  C   C17       1.0  0.83045  0.67398  0.08286  1.0000
  C   C18       1.0  0.66936  0.59106  0.91696  1.0000
  C   C19       1.0  0.16955  0.32602  0.91715  1.0000
  C   C20       1.0  0.33063  0.40894  0.08305  1.0000
  Br  Br1       1.0  0.93430  0.21373  0.19799  1.0000
  Br  Br2       1.0  0.56561  0.01585  0.80206  1.0000
  Br  Br3       1.0  0.06568  0.78628  0.80203  1.0000
  Br  Br4       1.0  0.43441  0.98413  0.19791  1.0000
  N   N1        1.0  0.89619  0.83771  0.14723  1.0000
  N   N2        1.0  0.60367  0.69050  0.85271  1.0000
  N   N3        1.0  0.10381  0.16229  0.85277  1.0000
  N   N4        1.0  0.39633  0.30950  0.14730  1.0000
