data_image0
_chemical_formula_structural       Cu2H16C20N4Cl4
_chemical_formula_sum              "Cu2 H16 C20 N4 Cl4"
_cell_length_a       7.94498
_cell_length_b       9.043
_cell_length_c       8.72142
_cell_angle_alpha    121.202
_cell_angle_beta     107.323
_cell_angle_gamma    90.0343

_space_group_name_H-M_alt    "P 1"
_space_group_IT_number       1

loop_
  _space_group_symop_operation_xyz
  'x, y, z'

loop_
  _atom_site_type_symbol
  _atom_site_label
  _atom_site_symmetry_multiplicity
  _atom_site_fract_x
  _atom_site_fract_y
  _atom_site_fract_z
  _atom_site_occupancy
  Cu  Cu1       1.0  0.75021  0.56281  0.00016  1.0000
  Cu  Cu2       1.0  0.24979  0.43719  0.99983  1.0000
  H   H1        1.0  0.10196  0.77819  0.33518  1.0000
  H   H2        1.0  0.39823  0.44256  0.66523  1.0000
  H   H3        1.0  0.89804  0.22180  0.66481  1.0000
  H   H4        1.0  0.60178  0.55744  0.33476  1.0000
  H   H5        1.0  0.27032  0.09173  0.51477  1.0000
  H   H6        1.0  0.22992  0.57582  0.48486  1.0000
  H   H7        1.0  0.72969  0.90826  0.48523  1.0000
  H   H8        1.0  0.77008  0.42418  0.51514  1.0000
  H   H9        1.0  0.86036  0.17049  0.12674  1.0000
  H   H10       1.0  0.63915  0.04326  0.87275  1.0000
  H   H11       1.0  0.13964  0.82952  0.87326  1.0000
  H   H12       1.0  0.36084  0.95675  0.12726  1.0000
  H   H13       1.0  0.13738  0.29038  0.40959  1.0000
  H   H14       1.0  0.36250  0.87954  0.58950  1.0000
  H   H15       1.0  0.86262  0.70962  0.59041  1.0000
  H   H16       1.0  0.63749  0.12046  0.41052  1.0000
  C   C1        1.0  0.83225  0.91159  0.08418  1.0000
  C   C2        1.0  0.66748  0.82728  0.91589  1.0000
  C   C3        1.0  0.16776  0.08842  0.91583  1.0000
  C   C4        1.0  0.33252  0.17273  0.08411  1.0000
  C   C5        1.0  0.05440  0.87104  0.29602  1.0000
  C   C6        1.0  0.44572  0.57452  0.70419  1.0000
  C   C7        1.0  0.94561  0.12896  0.70400  1.0000
  C   C8        1.0  0.55429  0.42548  0.29580  1.0000
  C   C9        1.0  0.14527  0.04378  0.39382  1.0000
  C   C10       1.0  0.35477  0.64908  0.60599  1.0000
  C   C11       1.0  0.85472  0.95622  0.60617  1.0000
  C   C12       1.0  0.64523  0.35092  0.39400  1.0000
  C   C13       1.0  0.91596  0.08617  0.17596  1.0000
  C   C14       1.0  0.58368  0.90971  0.82370  1.0000
  C   C15       1.0  0.08403  0.91383  0.82404  1.0000
  C   C16       1.0  0.41632  0.09030  0.17632  1.0000
  C   C17       1.0  0.07310  0.15335  0.33422  1.0000
  C   C18       1.0  0.42678  0.81821  0.66526  1.0000
  C   C19       1.0  0.92690  0.84666  0.66578  1.0000
  C   C20       1.0  0.57321  0.18179  0.33475  1.0000
  N   N1        1.0  0.90018  0.80758  0.14725  1.0000
  N   N2        1.0  0.59985  0.66016  0.85300  1.0000
  N   N3        1.0  0.09982  0.19242  0.85275  1.0000
  N   N4        1.0  0.40015  0.33984  0.14699  1.0000
  Cl  Cl1       1.0  0.92677  0.48617  0.19461  1.0000
  Cl  Cl2       1.0  0.57400  0.29149  0.80582  1.0000
  Cl  Cl3       1.0  0.07322  0.51381  0.80538  1.0000
  Cl  Cl4       1.0  0.42600  0.70850  0.19417  1.0000
