data_image0
_chemical_formula_structural       Mn4H16C32N32
_chemical_formula_sum              "Mn4 H16 C32 N32"
_cell_length_a       7.309
_cell_length_b       8.80818
_cell_length_c       16.6239
_cell_angle_alpha    90.0014
_cell_angle_beta     89.9997
_cell_angle_gamma    89.8489

_space_group_name_H-M_alt    "P 1"
_space_group_IT_number       1

loop_
  _space_group_symop_operation_xyz
  'x, y, z'

loop_
  _atom_site_type_symbol
  _atom_site_label
  _atom_site_symmetry_multiplicity
  _atom_site_fract_x
  _atom_site_fract_y
  _atom_site_fract_z
  _atom_site_occupancy
  Mn  Mn1       1.0  0.73712  0.87497  0.86598  1.0000
  Mn  Mn2       1.0  0.23714  0.37476  0.63405  1.0000
  Mn  Mn3       1.0  0.26286  0.12503  0.13402  1.0000
  Mn  Mn4       1.0  0.76286  0.62505  0.36600  1.0000
  H   H1        1.0  0.06415  0.68327  0.94047  1.0000
  H   H2        1.0  0.56415  0.18344  0.55940  1.0000
  H   H3        1.0  0.93589  0.31661  0.05944  1.0000
  H   H4        1.0  0.43583  0.81675  0.44052  1.0000
  H   H5        1.0  0.40889  0.67940  0.93934  1.0000
  H   H6        1.0  0.90886  0.17965  0.56049  1.0000
  H   H7        1.0  0.59116  0.32043  0.06053  1.0000
  H   H8        1.0  0.09109  0.82059  0.43939  1.0000
  H   H9        1.0  0.41183  0.04657  0.78238  1.0000
  H   H10       1.0  0.91181  0.54657  0.71761  1.0000
  H   H11       1.0  0.58821  0.95347  0.21763  1.0000
  H   H12       1.0  0.08816  0.45342  0.28239  1.0000
  H   H13       1.0  0.06589  0.04707  0.78087  1.0000
  H   H14       1.0  0.56591  0.54709  0.71912  1.0000
  H   H15       1.0  0.93415  0.95293  0.21913  1.0000
  H   H16       1.0  0.43411  0.45295  0.28088  1.0000
  C   C1        1.0  0.77868  0.24329  0.88964  1.0000
  C   C2        1.0  0.27859  0.74318  0.61045  1.0000
  C   C3        1.0  0.22135  0.75670  0.11041  1.0000
  C   C4        1.0  0.72132  0.25673  0.38964  1.0000
  C   C5        1.0  0.77675  0.50475  0.88129  1.0000
  C   C6        1.0  0.27666  0.00474  0.61871  1.0000
  C   C7        1.0  0.22327  0.49521  0.11869  1.0000
  C   C8        1.0  0.72327  0.99526  0.38130  1.0000
  C   C9        1.0  0.71037  0.75433  0.04601  1.0000
  C   C10       1.0  0.20974  0.25425  0.45396  1.0000
  C   C11       1.0  0.29027  0.24579  0.95397  1.0000
  C   C12       1.0  0.78962  0.74564  0.54601  1.0000
  C   C13       1.0  0.72420  0.63010  0.16862  1.0000
  C   C14       1.0  0.22397  0.12981  0.33155  1.0000
  C   C15       1.0  0.27600  0.37016  0.83156  1.0000
  C   C16       1.0  0.77580  0.86994  0.66861  1.0000
  C   C17       1.0  0.14157  0.76419  0.90462  1.0000
  C   C18       1.0  0.64157  0.26430  0.59531  1.0000
  C   C19       1.0  0.85848  0.23573  0.09531  1.0000
  C   C20       1.0  0.35841  0.73582  0.40466  1.0000
  C   C21       1.0  0.33201  0.76313  0.90478  1.0000
  C   C22       1.0  0.83200  0.26331  0.59511  1.0000
  C   C23       1.0  0.66804  0.23675  0.09512  1.0000
  C   C24       1.0  0.16798  0.73687  0.40483  1.0000
  C   C25       1.0  0.33327  0.96559  0.81782  1.0000
  C   C26       1.0  0.83326  0.46558  0.68216  1.0000
  C   C27       1.0  0.66678  0.03441  0.18216  1.0000
  C   C28       1.0  0.16672  0.53440  0.31784  1.0000
  C   C29       1.0  0.14273  0.96588  0.81711  1.0000
  C   C30       1.0  0.64272  0.46587  0.68287  1.0000
  C   C31       1.0  0.85732  0.03410  0.18287  1.0000
  C   C32       1.0  0.35725  0.53412  0.31713  1.0000
  N   N1        1.0  0.74012  0.11589  0.87645  1.0000
  N   N2        1.0  0.24020  0.61578  0.62375  1.0000
  N   N3        1.0  0.25979  0.88411  0.12367  1.0000
  N   N4        1.0  0.75988  0.38412  0.37642  1.0000
  N   N5        1.0  0.83248  0.37711  0.91037  1.0000
  N   N6        1.0  0.33227  0.87703  0.58970  1.0000
  N   N7        1.0  0.16765  0.62289  0.08964  1.0000
  N   N8        1.0  0.66754  0.12291  0.41037  1.0000
  N   N9        1.0  0.73789  0.62799  0.85892  1.0000
  N   N10       1.0  0.23793  0.12805  0.64100  1.0000
  N   N11       1.0  0.26206  0.37193  0.14102  1.0000
  N   N12       1.0  0.76212  0.87201  0.35894  1.0000
  N   N13       1.0  0.73815  0.84398  0.99449  1.0000
  N   N14       1.0  0.23759  0.34421  0.50529  1.0000
  N   N15       1.0  0.26245  0.15580  0.00530  1.0000
  N   N16       1.0  0.76180  0.65599  0.49450  1.0000
  N   N17       1.0  0.66661  0.64837  0.09597  1.0000
  N   N18       1.0  0.16585  0.14799  0.40415  1.0000
  N   N19       1.0  0.33415  0.35202  0.90416  1.0000
  N   N20       1.0  0.83341  0.85160  0.59597  1.0000
  N   N21       1.0  0.76691  0.60132  0.23545  1.0000
  N   N22       1.0  0.26721  0.10117  0.26477  1.0000
  N   N23       1.0  0.23279  0.39877  0.76478  1.0000
  N   N24       1.0  0.73306  0.89876  0.73543  1.0000
  N   N25       1.0  0.04718  0.86540  0.86079  1.0000
  N   N26       1.0  0.54714  0.36553  0.63911  1.0000
  N   N27       1.0  0.95286  0.13454  0.13916  1.0000
  N   N28       1.0  0.45278  0.63461  0.36081  1.0000
  N   N29       1.0  0.42745  0.86417  0.86164  1.0000
  N   N30       1.0  0.92747  0.36434  0.63824  1.0000
  N   N31       1.0  0.57260  0.13577  0.13830  1.0000
  N   N32       1.0  0.07256  0.63583  0.36168  1.0000
