data_image0
_chemical_formula_structural       Sr4H40C32S8N8O36
_chemical_formula_sum              "Sr4 H40 C32 S8 N8 O36"
_cell_length_a       7.97375
_cell_length_b       9.71489
_cell_length_c       18.5217
_cell_angle_alpha    90
_cell_angle_beta     90
_cell_angle_gamma    99.6724

_space_group_name_H-M_alt    "P 1"
_space_group_IT_number       1

loop_
  _space_group_symop_operation_xyz
  'x, y, z'

loop_
  _atom_site_type_symbol
  _atom_site_label
  _atom_site_symmetry_multiplicity
  _atom_site_fract_x
  _atom_site_fract_y
  _atom_site_fract_z
  _atom_site_occupancy
  Sr  Sr1       1.0  0.26186  0.56240  0.53144  1.0000
  Sr  Sr2       1.0  0.23814  0.93760  0.03144  1.0000
  Sr  Sr3       1.0  0.73814  0.43760  0.46856  1.0000
  Sr  Sr4       1.0  0.76186  0.06240  0.96856  1.0000
  H   H1        1.0  0.30513  0.78212  0.67522  1.0000
  H   H2        1.0  0.19487  0.71788  0.17522  1.0000
  H   H3        1.0  0.69487  0.21788  0.32478  1.0000
  H   H4        1.0  0.80513  0.28212  0.82478  1.0000
  H   H5        1.0  0.34252  0.86503  0.60413  1.0000
  H   H6        1.0  0.15748  0.63496  0.10413  1.0000
  H   H7        1.0  0.65748  0.13496  0.39587  1.0000
  H   H8        1.0  0.84252  0.36504  0.89587  1.0000
  H   H9        1.0  0.56835  0.69436  0.69640  1.0000
  H   H10       1.0  0.93166  0.80564  0.19640  1.0000
  H   H11       1.0  0.43166  0.30564  0.30360  1.0000
  H   H12       1.0  0.06835  0.19436  0.80360  1.0000
  H   H13       1.0  0.91460  0.76264  0.82645  1.0000
  H   H14       1.0  0.58540  0.73736  0.32645  1.0000
  H   H15       1.0  0.08540  0.23736  0.17355  1.0000
  H   H16       1.0  0.41460  0.26264  0.67355  1.0000
  H   H17       1.0  0.74808  0.84137  0.78826  1.0000
  H   H18       1.0  0.75192  0.65863  0.28826  1.0000
  H   H19       1.0  0.25192  0.15863  0.21174  1.0000
  H   H20       1.0  0.24808  0.34137  0.71174  1.0000
  H   H21       1.0  0.95725  0.87272  0.75025  1.0000
  H   H22       1.0  0.54275  0.62728  0.25025  1.0000
  H   H23       1.0  0.04275  0.12728  0.24975  1.0000
  H   H24       1.0  0.45725  0.37272  0.74975  1.0000
  H   H25       1.0  0.05880  0.88637  0.58908  1.0000
  H   H26       1.0  0.44120  0.61363  0.08908  1.0000
  H   H27       1.0  0.94120  0.11362  0.41092  1.0000
  H   H28       1.0  0.55880  0.38637  0.91092  1.0000
  H   H29       1.0  0.81823  0.16430  0.60505  1.0000
  H   H30       1.0  0.68176  0.33570  0.10505  1.0000
  H   H31       1.0  0.18176  0.83570  0.39495  1.0000
  H   H32       1.0  0.31823  0.66430  0.89495  1.0000
  H   H33       1.0  0.97167  0.08601  0.65417  1.0000
  H   H34       1.0  0.52833  0.41399  0.15417  1.0000
  H   H35       1.0  0.02833  0.91399  0.34583  1.0000
  H   H36       1.0  0.47167  0.58601  0.84583  1.0000
  H   H37       1.0  0.74967  0.04762  0.67595  1.0000
  H   H38       1.0  0.75033  0.45238  0.17595  1.0000
  H   H39       1.0  0.25033  0.95238  0.32405  1.0000
  H   H40       1.0  0.24967  0.54762  0.82405  1.0000
  C   C1        1.0  0.65696  0.53308  0.63150  1.0000
  C   C2        1.0  0.84304  0.96692  0.13150  1.0000
  C   C3        1.0  0.34304  0.46692  0.36850  1.0000
  C   C4        1.0  0.15696  0.03308  0.86850  1.0000
  C   C5        1.0  0.67071  0.63424  0.68988  1.0000
  C   C6        1.0  0.82930  0.86576  0.18988  1.0000
  C   C7        1.0  0.32930  0.36576  0.31012  1.0000
  C   C8        1.0  0.17071  0.13424  0.81012  1.0000
  C   C9        1.0  0.81740  0.67291  0.72732  1.0000
  C   C10       1.0  0.68261  0.82709  0.22732  1.0000
  C   C11       1.0  0.18261  0.32709  0.27268  1.0000
  C   C12       1.0  0.31740  0.17291  0.77268  1.0000
  C   C13       1.0  0.85988  0.79429  0.77606  1.0000
  C   C14       1.0  0.64012  0.70571  0.27606  1.0000
  C   C15       1.0  0.14012  0.20571  0.22394  1.0000
  C   C16       1.0  0.35988  0.29429  0.72394  1.0000
  C   C17       1.0  0.89577  0.74959  0.51511  1.0000
  C   C18       1.0  0.60423  0.75041  0.01511  1.0000
  C   C19       1.0  0.10423  0.25041  0.48489  1.0000
  C   C20       1.0  0.39577  0.24959  0.98489  1.0000
  C   C21       1.0  0.93563  0.86917  0.56258  1.0000
  C   C22       1.0  0.56437  0.63083  0.06258  1.0000
  C   C23       1.0  0.06437  0.13082  0.43742  1.0000
  C   C24       1.0  0.43563  0.36917  0.93742  1.0000
  C   C25       1.0  0.82030  0.95162  0.57942  1.0000
  C   C26       1.0  0.67970  0.54838  0.07942  1.0000
  C   C27       1.0  0.17970  0.04838  0.42058  1.0000
  C   C28       1.0  0.32030  0.45163  0.92058  1.0000
  C   C29       1.0  0.84273  0.06873  0.63180  1.0000
  C   C30       1.0  0.65727  0.43127  0.13180  1.0000
  C   C31       1.0  0.15727  0.93127  0.36820  1.0000
  C   C32       1.0  0.34273  0.56873  0.86820  1.0000
  S   S1        1.0  0.92689  0.45285  0.67689  1.0000
  S   S2        1.0  0.57312  0.04715  0.17689  1.0000
  S   S3        1.0  0.07311  0.54715  0.32311  1.0000
  S   S4        1.0  0.42688  0.95285  0.82311  1.0000
  S   S5        1.0  0.63005  0.84049  0.47293  1.0000
  S   S6        1.0  0.86995  0.65951  0.97293  1.0000
  S   S7        1.0  0.36995  0.15951  0.52707  1.0000
  S   S8        1.0  0.13005  0.34049  0.02707  1.0000
  N   N1        1.0  0.78409  0.45745  0.61931  1.0000
  N   N2        1.0  0.71591  0.04255  0.11931  1.0000
  N   N3        1.0  0.21591  0.54255  0.38069  1.0000
  N   N4        1.0  0.28409  0.95745  0.88069  1.0000
  N   N5        1.0  0.74562  0.72500  0.47823  1.0000
  N   N6        1.0  0.75438  0.77500  0.97823  1.0000
  N   N7        1.0  0.25438  0.27500  0.52177  1.0000
  N   N8        1.0  0.24562  0.22500  0.02177  1.0000
  O   O1        1.0  0.30306  0.77064  0.62272  1.0000
  O   O2        1.0  0.19693  0.72936  0.12272  1.0000
  O   O3        1.0  0.69693  0.22936  0.37728  1.0000
  O   O4        1.0  0.80307  0.27064  0.87728  1.0000
  O   O5        1.0  0.53668  0.52020  0.58611  1.0000
  O   O6        1.0  0.96332  0.97980  0.08611  1.0000
  O   O7        1.0  0.46332  0.47979  0.41389  1.0000
  O   O8        1.0  0.03668  0.02021  0.91389  1.0000
  O   O9        1.0  0.95492  0.60533  0.71958  1.0000
  O   O10       1.0  0.54508  0.89466  0.21958  1.0000
  O   O11       1.0  0.04508  0.39467  0.28042  1.0000
  O   O12       1.0  0.45492  0.10533  0.78042  1.0000
  O   O13       1.0  0.88117  0.34818  0.73219  1.0000
  O   O14       1.0  0.61882  0.15182  0.23219  1.0000
  O   O15       1.0  0.11882  0.65182  0.26781  1.0000
  O   O16       1.0  0.38117  0.84818  0.76781  1.0000
  O   O17       1.0  0.09064  0.45301  0.64347  1.0000
  O   O18       1.0  0.40936  0.04698  0.14347  1.0000
  O   O19       1.0  0.90936  0.54698  0.35653  1.0000
  O   O20       1.0  0.59064  0.95301  0.85653  1.0000
  O   O21       1.0  0.99178  0.65826  0.50984  1.0000
  O   O22       1.0  0.50822  0.84174  0.00984  1.0000
  O   O23       1.0  0.00821  0.34174  0.49016  1.0000
  O   O24       1.0  0.49178  0.15826  0.99016  1.0000
  O   O25       1.0  0.65976  0.93155  0.54915  1.0000
  O   O26       1.0  0.84024  0.56845  0.04915  1.0000
  O   O27       1.0  0.34024  0.06845  0.45085  1.0000
  O   O28       1.0  0.15976  0.43155  0.95085  1.0000
  O   O29       1.0  0.67970  0.94017  0.41559  1.0000
  O   O30       1.0  0.82030  0.55983  0.91559  1.0000
  O   O31       1.0  0.32030  0.05983  0.58441  1.0000
  O   O32       1.0  0.17970  0.44017  0.08441  1.0000
  O   O33       1.0  0.45172  0.78053  0.47528  1.0000
  O   O34       1.0  0.04828  0.71947  0.97528  1.0000
  O   O35       1.0  0.54828  0.21947  0.52472  1.0000
  O   O36       1.0  0.95172  0.28053  0.02472  1.0000
