data_image0
_chemical_formula_structural       Mn2H32C24N8O12
_chemical_formula_sum              "Mn2 H32 C24 N8 O12"
_cell_length_a       5.21606
_cell_length_b       8.81488
_cell_length_c       15.5193
_cell_angle_alpha    92.3444
_cell_angle_beta     89.9999
_cell_angle_gamma    90.0004

_space_group_name_H-M_alt    "P 1"
_space_group_IT_number       1

loop_
  _space_group_symop_operation_xyz
  'x, y, z'

loop_
  _atom_site_type_symbol
  _atom_site_label
  _atom_site_symmetry_multiplicity
  _atom_site_fract_x
  _atom_site_fract_y
  _atom_site_fract_z
  _atom_site_occupancy
  Mn  Mn1       1.0  0.01190  0.01977  0.20898  1.0000
  Mn  Mn2       1.0  0.98809  0.51976  0.70898  1.0000
  H   H1        1.0  0.45053  0.92218  0.12225  1.0000
  H   H2        1.0  0.54946  0.42218  0.62225  1.0000
  H   H3        1.0  0.19366  0.90087  0.06963  1.0000
  H   H4        1.0  0.80633  0.40088  0.56963  1.0000
  H   H5        1.0  0.57595  0.19472  0.21381  1.0000
  H   H6        1.0  0.42405  0.69470  0.71381  1.0000
  H   H7        1.0  0.83360  0.28673  0.20330  1.0000
  H   H8        1.0  0.16640  0.78671  0.70329  1.0000
  H   H9        1.0  0.96829  0.66038  0.18977  1.0000
  H   H10       1.0  0.03171  0.16037  0.68977  1.0000
  H   H11       1.0  0.62317  0.47259  0.27064  1.0000
  H   H12       1.0  0.37684  0.97259  0.77064  1.0000
  H   H13       1.0  0.15729  0.73087  0.39521  1.0000
  H   H14       1.0  0.84272  0.23087  0.89520  1.0000
  H   H15       1.0  0.16437  0.55123  0.34103  1.0000
  H   H16       1.0  0.83562  0.05123  0.84103  1.0000
  H   H17       1.0  0.50564  0.64291  0.49734  1.0000
  H   H18       1.0  0.49439  0.14291  0.99735  1.0000
  H   H19       1.0  0.51778  0.46848  0.44013  1.0000
  H   H20       1.0  0.48221  0.96848  0.94013  1.0000
  H   H21       1.0  0.04194  0.24055  0.37981  1.0000
  H   H22       1.0  0.95807  0.74055  0.87981  1.0000
  H   H23       1.0  0.37946  0.21350  0.51764  1.0000
  H   H24       1.0  0.62055  0.71350  0.01764  1.0000
  H   H25       1.0  0.86567  0.04721  0.50401  1.0000
  H   H26       1.0  0.13433  0.54722  0.00400  1.0000
  H   H27       1.0  0.79361  0.86432  0.45920  1.0000
  H   H28       1.0  0.20638  0.36433  0.95920  1.0000
  H   H29       1.0  0.42277  0.85246  0.57075  1.0000
  H   H30       1.0  0.57721  0.35247  0.07075  1.0000
  H   H31       1.0  0.54291  0.02356  0.61778  1.0000
  H   H32       1.0  0.45708  0.52357  0.11778  1.0000
  C   C1        1.0  0.56671  0.83376  0.31596  1.0000
  C   C2        1.0  0.43329  0.33375  0.81596  1.0000
  C   C3        1.0  0.81621  0.68961  0.23504  1.0000
  C   C4        1.0  0.18379  0.18960  0.73505  1.0000
  C   C5        1.0  0.64352  0.59508  0.27304  1.0000
  C   C6        1.0  0.35648  0.09508  0.77304  1.0000
  C   C7        1.0  0.28109  0.63334  0.37864  1.0000
  C   C8        1.0  0.71891  0.13334  0.87864  1.0000
  C   C9        1.0  0.38777  0.56244  0.45893  1.0000
  C   C10       1.0  0.61224  0.06244  0.95893  1.0000
  C   C11       1.0  0.18050  0.50010  0.51638  1.0000
  C   C12       1.0  0.81950  0.00009  0.01637  1.0000
  C   C13       1.0  0.44175  0.96446  0.35915  1.0000
  C   C14       1.0  0.55825  0.46446  0.85914  1.0000
  C   C15       1.0  0.19424  0.15887  0.38893  1.0000
  C   C16       1.0  0.80576  0.65887  0.88892  1.0000
  C   C17       1.0  0.36041  0.14789  0.45737  1.0000
  C   C18       1.0  0.63959  0.64789  0.95737  1.0000
  C   C19       1.0  0.71165  0.96373  0.49413  1.0000
  C   C20       1.0  0.28835  0.46374  0.99413  1.0000
  C   C21       1.0  0.59752  0.91993  0.58029  1.0000
  C   C22       1.0  0.40247  0.41994  0.08029  1.0000
  C   C23       1.0  0.79404  0.83477  0.63233  1.0000
  C   C24       1.0  0.20595  0.33478  0.13233  1.0000
  N   N1        1.0  0.76885  0.83747  0.26255  1.0000
  N   N2        1.0  0.23115  0.33746  0.76255  1.0000
  N   N3        1.0  0.48646  0.68696  0.32346  1.0000
  N   N4        1.0  0.51354  0.18696  0.82346  1.0000
  N   N5        1.0  0.24512  0.04397  0.32845  1.0000
  N   N6        1.0  0.75488  0.54396  0.82845  1.0000
  N   N7        1.0  0.51549  0.02498  0.43791  1.0000
  N   N8        1.0  0.48451  0.52498  0.93791  1.0000
  O   O1        1.0  0.24275  0.48188  0.59558  1.0000
  O   O2        1.0  0.75726  0.98188  0.09558  1.0000
  O   O3        1.0  0.96341  0.46697  0.48499  1.0000
  O   O4        1.0  0.03658  0.96693  0.98498  1.0000
  O   O5        1.0  0.72706  0.70910  0.66449  1.0000
  O   O6        1.0  0.27293  0.20911  0.16448  1.0000
  O   O7        1.0  0.01500  0.89310  0.64031  1.0000
  O   O8        1.0  0.98499  0.39311  0.14032  1.0000
  O   O9        1.0  0.27478  0.87838  0.12690  1.0000
  O   O10       1.0  0.72521  0.37837  0.62690  1.0000
  O   O11       1.0  0.74815  0.20883  0.24074  1.0000
  O   O12       1.0  0.25185  0.70882  0.74073  1.0000
