data_image0
_chemical_formula_structural       Cd2H44C48N12O16
_chemical_formula_sum              "Cd2 H44 C48 N12 O16"
_cell_length_a       6.84885
_cell_length_b       13.0623
_cell_length_c       15.7745
_cell_angle_alpha    67.8485
_cell_angle_beta     77.2399
_cell_angle_gamma    74.7264

_space_group_name_H-M_alt    "P 1"
_space_group_IT_number       1

loop_
  _space_group_symop_operation_xyz
  'x, y, z'

loop_
  _atom_site_type_symbol
  _atom_site_label
  _atom_site_symmetry_multiplicity
  _atom_site_fract_x
  _atom_site_fract_y
  _atom_site_fract_z
  _atom_site_occupancy
  Cd  Cd1       1.0  0.69748  0.74936  0.24944  1.0000
  Cd  Cd2       1.0  0.30251  0.25064  0.75056  1.0000
  H   H1        1.0  0.20687  0.33797  0.36941  1.0000
  H   H2        1.0  0.91234  0.16153  0.13158  1.0000
  H   H3        1.0  0.79312  0.66202  0.63061  1.0000
  H   H4        1.0  0.08765  0.83847  0.86844  1.0000
  H   H5        1.0  0.14429  0.68073  0.33631  1.0000
  H   H6        1.0  0.16170  0.81917  0.16351  1.0000
  H   H7        1.0  0.85574  0.31928  0.66368  1.0000
  H   H8        1.0  0.83830  0.18084  0.83647  1.0000
  H   H9        1.0  0.86191  0.46249  0.28428  1.0000
  H   H10       1.0  0.60612  0.03671  0.21554  1.0000
  H   H11       1.0  0.13809  0.53751  0.71574  1.0000
  H   H12       1.0  0.39387  0.96328  0.78447  1.0000
  H   H13       1.0  0.08965  0.60118  0.01722  1.0000
  H   H14       1.0  0.70668  0.89939  0.48231  1.0000
  H   H15       1.0  0.91035  0.39882  0.98278  1.0000
  H   H16       1.0  0.29329  0.10062  0.51768  1.0000
  H   H17       1.0  0.23994  0.63315  0.13301  1.0000
  H   H18       1.0  0.00639  0.86699  0.36640  1.0000
  H   H19       1.0  0.76007  0.36685  0.86699  1.0000
  H   H20       1.0  0.99359  0.13302  0.63359  1.0000
  H   H21       1.0  0.63411  0.66088  0.82199  1.0000
  H   H22       1.0  0.11388  0.83945  0.67715  1.0000
  H   H23       1.0  0.36592  0.33912  0.17801  1.0000
  H   H24       1.0  0.88612  0.16055  0.32284  1.0000
  H   H25       1.0  0.78246  0.69370  0.93858  1.0000
  H   H26       1.0  0.41321  0.80618  0.56045  1.0000
  H   H27       1.0  0.21755  0.30629  0.06142  1.0000
  H   H28       1.0  0.58677  0.19382  0.43954  1.0000
  H   H29       1.0  0.28217  0.47704  0.53703  1.0000
  H   H30       1.0  0.29601  0.02276  0.96369  1.0000
  H   H31       1.0  0.71786  0.52297  0.46297  1.0000
  H   H32       1.0  0.70399  0.97724  0.03631  1.0000
  H   H33       1.0  0.34347  0.60694  0.46021  1.0000
  H   H34       1.0  0.41093  0.89294  0.04017  1.0000
  H   H35       1.0  0.65654  0.39305  0.53980  1.0000
  H   H36       1.0  0.58906  0.10707  0.95983  1.0000
  H   H37       1.0  0.46797  0.38185  0.42447  1.0000
  H   H38       1.0  0.27420  0.11792  0.07613  1.0000
  H   H39       1.0  0.53204  0.61815  0.57553  1.0000
  H   H40       1.0  0.72579  0.88208  0.92386  1.0000
  H   H41       1.0  0.53187  0.51089  0.34439  1.0000
  H   H42       1.0  0.38674  0.98862  0.15588  1.0000
  H   H43       1.0  0.46813  0.48911  0.65562  1.0000
  H   H44       1.0  0.61325  0.01139  0.84412  1.0000
  C   C1        1.0  0.14032  0.42713  0.34908  1.0000
  C   C2        1.0  0.91504  0.07238  0.15154  1.0000
  C   C3        1.0  0.85968  0.57287  0.65094  1.0000
  C   C4        1.0  0.08496  0.92761  0.84846  1.0000
  C   C5        1.0  0.60715  0.69062  0.11112  1.0000
  C   C6        1.0  0.40965  0.80874  0.38823  1.0000
  C   C7        1.0  0.39286  0.30938  0.88888  1.0000
  C   C8        1.0  0.59034  0.19126  0.61176  1.0000
  C   C9        1.0  0.10866  0.60539  0.33468  1.0000
  C   C10       1.0  0.04843  0.89435  0.16531  1.0000
  C   C11       1.0  0.89136  0.39461  0.66531  1.0000
  C   C12       1.0  0.95156  0.10565  0.83469  1.0000
  C   C13       1.0  0.96904  0.48971  0.30849  1.0000
  C   C14       1.0  0.76542  0.00963  0.19150  1.0000
  C   C15       1.0  0.03096  0.51029  0.69152  1.0000
  C   C16       1.0  0.23458  0.99036  0.80850  1.0000
  C   C17       1.0  0.35435  0.63083  0.91356  1.0000
  C   C18       1.0  0.89647  0.86975  0.58573  1.0000
  C   C19       1.0  0.64566  0.36917  0.08644  1.0000
  C   C20       1.0  0.10352  0.13025  0.41427  1.0000
  C   C21       1.0  0.51935  0.66703  0.04235  1.0000
  C   C22       1.0  0.22825  0.83303  0.45684  1.0000
  C   C23       1.0  0.48066  0.33297  0.95765  1.0000
  C   C24       1.0  0.77173  0.16697  0.54315  1.0000
  C   C25       1.0  0.24057  0.62176  0.00038  1.0000
  C   C26       1.0  0.86132  0.87859  0.49903  1.0000
  C   C27       1.0  0.75944  0.37824  0.99962  1.0000
  C   C28       1.0  0.13866  0.12142  0.50097  1.0000
  C   C29       1.0  0.32494  0.63997  0.06472  1.0000
  C   C30       1.0  0.02918  0.86013  0.43466  1.0000
  C   C31       1.0  0.67507  0.36003  0.93528  1.0000
  C   C32       1.0  0.97080  0.13987  0.56535  1.0000
  C   C33       1.0  0.54899  0.65661  0.88971  1.0000
  C   C34       1.0  0.09292  0.84366  0.60950  1.0000
  C   C35       1.0  0.45103  0.34339  0.11029  1.0000
  C   C36       1.0  0.90708  0.15634  0.39050  1.0000
  C   C37       1.0  0.63036  0.67476  0.95478  1.0000
  C   C38       1.0  0.25840  0.82527  0.54436  1.0000
  C   C39       1.0  0.36965  0.32524  0.04522  1.0000
  C   C40       1.0  0.74159  0.17473  0.45564  1.0000
  C   C41       1.0  0.39798  0.51507  0.48196  1.0000
  C   C42       1.0  0.39504  0.98482  0.01838  1.0000
  C   C43       1.0  0.60205  0.48492  0.51804  1.0000
  C   C44       1.0  0.60496  0.01519  0.98162  1.0000
  C   C45       1.0  0.41924  0.47384  0.40160  1.0000
  C   C46       1.0  0.29446  0.02593  0.09888  1.0000
  C   C47       1.0  0.58077  0.52615  0.59840  1.0000
  C   C48       1.0  0.70553  0.97406  0.90112  1.0000
  N   N1        1.0  0.95042  0.60098  0.30041  1.0000
  N   N2        1.0  0.85080  0.89852  0.19922  1.0000
  N   N3        1.0  0.04959  0.39901  0.69959  1.0000
  N   N4        1.0  0.14920  0.10148  0.80078  1.0000
  N   N5        1.0  0.22645  0.50135  0.36505  1.0000
  N   N6        1.0  0.09230  0.99838  0.13557  1.0000
  N   N7        1.0  0.77356  0.49866  0.63495  1.0000
  N   N8        1.0  0.90769  0.00162  0.86442  1.0000
  N   N9        1.0  0.26681  0.61286  0.84468  1.0000
  N   N10       1.0  0.72117  0.88754  0.65481  1.0000
  N   N11       1.0  0.73320  0.38714  0.15532  1.0000
  N   N12       1.0  0.27883  0.11246  0.34519  1.0000
  O   O1        1.0  0.36542  0.62691  0.76616  1.0000
  O   O2        1.0  0.75464  0.87453  0.73301  1.0000
  O   O3        1.0  0.63459  0.37309  0.23384  1.0000
  O   O4        1.0  0.24537  0.12547  0.26699  1.0000
  O   O5        1.0  0.09732  0.58498  0.86780  1.0000
  O   O6        1.0  0.54685  0.91394  0.63231  1.0000
  O   O7        1.0  0.90269  0.41502  0.13220  1.0000
  O   O8        1.0  0.45314  0.08605  0.36769  1.0000
  O   O9        1.0  0.50708  0.67228  0.19282  1.0000
  O   O10       1.0  0.37356  0.82555  0.30693  1.0000
  O   O11       1.0  0.49293  0.32773  0.80719  1.0000
  O   O12       1.0  0.62643  0.17446  0.69305  1.0000
  O   O13       1.0  0.76849  0.73036  0.08545  1.0000
  O   O14       1.0  0.58494  0.76970  0.41369  1.0000
  O   O15       1.0  0.23152  0.26965  0.91456  1.0000
  O   O16       1.0  0.41504  0.23029  0.58630  1.0000
