data_image0
_chemical_formula_structural       Cu2Hg2H8C20S8N12
_chemical_formula_sum              "Cu2 Hg2 H8 C20 S8 N12"
_cell_length_a       8.22723
_cell_length_b       8.22713
_cell_length_c       12.0537
_cell_angle_alpha    84.1015
_cell_angle_beta     84.1026
_cell_angle_gamma    87.7088

_space_group_name_H-M_alt    "P 1"
_space_group_IT_number       1

loop_
  _space_group_symop_operation_xyz
  'x, y, z'

loop_
  _atom_site_type_symbol
  _atom_site_label
  _atom_site_symmetry_multiplicity
  _atom_site_fract_x
  _atom_site_fract_y
  _atom_site_fract_z
  _atom_site_occupancy
  Cu  Cu1       1.0  0.86879  0.09572  0.62948  1.0000
  Cu  Cu2       1.0  0.09571  0.86878  0.12948  1.0000
  Hg  Hg1       1.0  0.38242  0.62822  0.75567  1.0000
  Hg  Hg2       1.0  0.62823  0.38242  0.25567  1.0000
  H   H1        1.0  0.06162  0.19965  0.41424  1.0000
  H   H2        1.0  0.19965  0.06163  0.91424  1.0000
  H   H3        1.0  0.17353  0.46033  0.31394  1.0000
  H   H4        1.0  0.46032  0.17353  0.81393  1.0000
  H   H5        1.0  0.97918  0.70555  0.60256  1.0000
  H   H6        1.0  0.70554  0.97918  0.10255  1.0000
  H   H7        1.0  0.87377  0.43564  0.68986  1.0000
  H   H8        1.0  0.43563  0.87378  0.18985  1.0000
  C   C1        1.0  0.04633  0.31500  0.45189  1.0000
  C   C2        1.0  0.31498  0.04633  0.95189  1.0000
  C   C3        1.0  0.10900  0.45933  0.39718  1.0000
  C   C4        1.0  0.45930  0.10900  0.89717  1.0000
  C   C5        1.0  0.08602  0.60297  0.45134  1.0000
  C   C6        1.0  0.60296  0.08601  0.95134  1.0000
  C   C7        1.0  0.00003  0.59666  0.55823  1.0000
  C   C8        1.0  0.59664  0.00003  0.05823  1.0000
  C   C9        1.0  0.94070  0.44722  0.60682  1.0000
  C   C10       1.0  0.44722  0.94070  0.10681  1.0000
  C   C11       1.0  0.15142  0.75369  0.39993  1.0000
  C   C12       1.0  0.75367  0.15141  0.89991  1.0000
  C   C13       1.0  0.55167  0.30473  0.62263  1.0000
  C   C14       1.0  0.30474  0.55167  0.12264  1.0000
  C   C15       1.0  0.05695  0.70593  0.91314  1.0000
  C   C16       1.0  0.70593  0.05693  0.41313  1.0000
  C   C17       1.0  0.22376  0.95977  0.63456  1.0000
  C   C18       1.0  0.95976  0.22375  0.13456  1.0000
  C   C19       1.0  0.72170  0.78339  0.77450  1.0000
  C   C20       1.0  0.78339  0.72171  0.27450  1.0000
  S   S1        1.0  0.39394  0.42070  0.59379  1.0000
  S   S2        1.0  0.42071  0.39393  0.09380  1.0000
  S   S3        1.0  0.10977  0.53886  0.85193  1.0000
  S   S4        1.0  0.53887  0.10976  0.35192  1.0000
  S   S5        1.0  0.41479  0.89703  0.62305  1.0000
  S   S6        1.0  0.89704  0.41479  0.12306  1.0000
  S   S7        1.0  0.64239  0.62981  0.85791  1.0000
  S   S8        1.0  0.62980  0.64240  0.35790  1.0000
  N   N1        1.0  0.96363  0.31060  0.55427  1.0000
  N   N2        1.0  0.31060  0.96364  0.05426  1.0000
  N   N3        1.0  0.20579  0.87658  0.35810  1.0000
  N   N4        1.0  0.87657  0.20577  0.85810  1.0000
  N   N5        1.0  0.66188  0.21666  0.64730  1.0000
  N   N6        1.0  0.21667  0.66187  0.14731  1.0000
  N   N7        1.0  0.01438  0.82098  0.96091  1.0000
  N   N8        1.0  0.82098  0.01438  0.46091  1.0000
  N   N9        1.0  0.08784  0.01085  0.64209  1.0000
  N   N10       1.0  0.01085  0.08783  0.14209  1.0000
  N   N11       1.0  0.77873  0.89367  0.71537  1.0000
  N   N12       1.0  0.89368  0.77871  0.21537  1.0000
