data_image0
_chemical_formula_structural       Zn4H52C40N12O20
_chemical_formula_sum              "Zn4 H52 C40 N12 O20"
_cell_length_a       8.64403
_cell_length_b       9.14061
_cell_length_c       16.186
_cell_angle_alpha    90
_cell_angle_beta     90
_cell_angle_gamma    96.1313

_space_group_name_H-M_alt    "P 1"
_space_group_IT_number       1

loop_
  _space_group_symop_operation_xyz
  'x, y, z'

loop_
  _atom_site_type_symbol
  _atom_site_label
  _atom_site_symmetry_multiplicity
  _atom_site_fract_x
  _atom_site_fract_y
  _atom_site_fract_z
  _atom_site_occupancy
  Zn  Zn1       1.0  0.29656  0.69246  0.17128  1.0000
  Zn  Zn2       1.0  0.20344  0.30754  0.67128  1.0000
  Zn  Zn3       1.0  0.70344  0.30754  0.82872  1.0000
  Zn  Zn4       1.0  0.79656  0.69246  0.32872  1.0000
  H   H1        1.0  0.08979  0.87067  0.44480  1.0000
  H   H2        1.0  0.41021  0.12933  0.94480  1.0000
  H   H3        1.0  0.91021  0.12933  0.55520  1.0000
  H   H4        1.0  0.58979  0.87067  0.05520  1.0000
  H   H5        1.0  0.29442  0.84839  0.44200  1.0000
  H   H6        1.0  0.20558  0.15162  0.94199  1.0000
  H   H7        1.0  0.70558  0.15161  0.55801  1.0000
  H   H8        1.0  0.79442  0.84839  0.05801  1.0000
  H   H9        1.0  0.15314  0.69874  0.46875  1.0000
  H   H10       1.0  0.34686  0.30126  0.96875  1.0000
  H   H11       1.0  0.84686  0.30126  0.53125  1.0000
  H   H12       1.0  0.65314  0.69874  0.03125  1.0000
  H   H13       1.0  0.37237  0.74872  0.86928  1.0000
  H   H14       1.0  0.12763  0.25128  0.36928  1.0000
  H   H15       1.0  0.62763  0.25128  0.13072  1.0000
  H   H16       1.0  0.87237  0.74872  0.63072  1.0000
  H   H17       1.0  0.26105  0.57705  0.85284  1.0000
  H   H18       1.0  0.23895  0.42295  0.35284  1.0000
  H   H19       1.0  0.73895  0.42295  0.14716  1.0000
  H   H20       1.0  0.76105  0.57705  0.64716  1.0000
  H   H21       1.0  0.44618  0.58443  0.90335  1.0000
  H   H22       1.0  0.05383  0.41557  0.40335  1.0000
  H   H23       1.0  0.55382  0.41557  0.09665  1.0000
  H   H24       1.0  0.94617  0.58443  0.59665  1.0000
  H   H25       1.0  0.07431  0.88925  0.07707  1.0000
  H   H26       1.0  0.42569  0.11075  0.57707  1.0000
  H   H27       1.0  0.92569  0.11075  0.92293  1.0000
  H   H28       1.0  0.57431  0.88925  0.42293  1.0000
  H   H29       1.0  0.02235  0.15362  0.07925  1.0000
  H   H30       1.0  0.47765  0.84638  0.57925  1.0000
  H   H31       1.0  0.97765  0.84638  0.92075  1.0000
  H   H32       1.0  0.52235  0.15362  0.42075  1.0000
  H   H33       1.0  0.41221  0.23740  0.24555  1.0000
  H   H34       1.0  0.08779  0.76261  0.74555  1.0000
  H   H35       1.0  0.58779  0.76260  0.75445  1.0000
  H   H36       1.0  0.91221  0.23739  0.25446  1.0000
  H   H37       1.0  0.44234  0.96471  0.23952  1.0000
  H   H38       1.0  0.05766  0.03529  0.73952  1.0000
  H   H39       1.0  0.55766  0.03529  0.76048  1.0000
  H   H40       1.0  0.94234  0.96471  0.26048  1.0000
  H   H41       1.0  0.99515  0.37092  0.09946  1.0000
  H   H42       1.0  0.50485  0.62909  0.59946  1.0000
  H   H43       1.0  0.00485  0.62908  0.90054  1.0000
  H   H44       1.0  0.49515  0.37091  0.40054  1.0000
  H   H45       1.0  0.98422  0.60855  0.18350  1.0000
  H   H46       1.0  0.51578  0.39145  0.68350  1.0000
  H   H47       1.0  0.01578  0.39145  0.81650  1.0000
  H   H48       1.0  0.48421  0.60855  0.31650  1.0000
  H   H49       1.0  0.04730  0.62072  0.08393  1.0000
  H   H50       1.0  0.45270  0.37928  0.58393  1.0000
  H   H51       1.0  0.95270  0.37928  0.91607  1.0000
  H   H52       1.0  0.54730  0.62072  0.41607  1.0000
  C   C1        1.0  0.16326  0.74896  0.33969  1.0000
  C   C2        1.0  0.33675  0.25104  0.83969  1.0000
  C   C3        1.0  0.83674  0.25104  0.66031  1.0000
  C   C4        1.0  0.66325  0.74896  0.16031  1.0000
  C   C5        1.0  0.17685  0.79629  0.42921  1.0000
  C   C6        1.0  0.32315  0.20371  0.92921  1.0000
  C   C7        1.0  0.82315  0.20370  0.57079  1.0000
  C   C8        1.0  0.67684  0.79629  0.07079  1.0000
  C   C9        1.0  0.26349  0.65996  0.97887  1.0000
  C   C10       1.0  0.23652  0.34004  0.47887  1.0000
  C   C11       1.0  0.73652  0.34003  0.02113  1.0000
  C   C12       1.0  0.76348  0.65996  0.52113  1.0000
  C   C13       1.0  0.34033  0.63913  0.89627  1.0000
  C   C14       1.0  0.15968  0.36087  0.39627  1.0000
  C   C15       1.0  0.65968  0.36087  0.10373  1.0000
  C   C16       1.0  0.84032  0.63913  0.60373  1.0000
  C   C17       1.0  0.14471  0.97000  0.11468  1.0000
  C   C18       1.0  0.35529  0.03001  0.61468  1.0000
  C   C19       1.0  0.85529  0.03000  0.88532  1.0000
  C   C20       1.0  0.64471  0.96999  0.38532  1.0000
  C   C21       1.0  0.11764  0.11761  0.11560  1.0000
  C   C22       1.0  0.38236  0.88239  0.61560  1.0000
  C   C23       1.0  0.88236  0.88239  0.88440  1.0000
  C   C24       1.0  0.61764  0.11761  0.38440  1.0000
  C   C25       1.0  0.21585  0.21647  0.16296  1.0000
  C   C26       1.0  0.28415  0.78353  0.66296  1.0000
  C   C27       1.0  0.78415  0.78353  0.83704  1.0000
  C   C28       1.0  0.71585  0.21647  0.33704  1.0000
  C   C29       1.0  0.33496  0.16201  0.20843  1.0000
  C   C30       1.0  0.16504  0.83799  0.70843  1.0000
  C   C31       1.0  0.66504  0.83799  0.79157  1.0000
  C   C32       1.0  0.83496  0.16201  0.29157  1.0000
  C   C33       1.0  0.35238  0.01309  0.20494  1.0000
  C   C34       1.0  0.14762  0.98691  0.70494  1.0000
  C   C35       1.0  0.64762  0.98691  0.79506  1.0000
  C   C36       1.0  0.85238  0.01309  0.29506  1.0000
  C   C37       1.0  0.20605  0.37874  0.16763  1.0000
  C   C38       1.0  0.29395  0.62126  0.66763  1.0000
  C   C39       1.0  0.79395  0.62126  0.83237  1.0000
  C   C40       1.0  0.70605  0.37874  0.33237  1.0000
  N   N1        1.0  0.25931  0.91847  0.15847  1.0000
  N   N2        1.0  0.24069  0.08153  0.65847  1.0000
  N   N3        1.0  0.74069  0.08153  0.84153  1.0000
  N   N4        1.0  0.75931  0.91847  0.34153  1.0000
  N   N5        1.0  0.07665  0.43044  0.13876  1.0000
  N   N6        1.0  0.42335  0.56956  0.63876  1.0000
  N   N7        1.0  0.92335  0.56956  0.86124  1.0000
  N   N8        1.0  0.57665  0.43044  0.36124  1.0000
  N   N9        1.0  0.06906  0.58353  0.14286  1.0000
  N   N10       1.0  0.43094  0.41647  0.64286  1.0000
  N   N11       1.0  0.93094  0.41647  0.85714  1.0000
  N   N12       1.0  0.56906  0.58353  0.35714  1.0000
  O   O1        1.0  0.28856  0.72505  0.30282  1.0000
  O   O2        1.0  0.21144  0.27496  0.80282  1.0000
  O   O3        1.0  0.71144  0.27495  0.69718  1.0000
  O   O4        1.0  0.78856  0.72504  0.19718  1.0000
  O   O5        1.0  0.03196  0.73627  0.30356  1.0000
  O   O6        1.0  0.46804  0.26373  0.80356  1.0000
  O   O7        1.0  0.96804  0.26373  0.69644  1.0000
  O   O8        1.0  0.53196  0.73627  0.19644  1.0000
  O   O9        1.0  0.34637  0.65296  0.04310  1.0000
  O   O10       1.0  0.15364  0.34703  0.54310  1.0000
  O   O11       1.0  0.65364  0.34703  0.95690  1.0000
  O   O12       1.0  0.84636  0.65297  0.45690  1.0000
  O   O13       1.0  0.12004  0.68626  0.97922  1.0000
  O   O14       1.0  0.37996  0.31374  0.47922  1.0000
  O   O15       1.0  0.87996  0.31374  0.02078  1.0000
  O   O16       1.0  0.62003  0.68626  0.52078  1.0000
  O   O17       1.0  0.31669  0.45934  0.19970  1.0000
  O   O18       1.0  0.18330  0.54066  0.69971  1.0000
  O   O19       1.0  0.68331  0.54066  0.80030  1.0000
  O   O20       1.0  0.81669  0.45934  0.30029  1.0000
