data_image0
_chemical_formula_structural       Cd2H14C22N18
_chemical_formula_sum              "Cd2 H14 C22 N18"
_cell_length_a       7.72595
_cell_length_b       9.90162
_cell_length_c       9.47859
_cell_angle_alpha    89.7007
_cell_angle_beta     105.528
_cell_angle_gamma    111.949

_space_group_name_H-M_alt    "P 1"
_space_group_IT_number       1

loop_
  _space_group_symop_operation_xyz
  'x, y, z'

loop_
  _atom_site_type_symbol
  _atom_site_label
  _atom_site_symmetry_multiplicity
  _atom_site_fract_x
  _atom_site_fract_y
  _atom_site_fract_z
  _atom_site_occupancy
  Cd  Cd1       1.0  0.89907  0.16167  0.20131  1.0000
  Cd  Cd2       1.0  0.10092  0.83833  0.79869  1.0000
  H   H1        1.0  0.26644  0.72640  0.39007  1.0000
  H   H2        1.0  0.73355  0.27360  0.60992  1.0000
  H   H3        1.0  0.87718  0.44913  0.09897  1.0000
  H   H4        1.0  0.12281  0.55087  0.90103  1.0000
  H   H5        1.0  0.00980  0.63675  0.13661  1.0000
  H   H6        1.0  0.99019  0.36324  0.86339  1.0000
  H   H7        1.0  0.52265  0.72470  0.68082  1.0000
  H   H8        1.0  0.47736  0.27531  0.31918  1.0000
  H   H9        1.0  0.59032  0.54619  0.85344  1.0000
  H   H10       1.0  0.40969  0.45382  0.14655  1.0000
  H   H11       1.0  0.40367  0.28005  0.78744  1.0000
  H   H12       1.0  0.59635  0.71995  0.21256  1.0000
  H   H13       1.0  0.14396  0.18121  0.55123  1.0000
  H   H14       1.0  0.85605  0.81880  0.44877  1.0000
  C   C1        1.0  0.18709  0.39832  0.48262  1.0000
  C   C2        1.0  0.81291  0.60168  0.51738  1.0000
  C   C3        1.0  0.29331  0.55087  0.52134  1.0000
  C   C4        1.0  0.70670  0.44913  0.47866  1.0000
  C   C5        1.0  0.43840  0.60743  0.65389  1.0000
  C   C6        1.0  0.56160  0.39258  0.34611  1.0000
  C   C7        1.0  0.47530  0.50682  0.74952  1.0000
  C   C8        1.0  0.52471  0.49318  0.25048  1.0000
  C   C9        1.0  0.36926  0.35578  0.71241  1.0000
  C   C10       1.0  0.63075  0.64423  0.28759  1.0000
  C   C11       1.0  0.22333  0.29893  0.57918  1.0000
  C   C12       1.0  0.77669  0.70108  0.42083  1.0000
  C   C13       1.0  0.08511  0.50889  0.29630  1.0000
  C   C14       1.0  0.91489  0.49111  0.70370  1.0000
  C   C15       1.0  0.20517  0.98299  0.31229  1.0000
  C   C16       1.0  0.79483  0.01701  0.68771  1.0000
  C   C17       1.0  0.50153  0.98268  0.31375  1.0000
  C   C18       1.0  0.49846  0.01731  0.68625  1.0000
  C   C19       1.0  0.48982  0.17793  0.01823  1.0000
  C   C20       1.0  0.51019  0.82207  0.98177  1.0000
  C   C21       1.0  0.18327  0.16982  0.00751  1.0000
  C   C22       1.0  0.81673  0.83017  0.99249  1.0000
  N   N1        1.0  0.05865  0.37543  0.34159  1.0000
  N   N2        1.0  0.94135  0.62457  0.65842  1.0000
  N   N3        1.0  0.22268  0.61666  0.40182  1.0000
  N   N4        1.0  0.77732  0.38334  0.59818  1.0000
  N   N5        1.0  0.99426  0.53394  0.16298  1.0000
  N   N6        1.0  0.00574  0.46605  0.83702  1.0000
  N   N7        1.0  0.08237  0.02913  0.29803  1.0000
  N   N8        1.0  0.91763  0.97087  0.70197  1.0000
  N   N9        1.0  0.32988  0.92090  0.33245  1.0000
  N   N10       1.0  0.67011  0.07909  0.66754  1.0000
  N   N11       1.0  0.66094  0.02839  0.30283  1.0000
  N   N12       1.0  0.33905  0.97161  0.69717  1.0000
  N   N13       1.0  0.65990  0.22482  0.03638  1.0000
  N   N14       1.0  0.34008  0.77517  0.96362  1.0000
  N   N15       1.0  0.30318  0.11318  0.99124  1.0000
  N   N16       1.0  0.69680  0.88681  0.00876  1.0000
  N   N17       1.0  0.05860  0.20845  0.01635  1.0000
  N   N18       1.0  0.94139  0.79155  0.98365  1.0000
