data_image0
_chemical_formula_structural       Cd4H36C44I4N24O4
_chemical_formula_sum              "Cd4 H36 C44 I4 N24 O4"
_cell_length_a       9.68938
_cell_length_b       12.2018
_cell_length_c       13.073
_cell_angle_alpha    94.6289
_cell_angle_beta     90
_cell_angle_gamma    90

_space_group_name_H-M_alt    "P 1"
_space_group_IT_number       1

loop_
  _space_group_symop_operation_xyz
  'x, y, z'

loop_
  _atom_site_type_symbol
  _atom_site_label
  _atom_site_symmetry_multiplicity
  _atom_site_fract_x
  _atom_site_fract_y
  _atom_site_fract_z
  _atom_site_occupancy
  Cd  Cd1       1.0  0.80153  0.26801  0.34036  1.0000
  Cd  Cd2       1.0  0.30152  0.73199  0.15964  1.0000
  Cd  Cd3       1.0  0.19847  0.73198  0.65964  1.0000
  Cd  Cd4       1.0  0.69848  0.26802  0.84035  1.0000
  H   H1        1.0  0.55372  0.06418  0.38175  1.0000
  H   H2        1.0  0.05372  0.93581  0.11825  1.0000
  H   H3        1.0  0.44626  0.93581  0.61826  1.0000
  H   H4        1.0  0.94627  0.06420  0.88174  1.0000
  H   H5        1.0  0.32674  0.05586  0.47685  1.0000
  H   H6        1.0  0.82674  0.94414  0.02315  1.0000
  H   H7        1.0  0.67327  0.94413  0.52319  1.0000
  H   H8        1.0  0.17326  0.05587  0.97683  1.0000
  H   H9        1.0  0.41232  0.35633  0.63543  1.0000
  H   H10       1.0  0.91232  0.64366  0.86457  1.0000
  H   H11       1.0  0.58767  0.64368  0.36457  1.0000
  H   H12       1.0  0.08767  0.35633  0.13543  1.0000
  H   H13       1.0  0.10397  0.55698  0.24696  1.0000
  H   H14       1.0  0.60398  0.44301  0.25304  1.0000
  H   H15       1.0  0.89603  0.44301  0.75303  1.0000
  H   H16       1.0  0.39602  0.55699  0.74696  1.0000
  H   H17       1.0  0.17702  0.88287  0.34782  1.0000
  H   H18       1.0  0.67702  0.11713  0.15219  1.0000
  H   H19       1.0  0.82297  0.11713  0.65216  1.0000
  H   H20       1.0  0.32299  0.88288  0.84782  1.0000
  H   H21       1.0  0.99860  0.87675  0.48694  1.0000
  H   H22       1.0  0.49860  0.12324  0.01306  1.0000
  H   H23       1.0  0.00138  0.12326  0.51303  1.0000
  H   H24       1.0  0.50139  0.87675  0.98695  1.0000
  H   H25       1.0  0.87219  0.69972  0.50507  1.0000
  H   H26       1.0  0.37219  0.30027  0.99494  1.0000
  H   H27       1.0  0.12780  0.30029  0.49492  1.0000
  H   H28       1.0  0.62779  0.69971  0.00508  1.0000
  H   H29       1.0  0.70003  0.54304  0.60320  1.0000
  H   H30       1.0  0.20003  0.45696  0.89680  1.0000
  H   H31       1.0  0.29998  0.45696  0.39680  1.0000
  H   H32       1.0  0.79997  0.54304  0.10320  1.0000
  H   H33       1.0  0.59686  0.46156  0.67613  1.0000
  H   H34       1.0  0.09686  0.53844  0.82387  1.0000
  H   H35       1.0  0.40315  0.53844  0.32387  1.0000
  H   H36       1.0  0.90314  0.46157  0.17613  1.0000
  C   C1        1.0  0.52158  0.13018  0.43823  1.0000
  C   C2        1.0  0.02158  0.86981  0.06177  1.0000
  C   C3        1.0  0.47842  0.86981  0.56179  1.0000
  C   C4        1.0  0.97842  0.13020  0.93821  1.0000
  C   C5        1.0  0.39707  0.12526  0.49203  1.0000
  C   C6        1.0  0.89708  0.87474  0.00797  1.0000
  C   C7        1.0  0.60293  0.87474  0.50800  1.0000
  C   C8        1.0  0.10292  0.12527  0.99201  1.0000
  C   C9        1.0  0.44429  0.29104  0.57850  1.0000
  C   C10       1.0  0.94430  0.70896  0.92150  1.0000
  C   C11       1.0  0.55570  0.70896  0.42151  1.0000
  C   C12       1.0  0.05570  0.29105  0.07850  1.0000
  C   C13       1.0  0.56679  0.29960  0.52215  1.0000
  C   C14       1.0  0.06679  0.70039  0.97785  1.0000
  C   C15       1.0  0.43321  0.70040  0.47786  1.0000
  C   C16       1.0  0.93322  0.29962  0.02214  1.0000
  C   C17       1.0  0.65324  0.39958  0.52953  1.0000
  C   C18       1.0  0.15323  0.60042  0.97047  1.0000
  C   C19       1.0  0.34677  0.60041  0.47048  1.0000
  C   C20       1.0  0.84677  0.39960  0.02952  1.0000
  C   C21       1.0  0.90333  0.50844  0.38062  1.0000
  C   C22       1.0  0.40333  0.49156  0.11938  1.0000
  C   C23       1.0  0.09667  0.49156  0.61938  1.0000
  C   C24       1.0  0.59666  0.50844  0.88062  1.0000
  C   C25       1.0  0.97716  0.61460  0.37667  1.0000
  C   C26       1.0  0.47716  0.38540  0.12333  1.0000
  C   C27       1.0  0.02284  0.38540  0.62332  1.0000
  C   C28       1.0  0.52284  0.61459  0.87667  1.0000
  C   C29       1.0  0.07773  0.62598  0.30169  1.0000
  C   C30       1.0  0.57774  0.37401  0.19831  1.0000
  C   C31       1.0  0.92226  0.37401  0.69830  1.0000
  C   C32       1.0  0.42226  0.62599  0.80169  1.0000
  C   C33       1.0  0.11848  0.80815  0.35869  1.0000
  C   C34       1.0  0.61849  0.19185  0.14132  1.0000
  C   C35       1.0  0.88151  0.19185  0.64129  1.0000
  C   C36       1.0  0.38152  0.80815  0.85869  1.0000
  C   C37       1.0  0.01953  0.80411  0.43543  1.0000
  C   C38       1.0  0.51953  0.19589  0.06457  1.0000
  C   C39       1.0  0.98047  0.19589  0.56455  1.0000
  C   C40       1.0  0.48047  0.80411  0.93544  1.0000
  C   C41       1.0  0.94922  0.70628  0.44538  1.0000
  C   C42       1.0  0.44922  0.29371  0.05462  1.0000
  C   C43       1.0  0.05078  0.29372  0.55460  1.0000
  C   C44       1.0  0.55077  0.70628  0.94539  1.0000
  I   I1        1.0  0.93098  0.07351  0.29155  1.0000
  I   I2        1.0  0.43093  0.92650  0.20846  1.0000
  I   I3        1.0  0.06905  0.92650  0.70843  1.0000
  I   I4        1.0  0.56907  0.07350  0.79158  1.0000
  N   N1        1.0  0.60483  0.21696  0.45306  1.0000
  N   N2        1.0  0.10483  0.78303  0.04694  1.0000
  N   N3        1.0  0.39517  0.78303  0.54695  1.0000
  N   N4        1.0  0.89518  0.21698  0.95304  1.0000
  N   N5        1.0  0.35930  0.20491  0.56281  1.0000
  N   N6        1.0  0.85930  0.79509  0.93719  1.0000
  N   N7        1.0  0.64070  0.79509  0.43721  1.0000
  N   N8        1.0  0.14070  0.20492  0.06280  1.0000
  N   N9        1.0  0.63061  0.48046  0.60476  1.0000
  N   N10       1.0  0.13062  0.51954  0.89524  1.0000
  N   N11       1.0  0.36939  0.51954  0.39524  1.0000
  N   N12       1.0  0.86939  0.48047  0.10476  1.0000
  N   N13       1.0  0.74304  0.40872  0.45506  1.0000
  N   N14       1.0  0.24304  0.59127  0.04494  1.0000
  N   N15       1.0  0.25696  0.59127  0.54494  1.0000
  N   N16       1.0  0.75697  0.40874  0.95506  1.0000
  N   N17       1.0  0.81397  0.50526  0.45785  1.0000
  N   N18       1.0  0.31397  0.49473  0.04216  1.0000
  N   N19       1.0  0.18604  0.49474  0.54215  1.0000
  N   N20       1.0  0.68603  0.50527  0.95784  1.0000
  N   N21       1.0  0.14717  0.72018  0.29345  1.0000
  N   N22       1.0  0.64718  0.27982  0.20655  1.0000
  N   N23       1.0  0.85282  0.27982  0.70654  1.0000
  N   N24       1.0  0.35283  0.72018  0.79345  1.0000
  O   O1        1.0  0.92907  0.42997  0.31037  1.0000
  O   O2        1.0  0.42908  0.57003  0.18963  1.0000
  O   O3        1.0  0.07093  0.57003  0.68963  1.0000
  O   O4        1.0  0.57092  0.42997  0.81037  1.0000
