data_image0
_chemical_formula_structural       Cu4H48C44N8O20
_chemical_formula_sum              "Cu4 H48 C44 N8 O20"
_cell_length_a       7.71996
_cell_length_b       10.7555
_cell_length_c       14.9796
_cell_angle_alpha    90
_cell_angle_beta     90.7117
_cell_angle_gamma    90

_space_group_name_H-M_alt    "P 1"
_space_group_IT_number       1

loop_
  _space_group_symop_operation_xyz
  'x, y, z'

loop_
  _atom_site_type_symbol
  _atom_site_label
  _atom_site_symmetry_multiplicity
  _atom_site_fract_x
  _atom_site_fract_y
  _atom_site_fract_z
  _atom_site_occupancy
  Cu  Cu1       1.0  0.38631  0.58697  0.99646  1.0000
  Cu  Cu2       1.0  0.61369  0.08697  0.50353  1.0000
  Cu  Cu3       1.0  0.61368  0.41303  0.00353  1.0000
  Cu  Cu4       1.0  0.38631  0.91303  0.49647  1.0000
  H   H1        1.0  0.28850  0.81852  0.72248  1.0000
  H   H2        1.0  0.71150  0.31852  0.77752  1.0000
  H   H3        1.0  0.71151  0.18147  0.27753  1.0000
  H   H4        1.0  0.28849  0.68147  0.22247  1.0000
  H   H5        1.0  0.29103  0.72040  0.81246  1.0000
  H   H6        1.0  0.70897  0.22039  0.68754  1.0000
  H   H7        1.0  0.70897  0.27960  0.18754  1.0000
  H   H8        1.0  0.29103  0.77960  0.31246  1.0000
  H   H9        1.0  0.54889  0.72768  0.73642  1.0000
  H   H10       1.0  0.45111  0.22769  0.76358  1.0000
  H   H11       1.0  0.45111  0.27232  0.26358  1.0000
  H   H12       1.0  0.54889  0.77233  0.23642  1.0000
  H   H13       1.0  0.02948  0.61003  0.85938  1.0000
  H   H14       1.0  0.97053  0.11003  0.64063  1.0000
  H   H15       1.0  0.97052  0.38997  0.14063  1.0000
  H   H16       1.0  0.02948  0.88997  0.35937  1.0000
  H   H17       1.0  0.03208  0.87487  0.64188  1.0000
  H   H18       1.0  0.96792  0.37487  0.85812  1.0000
  H   H19       1.0  0.96793  0.12513  0.35812  1.0000
  H   H20       1.0  0.03207  0.62513  0.14187  1.0000
  H   H21       1.0  0.26249  0.83162  0.10236  1.0000
  H   H22       1.0  0.73751  0.33162  0.39764  1.0000
  H   H23       1.0  0.73753  0.16837  0.89763  1.0000
  H   H24       1.0  0.26248  0.66837  0.60237  1.0000
  H   H25       1.0  0.20185  0.92820  0.87303  1.0000
  H   H26       1.0  0.79815  0.42820  0.62697  1.0000
  H   H27       1.0  0.79816  0.07179  0.12697  1.0000
  H   H28       1.0  0.20184  0.57180  0.37303  1.0000
  H   H29       1.0  0.34251  0.05770  0.89555  1.0000
  H   H30       1.0  0.65749  0.55769  0.60445  1.0000
  H   H31       1.0  0.65749  0.94231  0.10445  1.0000
  H   H32       1.0  0.34250  0.44231  0.39555  1.0000
  H   H33       1.0  0.11555  0.07485  0.90825  1.0000
  H   H34       1.0  0.88445  0.57485  0.59176  1.0000
  H   H35       1.0  0.88445  0.92515  0.09175  1.0000
  H   H36       1.0  0.11555  0.42515  0.40825  1.0000
  H   H37       1.0  0.14192  0.12534  0.07538  1.0000
  H   H38       1.0  0.85808  0.62534  0.42462  1.0000
  H   H39       1.0  0.85808  0.87466  0.92462  1.0000
  H   H40       1.0  0.14192  0.37465  0.57538  1.0000
  H   H41       1.0  0.37104  0.12301  0.06364  1.0000
  H   H42       1.0  0.62897  0.62302  0.43636  1.0000
  H   H43       1.0  0.62896  0.87699  0.93636  1.0000
  H   H44       1.0  0.37104  0.37698  0.56364  1.0000
  H   H45       1.0  0.26920  0.02155  0.14201  1.0000
  H   H46       1.0  0.73080  0.52156  0.35799  1.0000
  H   H47       1.0  0.73081  0.97844  0.85798  1.0000
  H   H48       1.0  0.26919  0.47843  0.64202  1.0000
  C   C1        1.0  0.68272  0.87908  0.61322  1.0000
  C   C2        1.0  0.31727  0.37909  0.88678  1.0000
  C   C3        1.0  0.31728  0.12091  0.38678  1.0000
  C   C4        1.0  0.68272  0.62092  0.11322  1.0000
  C   C5        1.0  0.78161  0.80667  0.68174  1.0000
  C   C6        1.0  0.21838  0.30667  0.81826  1.0000
  C   C7        1.0  0.21839  0.19333  0.31826  1.0000
  C   C8        1.0  0.78161  0.69333  0.18174  1.0000
  C   C9        1.0  0.68906  0.73271  0.74094  1.0000
  C   C10       1.0  0.31094  0.23272  0.75906  1.0000
  C   C11       1.0  0.31094  0.26729  0.25906  1.0000
  C   C12       1.0  0.68906  0.76729  0.24093  1.0000
  C   C13       1.0  0.77951  0.66407  0.80547  1.0000
  C   C14       1.0  0.22049  0.16407  0.69453  1.0000
  C   C15       1.0  0.22050  0.33593  0.19453  1.0000
  C   C16       1.0  0.77950  0.83593  0.30547  1.0000
  C   C17       1.0  0.67756  0.59515  0.87363  1.0000
  C   C18       1.0  0.32244  0.09516  0.62637  1.0000
  C   C19       1.0  0.32243  0.40485  0.12637  1.0000
  C   C20       1.0  0.67757  0.90485  0.37363  1.0000
  C   C21       1.0  0.96038  0.66549  0.80958  1.0000
  C   C22       1.0  0.03962  0.16548  0.69042  1.0000
  C   C23       1.0  0.03962  0.33451  0.19042  1.0000
  C   C24       1.0  0.96038  0.83452  0.30958  1.0000
  C   C25       1.0  0.05340  0.74239  0.75082  1.0000
  C   C26       1.0  0.94660  0.24239  0.74918  1.0000
  C   C27       1.0  0.94661  0.25761  0.24918  1.0000
  C   C28       1.0  0.05339  0.75761  0.25082  1.0000
  C   C29       1.0  0.96203  0.81397  0.68709  1.0000
  C   C30       1.0  0.03797  0.31397  0.81291  1.0000
  C   C31       1.0  0.03798  0.18602  0.31292  1.0000
  C   C32       1.0  0.96202  0.68603  0.18708  1.0000
  C   C33       1.0  0.24421  0.84775  0.02997  1.0000
  C   C34       1.0  0.75579  0.34775  0.47004  1.0000
  C   C35       1.0  0.75580  0.15224  0.97002  1.0000
  C   C36       1.0  0.24420  0.65224  0.52998  1.0000
  C   C37       1.0  0.22382  0.00928  0.91578  1.0000
  C   C38       1.0  0.77618  0.50927  0.58422  1.0000
  C   C39       1.0  0.77619  0.99073  0.08422  1.0000
  C   C40       1.0  0.22381  0.49072  0.41578  1.0000
  C   C41       1.0  0.25672  0.06483  0.07597  1.0000
  C   C42       1.0  0.74328  0.56483  0.42403  1.0000
  C   C43       1.0  0.74329  0.93517  0.92402  1.0000
  C   C44       1.0  0.25671  0.43516  0.57598  1.0000
  N   N1        1.0  0.23263  0.74519  0.75377  1.0000
  N   N2        1.0  0.76736  0.24519  0.74623  1.0000
  N   N3        1.0  0.76737  0.25481  0.24624  1.0000
  N   N4        1.0  0.23263  0.75481  0.25376  1.0000
  N   N5        1.0  0.23947  0.96874  0.00805  1.0000
  N   N6        1.0  0.76053  0.46874  0.49195  1.0000
  N   N7        1.0  0.76054  0.03127  0.99194  1.0000
  N   N8        1.0  0.23946  0.53126  0.50806  1.0000
  O   O1        1.0  0.74690  0.98228  0.58802  1.0000
  O   O2        1.0  0.25309  0.48228  0.91198  1.0000
  O   O3        1.0  0.25310  0.01772  0.41198  1.0000
  O   O4        1.0  0.74690  0.51772  0.08802  1.0000
  O   O5        1.0  0.53975  0.83111  0.58622  1.0000
  O   O6        1.0  0.46025  0.33111  0.91378  1.0000
  O   O7        1.0  0.46025  0.16889  0.41379  1.0000
  O   O8        1.0  0.53975  0.66890  0.08621  1.0000
  O   O9        1.0  0.53536  0.64609  0.89673  1.0000
  O   O10       1.0  0.46464  0.14610  0.60327  1.0000
  O   O11       1.0  0.46464  0.35390  0.10327  1.0000
  O   O12       1.0  0.53536  0.85391  0.39673  1.0000
  O   O13       1.0  0.73998  0.49367  0.90425  1.0000
  O   O14       1.0  0.26001  0.99368  0.59575  1.0000
  O   O15       1.0  0.26001  0.50632  0.09575  1.0000
  O   O16       1.0  0.73999  0.00632  0.40425  1.0000
  O   O17       1.0  0.23038  0.76003  0.97532  1.0000
  O   O18       1.0  0.76963  0.26003  0.52468  1.0000
  O   O19       1.0  0.76963  0.23998  0.02467  1.0000
  O   O20       1.0  0.23037  0.73998  0.47533  1.0000
