data_image0
_chemical_formula_structural       Zn6H44C44S4N24O24
_chemical_formula_sum              "Zn6 H44 C44 S4 N24 O24"
_cell_length_a       8.90952
_cell_length_b       11.0566
_cell_length_c       16.781
_cell_angle_alpha    90
_cell_angle_beta     90
_cell_angle_gamma    113.76

_space_group_name_H-M_alt    "P 1"
_space_group_IT_number       1

loop_
  _space_group_symop_operation_xyz
  'x, y, z'

loop_
  _atom_site_type_symbol
  _atom_site_label
  _atom_site_symmetry_multiplicity
  _atom_site_fract_x
  _atom_site_fract_y
  _atom_site_fract_z
  _atom_site_occupancy
  Zn  Zn1       1.0  0.53632  0.44487  0.06771  1.0000
  Zn  Zn2       1.0  0.09144  0.55511  0.93231  1.0000
  Zn  Zn3       1.0  0.59145  0.55511  0.56769  1.0000
  Zn  Zn4       1.0  0.03632  0.44487  0.43229  1.0000
  Zn  Zn5       1.0  0.63354  0.99992  0.00007  1.0000
  Zn  Zn6       1.0  0.13354  0.99992  0.49993  1.0000
  H   H1        1.0  0.90550  0.68362  0.04118  1.0000
  H   H2        1.0  0.22169  0.31630  0.95897  1.0000
  H   H3        1.0  0.72169  0.31630  0.54102  1.0000
  H   H4        1.0  0.40551  0.68362  0.45881  1.0000
  H   H5        1.0  0.12902  0.82453  0.13431  1.0000
  H   H6        1.0  0.30464  0.17549  0.86593  1.0000
  H   H7        1.0  0.80466  0.17550  0.63407  1.0000
  H   H8        1.0  0.62901  0.82453  0.36569  1.0000
  H   H9        1.0  0.83505  0.65300  0.32973  1.0000
  H   H10       1.0  0.18265  0.34708  0.67039  1.0000
  H   H11       1.0  0.68264  0.34709  0.82961  1.0000
  H   H12       1.0  0.33504  0.65299  0.17027  1.0000
  H   H13       1.0  0.99737  0.16600  0.02395  1.0000
  H   H14       1.0  0.83153  0.83390  0.97611  1.0000
  H   H15       1.0  0.33153  0.83391  0.52389  1.0000
  H   H16       1.0  0.49736  0.16599  0.47605  1.0000
  H   H17       1.0  0.63277  0.89791  0.16586  1.0000
  H   H18       1.0  0.73484  0.10201  0.83431  1.0000
  H   H19       1.0  0.23483  0.10201  0.66569  1.0000
  H   H20       1.0  0.13277  0.89791  0.33413  1.0000
  H   H21       1.0  0.81955  0.95091  0.28379  1.0000
  H   H22       1.0  0.86854  0.04909  0.71635  1.0000
  H   H23       1.0  0.36853  0.04909  0.78365  1.0000
  H   H24       1.0  0.31956  0.95091  0.21621  1.0000
  H   H25       1.0  0.10767  0.12234  0.26909  1.0000
  H   H26       1.0  0.98530  0.87766  0.73095  1.0000
  H   H27       1.0  0.48531  0.87767  0.76905  1.0000
  H   H28       1.0  0.60768  0.12234  0.23091  1.0000
  H   H29       1.0  0.41569  0.38375  0.33442  1.0000
  H   H30       1.0  0.03250  0.61635  0.66561  1.0000
  H   H31       1.0  0.53250  0.61635  0.83439  1.0000
  H   H32       1.0  0.91568  0.38375  0.16558  1.0000
  H   H33       1.0  0.60808  0.49880  0.36304  1.0000
  H   H34       1.0  0.10970  0.50119  0.63701  1.0000
  H   H35       1.0  0.60970  0.50120  0.86298  1.0000
  H   H36       1.0  0.10808  0.49880  0.13696  1.0000
  H   H37       1.0  0.39492  0.07985  0.05689  1.0000
  H   H38       1.0  0.31496  0.92001  0.94313  1.0000
  H   H39       1.0  0.81495  0.92001  0.55687  1.0000
  H   H40       1.0  0.89492  0.07984  0.44312  1.0000
  H   H41       1.0  0.56524  0.14618  0.09650  1.0000
  H   H42       1.0  0.41916  0.85398  0.90346  1.0000
  H   H43       1.0  0.91916  0.85398  0.59654  1.0000
  H   H44       1.0  0.06524  0.14618  0.40350  1.0000
  C   C1        1.0  0.88865  0.67574  0.10574  1.0000
  C   C2        1.0  0.21282  0.32417  0.89441  1.0000
  C   C3        1.0  0.71282  0.32418  0.60558  1.0000
  C   C4        1.0  0.38866  0.67574  0.39426  1.0000
  C   C5        1.0  0.01206  0.75411  0.15771  1.0000
  C   C6        1.0  0.25809  0.24588  0.84248  1.0000
  C   C7        1.0  0.75809  0.24588  0.65752  1.0000
  C   C8        1.0  0.51206  0.75411  0.34229  1.0000
  C   C9        1.0  0.84962  0.65734  0.26498  1.0000
  C   C10       1.0  0.19266  0.34266  0.73514  1.0000
  C   C11       1.0  0.69266  0.34266  0.76485  1.0000
  C   C12       1.0  0.34962  0.65734  0.23502  1.0000
  C   C13       1.0  0.72590  0.57526  0.21398  1.0000
  C   C14       1.0  0.15089  0.42472  0.78610  1.0000
  C   C15       1.0  0.65088  0.42472  0.71389  1.0000
  C   C16       1.0  0.22590  0.57526  0.28602  1.0000
  C   C17       1.0  0.56737  0.47393  0.24106  1.0000
  C   C18       1.0  0.09382  0.52610  0.75898  1.0000
  C   C19       1.0  0.59382  0.52610  0.74102  1.0000
  C   C20       1.0  0.06737  0.47394  0.25894  1.0000
  C   C21       1.0  0.24569  0.25281  0.13419  1.0000
  C   C22       1.0  0.99301  0.74717  0.86581  1.0000
  C   C23       1.0  0.49302  0.74718  0.63419  1.0000
  C   C24       1.0  0.74569  0.25281  0.36581  1.0000
  C   C25       1.0  0.07576  0.15401  0.14512  1.0000
  C   C26       1.0  0.92177  0.84590  0.85492  1.0000
  C   C27       1.0  0.42178  0.84591  0.64508  1.0000
  C   C28       1.0  0.57576  0.15402  0.35488  1.0000
  C   C29       1.0  0.96317  0.11992  0.08232  1.0000
  C   C30       1.0  0.84333  0.88000  0.91775  1.0000
  C   C31       1.0  0.34334  0.88001  0.58225  1.0000
  C   C32       1.0  0.46317  0.11992  0.41768  1.0000
  C   C33       1.0  0.75791  0.97185  0.16183  1.0000
  C   C34       1.0  0.78605  0.02808  0.83831  1.0000
  C   C35       1.0  0.28605  0.02808  0.66169  1.0000
  C   C36       1.0  0.25791  0.97185  0.33817  1.0000
  C   C37       1.0  0.86262  0.00092  0.22727  1.0000
  C   C38       1.0  0.86168  0.99905  0.77284  1.0000
  C   C39       1.0  0.36168  0.99905  0.72716  1.0000
  C   C40       1.0  0.36262  0.00092  0.27273  1.0000
  C   C41       1.0  0.02213  0.09447  0.21940  1.0000
  C   C42       1.0  0.92762  0.90548  0.78065  1.0000
  C   C43       1.0  0.42762  0.90549  0.71935  1.0000
  C   C44       1.0  0.52213  0.09447  0.28060  1.0000
  S   S1        1.0  0.76223  0.32691  0.00992  1.0000
  S   S2        1.0  0.43535  0.67317  0.99009  1.0000
  S   S3        1.0  0.93536  0.67317  0.50991  1.0000
  S   S4        1.0  0.26223  0.32692  0.49008  1.0000
  N   N1        1.0  0.74813  0.58692  0.13424  1.0000
  N   N2        1.0  0.16117  0.41298  0.86585  1.0000
  N   N3        1.0  0.66116  0.41298  0.63414  1.0000
  N   N4        1.0  0.24813  0.58693  0.36576  1.0000
  N   N5        1.0  0.99246  0.74544  0.23679  1.0000
  N   N6        1.0  0.24735  0.25456  0.76339  1.0000
  N   N7        1.0  0.74735  0.25457  0.73660  1.0000
  N   N8        1.0  0.49245  0.74544  0.26321  1.0000
  N   N9        1.0  0.52853  0.45299  0.31846  1.0000
  N   N10       1.0  0.07602  0.54706  0.68157  1.0000
  N   N11       1.0  0.57601  0.54706  0.81843  1.0000
  N   N12       1.0  0.02853  0.45299  0.18154  1.0000
  N   N13       1.0  0.46919  0.40999  0.18263  1.0000
  N   N14       1.0  0.05956  0.59009  0.81738  1.0000
  N   N15       1.0  0.55956  0.59010  0.68262  1.0000
  N   N16       1.0  0.96919  0.40999  0.31737  1.0000
  N   N17       1.0  0.31872  0.31569  0.20046  1.0000
  N   N18       1.0  0.00342  0.68441  0.79953  1.0000
  N   N19       1.0  0.50342  0.68441  0.70047  1.0000
  N   N20       1.0  0.81872  0.31569  0.29954  1.0000
  N   N21       1.0  0.80679  0.03258  0.09109  1.0000
  N   N22       1.0  0.77426  0.96734  0.90904  1.0000
  N   N23       1.0  0.27426  0.96734  0.59096  1.0000
  N   N24       1.0  0.30679  0.03258  0.40891  1.0000
  O   O1        1.0  0.30999  0.27248  0.06334  1.0000
  O   O2        1.0  0.03747  0.72744  0.93669  1.0000
  O   O3        1.0  0.53749  0.72746  0.56330  1.0000
  O   O4        1.0  0.80998  0.27249  0.43667  1.0000
  O   O5        1.0  0.65504  0.39265  0.97850  1.0000
  O   O6        1.0  0.26242  0.60716  0.02145  1.0000
  O   O7        1.0  0.76243  0.60715  0.47855  1.0000
  O   O8        1.0  0.15503  0.39264  0.52151  1.0000
  O   O9        1.0  0.73721  0.20957  0.96026  1.0000
  O   O10       1.0  0.52724  0.79062  0.03978  1.0000
  O   O11       1.0  0.02724  0.79063  0.46022  1.0000
  O   O12       1.0  0.23723  0.20958  0.53975  1.0000
  O   O13       1.0  0.93727  0.42257  0.00766  1.0000
  O   O14       1.0  0.51513  0.57780  0.99250  1.0000
  O   O15       1.0  0.01515  0.57781  0.50750  1.0000
  O   O16       1.0  0.43727  0.42259  0.49234  1.0000
  O   O17       1.0  0.71948  0.29011  0.09507  1.0000
  O   O18       1.0  0.42954  0.70990  0.90494  1.0000
  O   O19       1.0  0.92953  0.70990  0.59506  1.0000
  O   O20       1.0  0.21947  0.29011  0.40494  1.0000
  O   O21       1.0  0.47907  0.05656  0.08153  1.0000
  O   O22       1.0  0.42247  0.94351  0.91851  1.0000
  O   O23       1.0  0.92247  0.94351  0.58149  1.0000
  O   O24       1.0  0.97907  0.05655  0.41847  1.0000
