data_image0
_chemical_formula_structural       K2Sr2Sm2H12C32N4O26
_chemical_formula_sum              "K2 Sr2 Sm2 H12 C32 N4 O26"
_cell_length_a       8.0885
_cell_length_b       10.8665
_cell_length_c       12.1192
_cell_angle_alpha    75.6698
_cell_angle_beta     71.1226
_cell_angle_gamma    74.727

_space_group_name_H-M_alt    "P 1"
_space_group_IT_number       1

loop_
  _space_group_symop_operation_xyz
  'x, y, z'

loop_
  _atom_site_type_symbol
  _atom_site_label
  _atom_site_symmetry_multiplicity
  _atom_site_fract_x
  _atom_site_fract_y
  _atom_site_fract_z
  _atom_site_occupancy
  K   K1        1.0  0.27184  0.08783  0.40458  1.0000
  K   K2        1.0  0.72816  0.91217  0.59542  1.0000
  Sr  Sr1       1.0  0.91946  0.60277  0.84890  1.0000
  Sr  Sr2       1.0  0.08054  0.39723  0.15110  1.0000
  Sm  Sm1       1.0  0.18302  0.75737  0.28259  1.0000
  Sm  Sm2       1.0  0.81698  0.24263  0.71741  1.0000
  H   H1        1.0  0.55021  0.62918  0.04624  1.0000
  H   H2        1.0  0.44979  0.37082  0.95376  1.0000
  H   H3        1.0  0.49463  0.58460  0.95015  1.0000
  H   H4        1.0  0.50537  0.41539  0.04985  1.0000
  H   H5        1.0  0.16627  0.45398  0.61256  1.0000
  H   H6        1.0  0.83373  0.54601  0.38744  1.0000
  H   H7        1.0  0.58058  0.30910  0.31858  1.0000
  H   H8        1.0  0.41942  0.69090  0.68142  1.0000
  H   H9        1.0  0.71364  0.84356  0.10271  1.0000
  H   H10       1.0  0.28636  0.15644  0.89729  1.0000
  H   H11       1.0  0.81805  0.17569  0.18834  1.0000
  H   H12       1.0  0.18195  0.82431  0.81166  1.0000
  C   C1        1.0  0.22744  0.43480  0.38310  1.0000
  C   C2        1.0  0.77256  0.56520  0.61690  1.0000
  C   C3        1.0  0.35601  0.38479  0.45755  1.0000
  C   C4        1.0  0.64399  0.61521  0.54245  1.0000
  C   C5        1.0  0.30161  0.40473  0.57459  1.0000
  C   C6        1.0  0.69839  0.59527  0.42541  1.0000
  C   C7        1.0  0.42371  0.35994  0.64126  1.0000
  C   C8        1.0  0.57629  0.64006  0.35874  1.0000
  C   C9        1.0  0.64670  0.28483  0.48231  1.0000
  C   C10       1.0  0.35330  0.71517  0.51769  1.0000
  C   C11       1.0  0.53156  0.32339  0.41034  1.0000
  C   C12       1.0  0.46844  0.67661  0.58966  1.0000
  C   C13       1.0  0.84334  0.22939  0.43788  1.0000
  C   C14       1.0  0.15666  0.77062  0.56212  1.0000
  C   C15       1.0  0.37968  0.38292  0.76629  1.0000
  C   C16       1.0  0.62032  0.61708  0.23371  1.0000
  C   C17       1.0  0.75047  0.93512  0.28964  1.0000
  C   C18       1.0  0.24953  0.06488  0.71037  1.0000
  C   C19       1.0  0.75758  0.00243  0.16376  1.0000
  C   C20       1.0  0.24242  0.99757  0.83624  1.0000
  C   C21       1.0  0.73758  0.94195  0.08053  1.0000
  C   C22       1.0  0.26242  0.05805  0.91947  1.0000
  C   C23       1.0  0.75256  0.00952  0.96481  1.0000
  C   C24       1.0  0.24744  0.99048  0.03519  1.0000
  C   C25       1.0  0.81149  0.18642  0.00942  1.0000
  C   C26       1.0  0.18851  0.81358  0.99058  1.0000
  C   C27       1.0  0.79551  0.12723  0.12722  1.0000
  C   C28       1.0  0.20449  0.87277  0.87278  1.0000
  C   C29       1.0  0.74576  0.95189  0.86482  1.0000
  C   C30       1.0  0.25424  0.04811  0.13517  1.0000
  C   C31       1.0  0.86423  0.31624  0.95781  1.0000
  C   C32       1.0  0.13577  0.68376  0.04219  1.0000
  N   N1        1.0  0.59192  0.30029  0.59591  1.0000
  N   N2        1.0  0.40808  0.69971  0.40409  1.0000
  N   N3        1.0  0.78657  0.12959  0.93119  1.0000
  N   N4        1.0  0.21343  0.87041  0.06881  1.0000
  O   O1        1.0  0.13979  0.55043  0.38861  1.0000
  O   O2        1.0  0.86020  0.44957  0.61139  1.0000
  O   O3        1.0  0.21658  0.36019  0.32222  1.0000
  O   O4        1.0  0.78342  0.63981  0.67778  1.0000
  O   O5        1.0  0.91312  0.23844  0.32775  1.0000
  O   O6        1.0  0.08688  0.76156  0.67225  1.0000
  O   O7        1.0  0.92419  0.17869  0.51857  1.0000
  O   O8        1.0  0.07581  0.82131  0.48143  1.0000
  O   O9        1.0  0.50830  0.33772  0.81601  1.0000
  O   O10       1.0  0.49170  0.66228  0.18399  1.0000
  O   O11       1.0  0.22845  0.44366  0.81229  1.0000
  O   O12       1.0  0.77155  0.55634  0.18771  1.0000
  O   O13       1.0  0.59553  0.60102  0.96723  1.0000
  O   O14       1.0  0.40446  0.39898  0.03277  1.0000
  O   O15       1.0  0.62272  0.97470  0.37218  1.0000
  O   O16       1.0  0.37728  0.02530  0.62782  1.0000
  O   O17       1.0  0.88265  0.84228  0.30135  1.0000
  O   O18       1.0  0.11735  0.15771  0.69865  1.0000
  O   O19       1.0  0.74925  0.83306  0.88159  1.0000
  O   O20       1.0  0.25075  0.16694  0.11841  1.0000
  O   O21       1.0  0.74136  0.03223  0.76731  1.0000
  O   O22       1.0  0.25864  0.96777  0.23269  1.0000
  O   O23       1.0  0.85753  0.36440  0.85139  1.0000
  O   O24       1.0  0.14247  0.63560  0.14861  1.0000
  O   O25       1.0  0.91068  0.37122  0.01990  1.0000
  O   O26       1.0  0.08932  0.62878  0.98010  1.0000
