data_image0
_chemical_formula_structural       Cd4H40C44S2N24O14
_chemical_formula_sum              "Cd4 H40 C44 S2 N24 O14"
_cell_length_a       10.2234
_cell_length_b       11.5509
_cell_length_c       11.908
_cell_angle_alpha    94.712
_cell_angle_beta     95.2337
_cell_angle_gamma    97.3624

_space_group_name_H-M_alt    "P 1"
_space_group_IT_number       1

loop_
  _space_group_symop_operation_xyz
  'x, y, z'

loop_
  _atom_site_type_symbol
  _atom_site_label
  _atom_site_symmetry_multiplicity
  _atom_site_fract_x
  _atom_site_fract_y
  _atom_site_fract_z
  _atom_site_occupancy
  Cd  Cd1       1.0  0.52290  0.41376  0.72411  1.0000
  Cd  Cd2       1.0  0.47709  0.58625  0.27590  1.0000
  Cd  Cd3       1.0  0.08939  0.89968  0.90260  1.0000
  Cd  Cd4       1.0  0.91061  0.10031  0.09740  1.0000
  H   H1        1.0  0.23647  0.22071  0.61149  1.0000
  H   H2        1.0  0.76352  0.77929  0.38852  1.0000
  H   H3        1.0  0.08156  0.05201  0.67620  1.0000
  H   H4        1.0  0.91844  0.94799  0.32381  1.0000
  H   H5        1.0  0.28504  0.11238  0.99714  1.0000
  H   H6        1.0  0.71496  0.88762  0.00287  1.0000
  H   H7        1.0  0.88493  0.68036  0.84945  1.0000
  H   H8        1.0  0.11506  0.31963  0.15055  1.0000
  H   H9        1.0  0.13954  0.78462  0.14204  1.0000
  H   H10       1.0  0.86047  0.21538  0.85795  1.0000
  H   H11       1.0  0.02674  0.62406  0.24394  1.0000
  H   H12       1.0  0.97327  0.37594  0.75605  1.0000
  H   H13       1.0  0.82769  0.49187  0.14080  1.0000
  H   H14       1.0  0.17231  0.50814  0.85920  1.0000
  H   H15       1.0  0.71406  0.18307  0.68756  1.0000
  H   H16       1.0  0.28595  0.81695  0.31246  1.0000
  H   H17       1.0  0.74774  0.03392  0.53247  1.0000
  H   H18       1.0  0.25229  0.96610  0.46755  1.0000
  H   H19       1.0  0.46573  0.15713  0.31626  1.0000
  H   H20       1.0  0.53428  0.84286  0.68374  1.0000
  H   H21       1.0  0.24714  0.70823  0.80686  1.0000
  H   H22       1.0  0.75286  0.29178  0.19313  1.0000
  H   H23       1.0  0.93256  0.83980  0.63939  1.0000
  H   H24       1.0  0.06744  0.16020  0.36060  1.0000
  H   H25       1.0  0.94447  0.70748  0.46258  1.0000
  H   H26       1.0  0.05553  0.29252  0.53741  1.0000
  H   H27       1.0  0.12269  0.57536  0.46099  1.0000
  H   H28       1.0  0.87730  0.42464  0.53900  1.0000
  H   H29       1.0  0.54603  0.34120  0.11780  1.0000
  H   H30       1.0  0.45396  0.65880  0.88220  1.0000
  H   H31       1.0  0.40846  0.23483  0.10209  1.0000
  H   H32       1.0  0.59154  0.76517  0.89790  1.0000
  H   H33       1.0  0.26406  0.38993  0.37057  1.0000
  H   H34       1.0  0.73594  0.61006  0.62943  1.0000
  H   H35       1.0  0.31819  0.26310  0.30913  1.0000
  H   H36       1.0  0.68182  0.73689  0.69086  1.0000
  H   H37       1.0  0.38057  0.83404  0.94059  1.0000
  H   H38       1.0  0.61942  0.16596  0.05940  1.0000
  H   H39       1.0  0.32716  0.90897  0.04160  1.0000
  H   H40       1.0  0.67283  0.09103  0.95839  1.0000
  C   C1        1.0  0.24661  0.19562  0.69798  1.0000
  C   C2        1.0  0.75339  0.80438  0.30203  1.0000
  C   C3        1.0  0.16288  0.10276  0.73209  1.0000
  C   C4        1.0  0.83712  0.89725  0.26791  1.0000
  C   C5        1.0  0.27582  0.13695  0.91100  1.0000
  C   C6        1.0  0.72418  0.86305  0.08900  1.0000
  C   C7        1.0  0.35974  0.22991  0.87655  1.0000
  C   C8        1.0  0.64026  0.77008  0.12346  1.0000
  C   C9        1.0  0.46917  0.29707  0.95374  1.0000
  C   C10       1.0  0.53082  0.70294  0.04627  1.0000
  C   C11       1.0  0.73437  0.49908  0.91635  1.0000
  C   C12       1.0  0.26562  0.50093  0.08365  1.0000
  C   C13       1.0  0.84518  0.57457  0.98630  1.0000
  C   C14       1.0  0.15481  0.42542  0.01370  1.0000
  C   C15       1.0  0.91456  0.66565  0.93666  1.0000
  C   C16       1.0  0.08544  0.33434  0.06333  1.0000
  C   C17       1.0  0.05527  0.72361  0.10100  1.0000
  C   C18       1.0  0.94473  0.27639  0.89900  1.0000
  C   C19       1.0  0.99117  0.63476  0.15684  1.0000
  C   C20       1.0  0.00884  0.36524  0.84315  1.0000
  C   C21       1.0  0.88334  0.56036  0.09981  1.0000
  C   C22       1.0  0.11666  0.43965  0.90019  1.0000
  C   C23       1.0  0.66074  0.18036  0.60369  1.0000
  C   C24       1.0  0.33929  0.81966  0.39631  1.0000
  C   C25       1.0  0.67790  0.09612  0.51669  1.0000
  C   C26       1.0  0.32212  0.90389  0.48332  1.0000
  C   C27       1.0  0.52225  0.16493  0.39946  1.0000
  C   C28       1.0  0.47776  0.83508  0.60056  1.0000
  C   C29       1.0  0.50379  0.25032  0.48572  1.0000
  C   C30       1.0  0.49621  0.74969  0.51429  1.0000
  C   C31       1.0  0.40627  0.33377  0.47138  1.0000
  C   C32       1.0  0.59373  0.66623  0.52862  1.0000
  C   C33       1.0  0.30465  0.55551  0.64057  1.0000
  C   C34       1.0  0.69535  0.44449  0.35942  1.0000
  C   C35       1.0  0.19875  0.63254  0.63379  1.0000
  C   C36       1.0  0.80125  0.36746  0.36620  1.0000
  C   C37       1.0  0.18271  0.70743  0.72866  1.0000
  C   C38       1.0  0.81729  0.29258  0.27133  1.0000
  C   C39       1.0  0.00661  0.77984  0.63457  1.0000
  C   C40       1.0  0.99339  0.22017  0.36542  1.0000
  C   C41       1.0  0.01484  0.70689  0.53678  1.0000
  C   C42       1.0  0.98515  0.29311  0.46321  1.0000
  C   C43       1.0  0.11204  0.63318  0.53565  1.0000
  C   C44       1.0  0.88796  0.36682  0.46435  1.0000
  S   S1        1.0  0.21360  0.03502  0.19018  1.0000
  S   S2        1.0  0.78640  0.96497  0.80982  1.0000
  N   N1        1.0  0.34364  0.25722  0.76874  1.0000
  N   N2        1.0  0.65636  0.74277  0.23127  1.0000
  N   N3        1.0  0.18009  0.07411  0.83876  1.0000
  N   N4        1.0  0.81990  0.92589  0.16124  1.0000
  N   N5        1.0  0.48640  0.27641  0.06539  1.0000
  N   N6        1.0  0.51360  0.72359  0.93461  1.0000
  N   N7        1.0  0.55209  0.36955  0.90684  1.0000
  N   N8        1.0  0.44791  0.63044  0.09316  1.0000
  N   N9        1.0  0.65532  0.43083  0.97508  1.0000
  N   N10       1.0  0.34468  0.56916  0.02493  1.0000
  N   N11       1.0  0.01568  0.73935  0.99296  1.0000
  N   N12       1.0  0.98431  0.26064  0.00704  1.0000
  N   N13       1.0  0.57539  0.25697  0.58789  1.0000
  N   N14       1.0  0.42462  0.74304  0.41212  1.0000
  N   N15       1.0  0.60945  0.08860  0.41454  1.0000
  N   N16       1.0  0.39057  0.91141  0.58547  1.0000
  N   N17       1.0  0.32668  0.32854  0.37449  1.0000
  N   N18       1.0  0.67333  0.67145  0.62551  1.0000
  N   N19       1.0  0.40137  0.41134  0.55810  1.0000
  N   N20       1.0  0.59862  0.58867  0.44190  1.0000
  N   N21       1.0  0.30580  0.48288  0.54708  1.0000
  N   N22       1.0  0.69419  0.51711  0.45292  1.0000
  N   N23       1.0  0.08971  0.77995  0.72932  1.0000
  N   N24       1.0  0.91028  0.22005  0.27067  1.0000
  O   O1        1.0  0.72318  0.50754  0.80888  1.0000
  O   O2        1.0  0.27682  0.49247  0.19112  1.0000
  O   O3        1.0  0.38235  0.56379  0.73298  1.0000
  O   O4        1.0  0.61764  0.43620  0.26702  1.0000
  O   O5        1.0  0.10750  0.01567  0.08852  1.0000
  O   O6        1.0  0.89249  0.98433  0.91149  1.0000
  O   O7        1.0  0.30704  0.94827  0.17294  1.0000
  O   O8        1.0  0.69296  0.05173  0.82705  1.0000
  O   O9        1.0  0.14927  0.02008  0.29463  1.0000
  O   O10       1.0  0.85074  0.97992  0.70538  1.0000
  O   O11       1.0  0.28361  0.15717  0.19040  1.0000
  O   O12       1.0  0.71639  0.84283  0.80961  1.0000
  O   O13       1.0  0.31820  0.89006  0.95716  1.0000
  O   O14       1.0  0.68180  0.10993  0.04283  1.0000
