data_image0
_chemical_formula_structural       Gd4H24C28S4O32
_chemical_formula_sum              "Gd4 H24 C28 S4 O32"
_cell_length_a       9.72902
_cell_length_b       10.9185
_cell_length_c       12.4966
_cell_angle_alpha    105.647
_cell_angle_beta     89.9983
_cell_angle_gamma    116.458

_space_group_name_H-M_alt    "P 1"
_space_group_IT_number       1

loop_
  _space_group_symop_operation_xyz
  'x, y, z'

loop_
  _atom_site_type_symbol
  _atom_site_label
  _atom_site_symmetry_multiplicity
  _atom_site_fract_x
  _atom_site_fract_y
  _atom_site_fract_z
  _atom_site_occupancy
  Gd  Gd1       1.0  0.97679  0.99999  0.75000  1.0000
  Gd  Gd2       1.0  0.02321  0.00001  0.25000  1.0000
  Gd  Gd3       1.0  0.47968  0.00005  0.75004  1.0000
  Gd  Gd4       1.0  0.52032  0.99995  0.24996  1.0000
  H   H1        1.0  0.17643  0.42089  0.90747  1.0000
  H   H2        1.0  0.75549  0.57927  0.59262  1.0000
  H   H3        1.0  0.82357  0.57911  0.09253  1.0000
  H   H4        1.0  0.24451  0.42073  0.40738  1.0000
  H   H5        1.0  0.31694  0.69402  0.90696  1.0000
  H   H6        1.0  0.62305  0.30615  0.59315  1.0000
  H   H7        1.0  0.68307  0.30599  0.09304  1.0000
  H   H8        1.0  0.37695  0.69385  0.40686  1.0000
  H   H9        1.0  0.62538  0.05803  0.99456  1.0000
  H   H10       1.0  0.56736  0.94202  0.50550  1.0000
  H   H11       1.0  0.37462  0.94197  0.00544  1.0000
  H   H12       1.0  0.43264  0.05798  0.49450  1.0000
  H   H13       1.0  0.67611  0.95717  0.90849  1.0000
  H   H14       1.0  0.71896  0.04293  0.59156  1.0000
  H   H15       1.0  0.32389  0.04283  0.09151  1.0000
  H   H16       1.0  0.28104  0.95707  0.40844  1.0000
  H   H17       1.0  0.34713  0.16749  0.91866  1.0000
  H   H18       1.0  0.17973  0.83259  0.58138  1.0000
  H   H19       1.0  0.65287  0.83252  0.08134  1.0000
  H   H20       1.0  0.82027  0.16741  0.41862  1.0000
  H   H21       1.0  0.51273  0.28306  0.90293  1.0000
  H   H22       1.0  0.22969  0.71699  0.59712  1.0000
  H   H23       1.0  0.48727  0.71694  0.09707  1.0000
  H   H24       1.0  0.77032  0.28302  0.40288  1.0000
  C   C1        1.0  0.85121  0.25674  0.82179  1.0000
  C   C2        1.0  0.59440  0.74333  0.67828  1.0000
  C   C3        1.0  0.14878  0.74327  0.17821  1.0000
  C   C4        1.0  0.40559  0.25667  0.32172  1.0000
  C   C5        1.0  0.96270  0.40941  0.84288  1.0000
  C   C6        1.0  0.55325  0.59067  0.65726  1.0000
  C   C7        1.0  0.03730  0.59059  0.15712  1.0000
  C   C8        1.0  0.44674  0.40933  0.34274  1.0000
  C   C9        1.0  0.11973  0.47728  0.88277  1.0000
  C   C10       1.0  0.64244  0.52284  0.61735  1.0000
  C   C11       1.0  0.88027  0.52272  0.11723  1.0000
  C   C12       1.0  0.35756  0.47716  0.38265  1.0000
  C   C13       1.0  0.19346  0.62132  0.88253  1.0000
  C   C14       1.0  0.57224  0.37883  0.61763  1.0000
  C   C15       1.0  0.80655  0.37868  0.11746  1.0000
  C   C16       1.0  0.42776  0.62117  0.38237  1.0000
  C   C17       1.0  0.09142  0.66086  0.84169  1.0000
  C   C18       1.0  0.43065  0.33925  0.65849  1.0000
  C   C19       1.0  0.90858  0.33914  0.15831  1.0000
  C   C20       1.0  0.56934  0.66075  0.34151  1.0000
  C   C21       1.0  0.13084  0.79688  0.81792  1.0000
  C   C22       1.0  0.33404  0.20320  0.68218  1.0000
  C   C23       1.0  0.86917  0.20313  0.18208  1.0000
  C   C24       1.0  0.66596  0.79680  0.31782  1.0000
  C   C25       1.0  0.91128  0.94853  0.99173  1.0000
  C   C26       1.0  0.96273  0.05146  0.50827  1.0000
  C   C27       1.0  0.08873  0.05146  0.00828  1.0000
  C   C28       1.0  0.03727  0.94854  0.49173  1.0000
  S   S1        1.0  0.90528  0.52236  0.80644  1.0000
  S   S2        1.0  0.38295  0.47771  0.69375  1.0000
  S   S3        1.0  0.09473  0.47765  0.19356  1.0000
  S   S4        1.0  0.61705  0.52229  0.30626  1.0000
  O   O1        1.0  0.70907  0.21856  0.79208  1.0000
  O   O2        1.0  0.49035  0.78145  0.70793  1.0000
  O   O3        1.0  0.29093  0.78144  0.20792  1.0000
  O   O4        1.0  0.50964  0.21855  0.29206  1.0000
  O   O5        1.0  0.90388  0.17225  0.83227  1.0000
  O   O6        1.0  0.73152  0.82785  0.66782  1.0000
  O   O7        1.0  0.09611  0.82775  0.16773  1.0000
  O   O8        1.0  0.26848  0.17215  0.33218  1.0000
  O   O9        1.0  0.02484  0.81106  0.77148  1.0000
  O   O10       1.0  0.21379  0.18895  0.72855  1.0000
  O   O11       1.0  0.97516  0.18894  0.22852  1.0000
  O   O12       1.0  0.78620  0.81105  0.27145  1.0000
  O   O13       1.0  0.27306  0.89305  0.84432  1.0000
  O   O14       1.0  0.38009  0.10702  0.65576  1.0000
  O   O15       1.0  0.72693  0.10695  0.15568  1.0000
  O   O16       1.0  0.61991  0.89298  0.34424  1.0000
  O   O17       1.0  0.85682  0.89943  0.07177  1.0000
  O   O18       1.0  0.95737  0.10056  0.42822  1.0000
  O   O19       1.0  0.14318  0.10057  0.92822  1.0000
  O   O20       1.0  0.04263  0.89944  0.57179  1.0000
  O   O21       1.0  0.83435  0.92261  0.89981  1.0000
  O   O22       1.0  0.91175  0.07743  0.60019  1.0000
  O   O23       1.0  0.16564  0.07739  0.10019  1.0000
  O   O24       1.0  0.08825  0.92257  0.39981  1.0000
  O   O25       1.0  0.60148  0.99683  0.91649  1.0000
  O   O26       1.0  0.60468  0.00325  0.58357  1.0000
  O   O27       1.0  0.39852  0.00317  0.08351  1.0000
  O   O28       1.0  0.39533  0.99675  0.41643  1.0000
  O   O29       1.0  0.45416  0.18493  0.90495  1.0000
  O   O30       1.0  0.26929  0.81512  0.59508  1.0000
  O   O31       1.0  0.54585  0.81507  0.09505  1.0000
  O   O32       1.0  0.73071  0.18489  0.40492  1.0000
