data_image0
_chemical_formula_structural       Cd2H30C40N10O18
_chemical_formula_sum              "Cd2 H30 C40 N10 O18"
_cell_length_a       7.9009
_cell_length_b       8.64075
_cell_length_c       15.8094
_cell_angle_alpha    94.968
_cell_angle_beta     99.7105
_cell_angle_gamma    100.148

_space_group_name_H-M_alt    "P 1"
_space_group_IT_number       1

loop_
  _space_group_symop_operation_xyz
  'x, y, z'

loop_
  _atom_site_type_symbol
  _atom_site_label
  _atom_site_symmetry_multiplicity
  _atom_site_fract_x
  _atom_site_fract_y
  _atom_site_fract_z
  _atom_site_occupancy
  Cd  Cd1       1.0  0.88200  0.04591  0.34659  1.0000
  Cd  Cd2       1.0  0.11800  0.95410  0.65341  1.0000
  H   H1        1.0  0.13344  0.35337  0.19157  1.0000
  H   H2        1.0  0.86657  0.64663  0.80844  1.0000
  H   H3        1.0  0.49033  0.74594  0.15960  1.0000
  H   H4        1.0  0.50968  0.25406  0.84040  1.0000
  H   H5        1.0  0.32244  0.16388  0.25052  1.0000
  H   H6        1.0  0.67755  0.83610  0.74948  1.0000
  H   H7        1.0  0.75122  0.85616  0.46459  1.0000
  H   H8        1.0  0.24878  0.14385  0.53541  1.0000
  H   H9        1.0  0.61036  0.95094  0.41619  1.0000
  H   H10       1.0  0.38963  0.04906  0.58381  1.0000
  H   H11       1.0  0.81447  0.98494  0.03379  1.0000
  H   H12       1.0  0.18554  0.01506  0.96621  1.0000
  H   H13       1.0  0.18334  0.50325  0.48809  1.0000
  H   H14       1.0  0.81666  0.49676  0.51190  1.0000
  H   H15       1.0  0.29588  0.93190  0.33798  1.0000
  H   H16       1.0  0.70411  0.06809  0.66202  1.0000
  H   H17       1.0  0.80894  0.63349  0.32998  1.0000
  H   H18       1.0  0.19105  0.36650  0.67002  1.0000
  H   H19       1.0  0.37349  0.51685  0.32994  1.0000
  H   H20       1.0  0.62653  0.48316  0.67007  1.0000
  H   H21       1.0  0.47367  0.70991  0.31114  1.0000
  H   H22       1.0  0.52633  0.29009  0.68887  1.0000
  H   H23       1.0  0.42744  0.70093  0.96623  1.0000
  H   H24       1.0  0.57256  0.29907  0.03377  1.0000
  H   H25       1.0  0.24893  0.51589  0.84042  1.0000
  H   H26       1.0  0.75108  0.48410  0.15958  1.0000
  H   H27       1.0  0.04899  0.27243  0.86232  1.0000
  H   H28       1.0  0.95103  0.72756  0.13769  1.0000
  H   H29       1.0  0.00717  0.21384  0.00872  1.0000
  H   H30       1.0  0.99284  0.78617  0.99128  1.0000
  C   C1        1.0  0.68035  0.00547  0.17611  1.0000
  C   C2        1.0  0.31965  0.99453  0.82389  1.0000
  C   C3        1.0  0.67673  0.99306  0.01891  1.0000
  C   C4        1.0  0.32327  0.00693  0.98109  1.0000
  C   C5        1.0  0.58577  0.01181  0.08632  1.0000
  C   C6        1.0  0.41423  0.98817  0.91369  1.0000
  C   C7        1.0  0.40698  0.02007  0.06743  1.0000
  C   C8        1.0  0.59302  0.97992  0.93257  1.0000
  C   C9        1.0  0.30076  0.04983  0.13523  1.0000
  C   C10       1.0  0.69923  0.95017  0.86477  1.0000
  C   C11       1.0  0.23508  0.24849  0.39735  1.0000
  C   C12       1.0  0.76492  0.75151  0.60264  1.0000
  C   C13       1.0  0.32228  0.50107  0.49384  1.0000
  C   C14       1.0  0.67772  0.49893  0.50615  1.0000
  C   C15       1.0  0.37614  0.37479  0.45126  1.0000
  C   C16       1.0  0.62387  0.62522  0.54874  1.0000
  C   C17       1.0  0.55510  0.37203  0.45807  1.0000
  C   C18       1.0  0.44490  0.62798  0.54192  1.0000
  C   C19       1.0  0.61488  0.22893  0.42086  1.0000
  C   C20       1.0  0.38512  0.77108  0.57914  1.0000
  C   C21       1.0  0.18909  0.82998  0.32975  1.0000
  C   C22       1.0  0.81091  0.17002  0.67025  1.0000
  C   C23       1.0  0.94478  0.67426  0.32593  1.0000
  C   C24       1.0  0.05521  0.32573  0.67407  1.0000
  C   C25       1.0  0.35596  0.61614  0.29285  1.0000
  C   C26       1.0  0.64404  0.38385  0.70715  1.0000
  C   C27       1.0  0.31984  0.56085  0.19855  1.0000
  C   C28       1.0  0.68017  0.43915  0.80145  1.0000
  C   C29       1.0  0.31408  0.56137  0.05788  1.0000
  C   C30       1.0  0.68592  0.43863  0.94212  1.0000
  C   C31       1.0  0.33678  0.59628  0.97547  1.0000
  C   C32       1.0  0.66322  0.40372  0.02453  1.0000
  C   C33       1.0  0.23757  0.49109  0.90588  1.0000
  C   C34       1.0  0.76245  0.50891  0.09413  1.0000
  C   C35       1.0  0.12191  0.35426  0.91815  1.0000
  C   C36       1.0  0.87811  0.64574  0.08185  1.0000
  C   C37       1.0  0.09789  0.31903  0.00017  1.0000
  C   C38       1.0  0.90212  0.68096  0.99983  1.0000
  C   C39       1.0  0.19533  0.42562  0.07001  1.0000
  C   C40       1.0  0.80467  0.57438  0.92999  1.0000
  N   N1        1.0  0.02328  0.83075  0.33686  1.0000
  N   N2        1.0  0.97672  0.16924  0.66314  1.0000
  N   N3        1.0  0.05176  0.57680  0.31165  1.0000
  N   N4        1.0  0.94824  0.42319  0.68835  1.0000
  N   N5        1.0  0.20675  0.67811  0.31491  1.0000
  N   N6        1.0  0.79325  0.32188  0.68510  1.0000
  N   N7        1.0  0.38824  0.64054  0.13948  1.0000
  N   N8        1.0  0.61176  0.35946  0.86052  1.0000
  N   N9        1.0  0.20390  0.43060  0.15889  1.0000
  N   N10       1.0  0.79609  0.56940  0.84112  1.0000
  O   O1        1.0  0.80426  0.11760  0.21128  1.0000
  O   O2        1.0  0.19571  0.88241  0.78873  1.0000
  O   O3        1.0  0.63313  0.88015  0.21038  1.0000
  O   O4        1.0  0.36688  0.11984  0.78962  1.0000
  O   O5        1.0  0.39718  0.13613  0.20681  1.0000
  O   O6        1.0  0.60281  0.86385  0.79319  1.0000
  O   O7        1.0  0.14102  0.00360  0.12310  1.0000
  O   O8        1.0  0.85897  0.99642  0.87689  1.0000
  O   O9        1.0  0.13213  0.17006  0.43957  1.0000
  O   O10       1.0  0.86787  0.82994  0.56042  1.0000
  O   O11       1.0  0.21327  0.23414  0.31546  1.0000
  O   O12       1.0  0.78674  0.76585  0.68453  1.0000
  O   O13       1.0  0.50697  0.09782  0.41112  1.0000
  O   O14       1.0  0.49302  0.90219  0.58886  1.0000
  O   O15       1.0  0.76963  0.25015  0.40539  1.0000
  O   O16       1.0  0.23037  0.74986  0.59461  1.0000
  O   O17       1.0  0.68860  0.87283  0.40678  1.0000
  O   O18       1.0  0.31140  0.12718  0.59322  1.0000
