data_image0
_chemical_formula_structural       Cd2H24C30N10O10
_chemical_formula_sum              "Cd2 H24 C30 N10 O10"
_cell_length_a       10.1234
_cell_length_b       9.78901
_cell_length_c       9.46219
_cell_angle_alpha    107.701
_cell_angle_beta     105.531
_cell_angle_gamma    97.0015

_space_group_name_H-M_alt    "P 1"
_space_group_IT_number       1

loop_
  _space_group_symop_operation_xyz
  'x, y, z'

loop_
  _atom_site_type_symbol
  _atom_site_label
  _atom_site_symmetry_multiplicity
  _atom_site_fract_x
  _atom_site_fract_y
  _atom_site_fract_z
  _atom_site_occupancy
  Cd  Cd1       1.0  0.39950  0.79877  0.21345  1.0000
  Cd  Cd2       1.0  0.60051  0.20123  0.78655  1.0000
  H   H1        1.0  0.40799  0.74144  0.63003  1.0000
  H   H2        1.0  0.59201  0.25855  0.36996  1.0000
  H   H3        1.0  0.55926  0.85762  0.54212  1.0000
  H   H4        1.0  0.44074  0.14238  0.45786  1.0000
  H   H5        1.0  0.41369  0.89356  0.53831  1.0000
  H   H6        1.0  0.58632  0.10644  0.46168  1.0000
  H   H7        1.0  0.91332  0.82470  0.22607  1.0000
  H   H8        1.0  0.08669  0.17531  0.77392  1.0000
  H   H9        1.0  0.07915  0.81066  0.99966  1.0000
  H   H10       1.0  0.92086  0.18933  0.00033  1.0000
  H   H11       1.0  0.86725  0.74845  0.76671  1.0000
  H   H12       1.0  0.13275  0.25156  0.23330  1.0000
  H   H13       1.0  0.88179  0.67183  0.49829  1.0000
  H   H14       1.0  0.11818  0.32818  0.50170  1.0000
  H   H15       1.0  0.11268  0.66240  0.45190  1.0000
  H   H16       1.0  0.88731  0.33761  0.54810  1.0000
  H   H17       1.0  0.64293  0.87471  0.87052  1.0000
  H   H18       1.0  0.35706  0.12528  0.12947  1.0000
  H   H19       1.0  0.63204  0.88938  0.05914  1.0000
  H   H20       1.0  0.36793  0.11060  0.94087  1.0000
  H   H21       1.0  0.45354  0.50688  0.81566  1.0000
  H   H22       1.0  0.54645  0.49310  0.18433  1.0000
  H   H23       1.0  0.88289  0.50725  0.97076  1.0000
  H   H24       1.0  0.11711  0.49277  0.02923  1.0000
  C   C1        1.0  0.70268  0.86959  0.34010  1.0000
  C   C2        1.0  0.29734  0.13043  0.65989  1.0000
  C   C3        1.0  0.95152  0.90139  0.34665  1.0000
  C   C4        1.0  0.04848  0.09861  0.65336  1.0000
  C   C5        1.0  0.85575  0.93689  0.42673  1.0000
  C   C6        1.0  0.14425  0.06313  0.57330  1.0000
  C   C7        1.0  0.90488  0.03614  0.58233  1.0000
  C   C8        1.0  0.09514  0.96387  0.41769  1.0000
  C   C9        1.0  0.80683  0.07909  0.67342  1.0000
  C   C10       1.0  0.19317  0.92090  0.32660  1.0000
  C   C11       1.0  0.21693  0.77343  0.85654  1.0000
  C   C12       1.0  0.78306  0.22656  0.14345  1.0000
  C   C13       1.0  0.08722  0.77899  0.88214  1.0000
  C   C14       1.0  0.91277  0.22101  0.11785  1.0000
  C   C15       1.0  0.96911  0.74237  0.75047  1.0000
  C   C16       1.0  0.03090  0.25763  0.24954  1.0000
  C   C17       1.0  0.97760  0.69928  0.59737  1.0000
  C   C18       1.0  0.02241  0.30073  0.40265  1.0000
  C   C19       1.0  0.10533  0.69307  0.56978  1.0000
  C   C20       1.0  0.89467  0.30694  0.43023  1.0000
  C   C21       1.0  0.22402  0.73154  0.70194  1.0000
  C   C22       1.0  0.77598  0.26846  0.29805  1.0000
  C   C23       1.0  0.43829  0.79087  0.87417  1.0000
  C   C24       1.0  0.56171  0.20911  0.12583  1.0000
  C   C25       1.0  0.59450  0.81886  0.93517  1.0000
  C   C26       1.0  0.40551  0.18115  0.06484  1.0000
  C   C27       1.0  0.56710  0.54223  0.86472  1.0000
  C   C28       1.0  0.43292  0.45777  0.13528  1.0000
  C   C29       1.0  0.78601  0.54505  0.94469  1.0000
  C   C30       1.0  0.21400  0.45496  0.05531  1.0000
  N   N1        1.0  0.35321  0.80838  0.96166  1.0000
  N   N2        1.0  0.64680  0.19162  0.03835  1.0000
  N   N3        1.0  0.36522  0.74211  0.71842  1.0000
  N   N4        1.0  0.63476  0.25787  0.28156  1.0000
  N   N5        1.0  0.64243  0.68133  0.92133  1.0000
  N   N6        1.0  0.35758  0.31869  0.07868  1.0000
  N   N7        1.0  0.78225  0.68554  0.97304  1.0000
  N   N8        1.0  0.21774  0.31447  0.02697  1.0000
  N   N9        1.0  0.65607  0.45312  0.87798  1.0000
  N   N10       1.0  0.34393  0.54687  0.12201  1.0000
  O   O1        1.0  0.66164  0.73287  0.27365  1.0000
  O   O2        1.0  0.33838  0.26715  0.72636  1.0000
  O   O3        1.0  0.61798  0.95881  0.33210  1.0000
  O   O4        1.0  0.38202  0.04119  0.66790  1.0000
  O   O5        1.0  0.70892  0.98116  0.67029  1.0000
  O   O6        1.0  0.29107  0.01883  0.32970  1.0000
  O   O7        1.0  0.82394  0.21545  0.75008  1.0000
  O   O8        1.0  0.17606  0.78454  0.24993  1.0000
  O   O9        1.0  0.45682  0.81158  0.49217  1.0000
  O   O10       1.0  0.54319  0.18843  0.50781  1.0000
