data_image0
_chemical_formula_structural       K2H30C36O16
_chemical_formula_sum              "K2 H30 C36 O16"
_cell_length_a       9.79894
_cell_length_b       9.84663
_cell_length_c       10.289
_cell_angle_alpha    110.77
_cell_angle_beta     110.99
_cell_angle_gamma    96.0189

_space_group_name_H-M_alt    "P 1"
_space_group_IT_number       1

loop_
  _space_group_symop_operation_xyz
  'x, y, z'

loop_
  _atom_site_type_symbol
  _atom_site_label
  _atom_site_symmetry_multiplicity
  _atom_site_fract_x
  _atom_site_fract_y
  _atom_site_fract_z
  _atom_site_occupancy
  K   K1        1.0  0.19853  0.83424  0.17616  1.0000
  K   K2        1.0  0.80148  0.16576  0.82385  1.0000
  H   H1        1.0  0.42825  0.73151  0.43696  1.0000
  H   H2        1.0  0.57174  0.26850  0.56304  1.0000
  H   H3        1.0  0.38427  0.57514  0.18531  1.0000
  H   H4        1.0  0.61572  0.42486  0.81468  1.0000
  H   H5        1.0  0.93755  0.54891  0.80157  1.0000
  H   H6        1.0  0.06245  0.45109  0.19842  1.0000
  H   H7        1.0  0.19847  0.97572  0.50840  1.0000
  H   H8        1.0  0.80153  0.02428  0.49161  1.0000
  H   H9        1.0  0.46191  0.16154  0.82724  1.0000
  H   H10       1.0  0.53809  0.83847  0.17277  1.0000
  H   H11       1.0  0.43548  0.37538  0.00079  1.0000
  H   H12       1.0  0.56451  0.62462  0.99922  1.0000
  H   H13       1.0  0.92623  0.32632  0.62042  1.0000
  H   H14       1.0  0.07378  0.67368  0.37957  1.0000
  H   H15       1.0  0.06469  0.13689  0.54992  1.0000
  H   H16       1.0  0.93533  0.86312  0.45007  1.0000
  H   H17       1.0  0.19948  0.19717  0.36406  1.0000
  H   H18       1.0  0.80052  0.80283  0.63594  1.0000
  H   H19       1.0  0.83142  0.81148  0.92228  1.0000
  H   H20       1.0  0.16858  0.18851  0.07772  1.0000
  H   H21       1.0  0.51988  0.35013  0.20635  1.0000
  H   H22       1.0  0.48012  0.64986  0.79365  1.0000
  H   H23       1.0  0.84819  0.45796  0.45140  1.0000
  H   H24       1.0  0.15181  0.54204  0.54859  1.0000
  H   H25       1.0  0.02209  0.32053  0.42015  1.0000
  H   H26       1.0  0.97791  0.67946  0.57985  1.0000
  H   H27       1.0  0.64053  0.92458  0.92174  1.0000
  H   H28       1.0  0.35947  0.07542  0.07826  1.0000
  H   H29       1.0  0.56629  0.14389  0.05933  1.0000
  H   H30       1.0  0.43371  0.85611  0.94067  1.0000
  C   C1        1.0  0.41335  0.91692  0.58704  1.0000
  C   C2        1.0  0.58663  0.08308  0.41295  1.0000
  C   C3        1.0  0.30871  0.01070  0.60534  1.0000
  C   C4        1.0  0.69130  0.98932  0.39468  1.0000
  C   C5        1.0  0.34891  0.13560  0.73629  1.0000
  C   C6        1.0  0.65109  0.86440  0.26372  1.0000
  C   C7        1.0  0.26021  0.24074  0.77100  1.0000
  C   C8        1.0  0.73980  0.75927  0.22901  1.0000
  C   C9        1.0  0.32237  0.36236  0.91778  1.0000
  C   C10       1.0  0.67763  0.63764  0.08223  1.0000
  C   C11       1.0  0.24477  0.46889  0.95950  1.0000
  C   C12       1.0  0.75522  0.53111  0.04050  1.0000
  C   C13       1.0  0.10182  0.45677  0.84851  1.0000
  C   C14       1.0  0.89817  0.54324  0.15148  1.0000
  C   C15       1.0  0.03837  0.33591  0.70330  1.0000
  C   C16       1.0  0.96163  0.66409  0.29670  1.0000
  C   C17       1.0  0.11574  0.22850  0.66470  1.0000
  C   C18       1.0  0.88426  0.77151  0.33530  1.0000
  C   C19       1.0  0.60998  0.56419  0.41271  1.0000
  C   C20       1.0  0.39001  0.43581  0.58727  1.0000
  C   C21       1.0  0.62174  0.41993  0.31092  1.0000
  C   C22       1.0  0.37826  0.58007  0.68907  1.0000
  C   C23       1.0  0.75341  0.38011  0.34303  1.0000
  C   C24       1.0  0.24659  0.61989  0.65697  1.0000
  C   C25       1.0  0.78735  0.24805  0.25348  1.0000
  C   C26       1.0  0.21265  0.75195  0.74652  1.0000
  C   C27       1.0  0.93594  0.23285  0.31243  1.0000
  C   C28       1.0  0.06406  0.76715  0.68757  1.0000
  C   C29       1.0  0.97926  0.10932  0.23604  1.0000
  C   C30       1.0  0.02074  0.89068  0.76396  1.0000
  C   C31       1.0  0.86840  0.99446  0.09654  1.0000
  C   C32       1.0  0.13160  0.00554  0.90346  1.0000
  C   C33       1.0  0.72176  0.00978  0.03458  1.0000
  C   C34       1.0  0.27824  0.99022  0.96542  1.0000
  C   C35       1.0  0.68119  0.13509  0.11109  1.0000
  C   C36       1.0  0.31881  0.86491  0.88891  1.0000
  O   O1        1.0  0.54452  0.94468  0.68409  1.0000
  O   O2        1.0  0.45550  0.05533  0.31593  1.0000
  O   O3        1.0  0.35278  0.79599  0.45090  1.0000
  O   O4        1.0  0.64722  0.20402  0.54910  1.0000
  O   O5        1.0  0.29988  0.58696  0.09941  1.0000
  O   O6        1.0  0.70010  0.41303  0.90060  1.0000
  O   O7        1.0  0.03086  0.56668  0.89013  1.0000
  O   O8        1.0  0.96913  0.43331  0.10986  1.0000
  O   O9        1.0  0.71344  0.63682  0.54802  1.0000
  O   O10       1.0  0.28655  0.36318  0.45198  1.0000
  O   O11       1.0  0.49212  0.60810  0.35485  1.0000
  O   O12       1.0  0.50787  0.39189  0.64514  1.0000
  O   O13       1.0  0.12273  0.09393  0.28805  1.0000
  O   O14       1.0  0.87727  0.90606  0.71195  1.0000
  O   O15       1.0  0.91206  0.87216  0.02487  1.0000
  O   O16       1.0  0.08794  0.12783  0.97514  1.0000
