data_image0
_chemical_formula_structural       Cd2H16C16O16
_chemical_formula_sum              "Cd2 H16 C16 O16"
_cell_length_a       5.43705
_cell_length_b       8.38108
_cell_length_c       12.145
_cell_angle_alpha    109.24
_cell_angle_beta     89.9807
_cell_angle_gamma    108.954

_space_group_name_H-M_alt    "P 1"
_space_group_IT_number       1

loop_
  _space_group_symop_operation_xyz
  'x, y, z'

loop_
  _atom_site_type_symbol
  _atom_site_label
  _atom_site_symmetry_multiplicity
  _atom_site_fract_x
  _atom_site_fract_y
  _atom_site_fract_z
  _atom_site_occupancy
  Cd  Cd1       1.0  0.52954  0.99995  0.24990  1.0000
  Cd  Cd2       1.0  0.47047  0.00006  0.75010  1.0000
  H   H1        1.0  0.97035  0.53832  0.67595  1.0000
  H   H2        1.0  0.43151  0.46150  0.82374  1.0000
  H   H3        1.0  0.02963  0.46167  0.32406  1.0000
  H   H4        1.0  0.56847  0.53850  0.17625  1.0000
  H   H5        1.0  0.40921  0.22961  0.15147  1.0000
  H   H6        1.0  0.17959  0.77077  0.34882  1.0000
  H   H7        1.0  0.59079  0.77041  0.84854  1.0000
  H   H8        1.0  0.82041  0.22923  0.65118  1.0000
  H   H9        1.0  0.13744  0.05671  0.12551  1.0000
  H   H10       1.0  0.08073  0.94363  0.37443  1.0000
  H   H11       1.0  0.86258  0.94330  0.87450  1.0000
  H   H12       1.0  0.91928  0.05638  0.62558  1.0000
  H   H13       1.0  0.33312  0.21743  0.54558  1.0000
  H   H14       1.0  0.11498  0.78221  0.95410  1.0000
  H   H15       1.0  0.66686  0.78257  0.45444  1.0000
  H   H16       1.0  0.88502  0.21778  0.04591  1.0000
  C   C1        1.0  0.99131  0.23823  0.39383  1.0000
  C   C2        1.0  0.75288  0.76151  0.10605  1.0000
  C   C3        1.0  0.00869  0.76175  0.60615  1.0000
  C   C4        1.0  0.24713  0.23848  0.89394  1.0000
  C   C5        1.0  0.25119  0.37355  0.44955  1.0000
  C   C6        1.0  0.87749  0.62629  0.05039  1.0000
  C   C7        1.0  0.74883  0.62644  0.55046  1.0000
  C   C8        1.0  0.12250  0.37368  0.94961  1.0000
  C   C9        1.0  0.65379  0.46535  0.57629  1.0000
  C   C10       1.0  0.18823  0.53459  0.92356  1.0000
  C   C11       1.0  0.34621  0.53467  0.42372  1.0000
  C   C12       1.0  0.81173  0.46540  0.07644  1.0000
  C   C13       1.0  0.40636  0.34120  0.52583  1.0000
  C   C14       1.0  0.06479  0.65859  0.97395  1.0000
  C   C15       1.0  0.59366  0.65879  0.47418  1.0000
  C   C16       1.0  0.93521  0.34142  0.02606  1.0000
  O   O1        1.0  0.90323  0.08905  0.41074  1.0000
  O   O2        1.0  0.81381  0.91064  0.08904  1.0000
  O   O3        1.0  0.09678  0.91095  0.58927  1.0000
  O   O4        1.0  0.18621  0.08938  0.91095  1.0000
  O   O5        1.0  0.85469  0.27620  0.32505  1.0000
  O   O6        1.0  0.57853  0.72367  0.17502  1.0000
  O   O7        1.0  0.14533  0.72379  0.67494  1.0000
  O   O8        1.0  0.42145  0.27633  0.82498  1.0000
  O   O9        1.0  0.80037  0.42980  0.64997  1.0000
  O   O10       1.0  0.37007  0.57003  0.84963  1.0000
  O   O11       1.0  0.19963  0.57022  0.35004  1.0000
  O   O12       1.0  0.62995  0.42998  0.15035  1.0000
  O   O13       1.0  0.30374  0.13100  0.17790  1.0000
  O   O14       1.0  0.17301  0.86926  0.32227  1.0000
  O   O15       1.0  0.69627  0.86901  0.82211  1.0000
  O   O16       1.0  0.82699  0.13074  0.67772  1.0000
