data_image0
_chemical_formula_structural       Zn2H40C22N8Cl4O4
_chemical_formula_sum              "Zn2 H40 C22 N8 Cl4 O4"
_cell_length_a       6.16931
_cell_length_b       11.1745
_cell_length_c       11.1391
_cell_angle_alpha    90
_cell_angle_beta     95.5161
_cell_angle_gamma    90

_space_group_name_H-M_alt    "P 1"
_space_group_IT_number       1

loop_
  _space_group_symop_operation_xyz
  'x, y, z'

loop_
  _atom_site_type_symbol
  _atom_site_label
  _atom_site_symmetry_multiplicity
  _atom_site_fract_x
  _atom_site_fract_y
  _atom_site_fract_z
  _atom_site_occupancy
  Zn  Zn1       1.0  0.48295  0.78259  0.17571  1.0000
  Zn  Zn2       1.0  0.51704  0.28259  0.82429  1.0000
  H   H1        1.0  0.75628  0.54100  0.91485  1.0000
  H   H2        1.0  0.24371  0.04100  0.08515  1.0000
  H   H3        1.0  0.64840  0.88862  0.98526  1.0000
  H   H4        1.0  0.35160  0.38862  0.01475  1.0000
  H   H5        1.0  0.19847  0.62089  0.92261  1.0000
  H   H6        1.0  0.80153  0.12088  0.07738  1.0000
  H   H7        1.0  0.21475  0.38508  0.65059  1.0000
  H   H8        1.0  0.78525  0.88508  0.34941  1.0000
  H   H9        1.0  0.09104  0.81074  0.85444  1.0000
  H   H10       1.0  0.90895  0.31074  0.14556  1.0000
  H   H11       1.0  0.01167  0.80542  0.69762  1.0000
  H   H12       1.0  0.98833  0.30542  0.30238  1.0000
  H   H13       1.0  0.97843  0.00038  0.89570  1.0000
  H   H14       1.0  0.02157  0.50038  0.10430  1.0000
  H   H15       1.0  0.70763  0.05123  0.85165  1.0000
  H   H16       1.0  0.29236  0.55123  0.14835  1.0000
  H   H17       1.0  0.89329  0.03045  0.74157  1.0000
  H   H18       1.0  0.10671  0.53045  0.25843  1.0000
  H   H19       1.0  0.63210  0.87736  0.61892  1.0000
  H   H20       1.0  0.36790  0.37736  0.38108  1.0000
  H   H21       1.0  0.45152  0.92697  0.72383  1.0000
  H   H22       1.0  0.54848  0.42697  0.27617  1.0000
  H   H23       1.0  0.49541  0.77133  0.70402  1.0000
  H   H24       1.0  0.50459  0.27132  0.29598  1.0000
  H   H25       1.0  0.72455  0.51314  0.70749  1.0000
  H   H26       1.0  0.27545  0.01313  0.29251  1.0000
  H   H27       1.0  0.72148  0.64893  0.62576  1.0000
  H   H28       1.0  0.27852  0.14893  0.37424  1.0000
  H   H29       1.0  0.99117  0.40235  0.45849  1.0000
  H   H30       1.0  0.00883  0.90235  0.54152  1.0000
  H   H31       1.0  0.76150  0.49922  0.44828  1.0000
  H   H32       1.0  0.23850  0.99922  0.55172  1.0000
  H   H33       1.0  0.78135  0.38003  0.55592  1.0000
  H   H34       1.0  0.21865  0.88003  0.44408  1.0000
  H   H35       1.0  0.21398  0.68638  0.59846  1.0000
  H   H36       1.0  0.78602  0.18638  0.40154  1.0000
  H   H37       1.0  0.00639  0.67999  0.47536  1.0000
  H   H38       1.0  0.99362  0.17999  0.52463  1.0000
  H   H39       1.0  0.23451  0.58253  0.48057  1.0000
  H   H40       1.0  0.76549  0.08253  0.51943  1.0000
  C   C1        1.0  0.68648  0.71145  0.95926  1.0000
  C   C2        1.0  0.31352  0.21144  0.04074  1.0000
  C   C3        1.0  0.76218  0.86507  0.80863  1.0000
  C   C4        1.0  0.23782  0.36507  0.19137  1.0000
  C   C5        1.0  0.95778  0.78595  0.78639  1.0000
  C   C6        1.0  0.04222  0.28595  0.21362  1.0000
  C   C7        1.0  0.92177  0.65038  0.79702  1.0000
  C   C8        1.0  0.07823  0.15038  0.20298  1.0000
  C   C9        1.0  0.84082  0.99440  0.82575  1.0000
  C   C10       1.0  0.15917  0.49440  0.17425  1.0000
  C   C11       1.0  0.57453  0.85937  0.70755  1.0000
  C   C12       1.0  0.42547  0.35937  0.29246  1.0000
  C   C13       1.0  0.22066  0.49706  0.79276  1.0000
  C   C14       1.0  0.77934  0.99706  0.20724  1.0000
  C   C15       1.0  0.99363  0.53275  0.60205  1.0000
  C   C16       1.0  0.00637  0.03275  0.39795  1.0000
  C   C17       1.0  0.82714  0.58684  0.68047  1.0000
  C   C18       1.0  0.17287  0.08684  0.31953  1.0000
  C   C19       1.0  0.87375  0.44788  0.51097  1.0000
  C   C20       1.0  0.12625  0.94788  0.48903  1.0000
  C   C21       1.0  0.11923  0.62633  0.53563  1.0000
  C   C22       1.0  0.88078  0.12633  0.46438  1.0000
  N   N1        1.0  0.77456  0.62829  0.89028  1.0000
  N   N2        1.0  0.22544  0.12830  0.10972  1.0000
  N   N3        1.0  0.68130  0.82582  0.92244  1.0000
  N   N4        1.0  0.31870  0.32582  0.07756  1.0000
  N   N5        1.0  0.13392  0.59654  0.83854  1.0000
  N   N6        1.0  0.86609  0.09654  0.16146  1.0000
  N   N7        1.0  0.14766  0.46170  0.68183  1.0000
  N   N8        1.0  0.85234  0.96170  0.31817  1.0000
  Cl  Cl1       1.0  0.14262  0.82094  0.10081  1.0000
  Cl  Cl2       1.0  0.85738  0.32094  0.89920  1.0000
  Cl  Cl3       1.0  0.57301  0.72267  0.36480  1.0000
  Cl  Cl4       1.0  0.42699  0.22267  0.63520  1.0000
  O   O1        1.0  0.60555  0.67606  0.05487  1.0000
  O   O2        1.0  0.39445  0.17606  0.94513  1.0000
  O   O3        1.0  0.37525  0.44310  0.85655  1.0000
  O   O4        1.0  0.62475  0.94310  0.14345  1.0000
