data_image0
_chemical_formula_structural       Cu4H44C36I4N4
_chemical_formula_sum              "Cu4 H44 C36 I4 N4"
_cell_length_a       7.63885
_cell_length_b       8.13127
_cell_length_c       16.6689
_cell_angle_alpha    90.0002
_cell_angle_beta     90.0001
_cell_angle_gamma    110.694

_space_group_name_H-M_alt    "P 1"
_space_group_IT_number       1

loop_
  _space_group_symop_operation_xyz
  'x, y, z'

loop_
  _atom_site_type_symbol
  _atom_site_label
  _atom_site_symmetry_multiplicity
  _atom_site_fract_x
  _atom_site_fract_y
  _atom_site_fract_z
  _atom_site_occupancy
  Cu  Cu1       1.0  0.86571  0.02793  0.02514  1.0000
  Cu  Cu2       1.0  0.63429  0.47207  0.52514  1.0000
  Cu  Cu3       1.0  0.13429  0.97207  0.97486  1.0000
  Cu  Cu4       1.0  0.36571  0.52794  0.47486  1.0000
  H   H1        1.0  0.70773  0.30080  0.97697  1.0000
  H   H2        1.0  0.79227  0.19919  0.47697  1.0000
  H   H3        1.0  0.29228  0.69919  0.02303  1.0000
  H   H4        1.0  0.20772  0.80081  0.52303  1.0000
  H   H5        1.0  0.47249  0.22961  0.01265  1.0000
  H   H6        1.0  0.02752  0.27039  0.51265  1.0000
  H   H7        1.0  0.52752  0.77038  0.98735  1.0000
  H   H8        1.0  0.97248  0.72962  0.48735  1.0000
  H   H9        1.0  0.48074  0.13970  0.87239  1.0000
  H   H10       1.0  0.01926  0.36030  0.37239  1.0000
  H   H11       1.0  0.51927  0.86029  0.12761  1.0000
  H   H12       1.0  0.98074  0.63971  0.62761  1.0000
  H   H13       1.0  0.63826  0.02898  0.89696  1.0000
  H   H14       1.0  0.86173  0.47102  0.39696  1.0000
  H   H15       1.0  0.36174  0.97101  0.10304  1.0000
  H   H16       1.0  0.13826  0.52899  0.60304  1.0000
  H   H17       1.0  0.57105  0.25030  0.14622  1.0000
  H   H18       1.0  0.92895  0.24970  0.64622  1.0000
  H   H19       1.0  0.42895  0.74969  0.85378  1.0000
  H   H20       1.0  0.07105  0.75031  0.35378  1.0000
  H   H21       1.0  0.80360  0.33480  0.10824  1.0000
  H   H22       1.0  0.69641  0.16519  0.60824  1.0000
  H   H23       1.0  0.19641  0.66519  0.89176  1.0000
  H   H24       1.0  0.30359  0.83481  0.39176  1.0000
  H   H25       1.0  0.02126  0.15568  0.14742  1.0000
  H   H26       1.0  0.47874  0.34432  0.64742  1.0000
  H   H27       1.0  0.97874  0.84431  0.85258  1.0000
  H   H28       1.0  0.52125  0.65569  0.35258  1.0000
  H   H29       1.0  0.12854  0.03179  0.26551  1.0000
  H   H30       1.0  0.37146  0.46820  0.76551  1.0000
  H   H31       1.0  0.87145  0.96820  0.73450  1.0000
  H   H32       1.0  0.62855  0.53181  0.23450  1.0000
  H   H33       1.0  0.92679  0.94892  0.38826  1.0000
  H   H34       1.0  0.57321  0.55107  0.88826  1.0000
  H   H35       1.0  0.07320  0.05108  0.61174  1.0000
  H   H36       1.0  0.42680  0.44893  0.11174  1.0000
  H   H37       1.0  0.62166  0.99001  0.39077  1.0000
  H   H38       1.0  0.87834  0.50999  0.89077  1.0000
  H   H39       1.0  0.37834  0.00999  0.60924  1.0000
  H   H40       1.0  0.12166  0.49001  0.10923  1.0000
  H   H41       1.0  0.51482  0.11646  0.27297  1.0000
  H   H42       1.0  0.98518  0.38354  0.77297  1.0000
  H   H43       1.0  0.48518  0.88354  0.72703  1.0000
  H   H44       1.0  0.01482  0.61646  0.22703  1.0000
  C   C1        1.0  0.58628  0.18465  0.99273  1.0000
  C   C2        1.0  0.91373  0.31535  0.49273  1.0000
  C   C3        1.0  0.41373  0.81534  0.00727  1.0000
  C   C4        1.0  0.08627  0.68465  0.50727  1.0000
  C   C5        1.0  0.52201  0.06746  0.91993  1.0000
  C   C6        1.0  0.97799  0.43254  0.41993  1.0000
  C   C7        1.0  0.47799  0.93253  0.08006  1.0000
  C   C8        1.0  0.02201  0.56747  0.58007  1.0000
  C   C9        1.0  0.69311  0.21466  0.12967  1.0000
  C   C10       1.0  0.80689  0.28534  0.62967  1.0000
  C   C11       1.0  0.30690  0.78533  0.87033  1.0000
  C   C12       1.0  0.19310  0.71467  0.37033  1.0000
  C   C13       1.0  0.75850  0.14031  0.20144  1.0000
  C   C14       1.0  0.74150  0.35968  0.70144  1.0000
  C   C15       1.0  0.24150  0.85968  0.79856  1.0000
  C   C16       1.0  0.25850  0.64032  0.29856  1.0000
  C   C17       1.0  0.93152  0.11628  0.20040  1.0000
  C   C18       1.0  0.56848  0.38372  0.70040  1.0000
  C   C19       1.0  0.06848  0.88371  0.79960  1.0000
  C   C20       1.0  0.43152  0.61629  0.29960  1.0000
  C   C21       1.0  0.99229  0.04697  0.26682  1.0000
  C   C22       1.0  0.50770  0.45303  0.76682  1.0000
  C   C23       1.0  0.00770  0.95302  0.73318  1.0000
  C   C24       1.0  0.49230  0.54698  0.23318  1.0000
  C   C25       1.0  0.88004  0.00069  0.33532  1.0000
  C   C26       1.0  0.61996  0.49931  0.83532  1.0000
  C   C27       1.0  0.11995  0.99931  0.66468  1.0000
  C   C28       1.0  0.38004  0.50069  0.16468  1.0000
  C   C29       1.0  0.70823  0.02506  0.33701  1.0000
  C   C30       1.0  0.79176  0.47494  0.83701  1.0000
  C   C31       1.0  0.29176  0.97494  0.66299  1.0000
  C   C32       1.0  0.20824  0.52506  0.16299  1.0000
  C   C33       1.0  0.64814  0.09519  0.27063  1.0000
  C   C34       1.0  0.85186  0.40481  0.77063  1.0000
  C   C35       1.0  0.35186  0.90480  0.72937  1.0000
  C   C36       1.0  0.14813  0.59520  0.22937  1.0000
  I   I1        1.0  0.87821  0.71994  0.04796  1.0000
  I   I2        1.0  0.62180  0.78007  0.54797  1.0000
  I   I3        1.0  0.12181  0.28006  0.95204  1.0000
  I   I4        1.0  0.37819  0.21994  0.45204  1.0000
  N   N1        1.0  0.64056  0.09219  0.05970  1.0000
  N   N2        1.0  0.85944  0.40781  0.55970  1.0000
  N   N3        1.0  0.35945  0.90780  0.94030  1.0000
  N   N4        1.0  0.14056  0.59219  0.44030  1.0000
