data_image0
_chemical_formula_structural       Cu4H40C32I4N8
_chemical_formula_sum              "Cu4 H40 C32 I4 N8"
_cell_length_a       8.57294
_cell_length_b       9.76756
_cell_length_c       12.2373
_cell_angle_alpha    112.59
_cell_angle_beta     90.7232
_cell_angle_gamma    95.4579

_space_group_name_H-M_alt    "P 1"
_space_group_IT_number       1

loop_
  _space_group_symop_operation_xyz
  'x, y, z'

loop_
  _atom_site_type_symbol
  _atom_site_label
  _atom_site_symmetry_multiplicity
  _atom_site_fract_x
  _atom_site_fract_y
  _atom_site_fract_z
  _atom_site_occupancy
  Cu  Cu1       1.0  0.58837  0.45101  0.74440  1.0000
  Cu  Cu2       1.0  0.41163  0.54899  0.25560  1.0000
  Cu  Cu3       1.0  0.84807  0.59207  0.74706  1.0000
  Cu  Cu4       1.0  0.15193  0.40793  0.25295  1.0000
  H   H1        1.0  0.29316  0.58103  0.02182  1.0000
  H   H2        1.0  0.70684  0.41897  0.97818  1.0000
  H   H3        1.0  0.37764  0.66243  0.92469  1.0000
  H   H4        1.0  0.62236  0.33757  0.07531  1.0000
  H   H5        1.0  0.48552  0.23557  0.87605  1.0000
  H   H6        1.0  0.51448  0.76443  0.12395  1.0000
  H   H7        1.0  0.35914  0.32335  0.99265  1.0000
  H   H8        1.0  0.64086  0.67666  0.00736  1.0000
  H   H9        1.0  0.22768  0.46802  0.79058  1.0000
  H   H10       1.0  0.77232  0.53198  0.20942  1.0000
  H   H11       1.0  0.18612  0.33491  0.85391  1.0000
  H   H12       1.0  0.81388  0.66509  0.14609  1.0000
  H   H13       1.0  0.09403  0.11306  0.68025  1.0000
  H   H14       1.0  0.90597  0.88694  0.31975  1.0000
  H   H15       1.0  0.13841  0.93569  0.47106  1.0000
  H   H16       1.0  0.86159  0.06430  0.52894  1.0000
  H   H17       1.0  0.37038  0.99635  0.37083  1.0000
  H   H18       1.0  0.62962  0.00365  0.62917  1.0000
  H   H19       1.0  0.55907  0.22154  0.48475  1.0000
  H   H20       1.0  0.44093  0.77845  0.51525  1.0000
  H   H21       1.0  0.96549  0.65572  0.43897  1.0000
  H   H22       1.0  0.03451  0.34428  0.56103  1.0000
  H   H23       1.0  0.78894  0.65510  0.51650  1.0000
  H   H24       1.0  0.21106  0.34489  0.48350  1.0000
  H   H25       1.0  0.20429  0.58172  0.65869  1.0000
  H   H26       1.0  0.79571  0.41828  0.34131  1.0000
  H   H27       1.0  0.20988  0.61021  0.52356  1.0000
  H   H28       1.0  0.79013  0.38979  0.47644  1.0000
  H   H29       1.0  0.92147  0.84876  0.67215  1.0000
  H   H30       1.0  0.07854  0.15123  0.32784  1.0000
  H   H31       1.0  0.11765  0.84224  0.62409  1.0000
  H   H32       1.0  0.88235  0.15776  0.37591  1.0000
  H   H33       1.0  0.27119  0.00381  0.80295  1.0000
  H   H34       1.0  0.72881  0.99619  0.19705  1.0000
  H   H35       1.0  0.34457  0.06725  0.01917  1.0000
  H   H36       1.0  0.65543  0.93276  0.98083  1.0000
  H   H37       1.0  0.20189  0.91839  0.12134  1.0000
  H   H38       1.0  0.79810  0.08162  0.87866  1.0000
  H   H39       1.0  0.99421  0.71348  0.00611  1.0000
  H   H40       1.0  0.00579  0.28652  0.99389  1.0000
  C   C1        1.0  0.39740  0.58921  0.97167  1.0000
  C   C2        1.0  0.60260  0.41079  0.02833  1.0000
  C   C3        1.0  0.46058  0.34332  0.94323  1.0000
  C   C4        1.0  0.53942  0.65668  0.05677  1.0000
  C   C5        1.0  0.27635  0.37705  0.80748  1.0000
  C   C6        1.0  0.72365  0.62294  0.19252  1.0000
  C   C7        1.0  0.30258  0.25798  0.68909  1.0000
  C   C8        1.0  0.69742  0.74202  0.31090  1.0000
  C   C9        1.0  0.19587  0.13206  0.63350  1.0000
  C   C10       1.0  0.80412  0.86794  0.36650  1.0000
  C   C11       1.0  0.21903  0.03576  0.51767  1.0000
  C   C12       1.0  0.78097  0.96423  0.48233  1.0000
  C   C13       1.0  0.34911  0.06840  0.46144  1.0000
  C   C14       1.0  0.65089  0.93160  0.53855  1.0000
  C   C15       1.0  0.45384  0.19338  0.52410  1.0000
  C   C16       1.0  0.54616  0.80661  0.47590  1.0000
  C   C17       1.0  0.89950  0.60503  0.49365  1.0000
  C   C18       1.0  0.10050  0.39496  0.50635  1.0000
  C   C19       1.0  0.13639  0.56104  0.57608  1.0000
  C   C20       1.0  0.86361  0.43895  0.42392  1.0000
  C   C21       1.0  0.03026  0.79576  0.66984  1.0000
  C   C22       1.0  0.96974  0.20424  0.33016  1.0000
  C   C23       1.0  0.08939  0.83234  0.79545  1.0000
  C   C24       1.0  0.91060  0.16765  0.20455  1.0000
  C   C25       1.0  0.21051  0.94452  0.85226  1.0000
  C   C26       1.0  0.78949  0.05548  0.14774  1.0000
  C   C27       1.0  0.25209  0.97852  0.97112  1.0000
  C   C28       1.0  0.74791  0.02149  0.02888  1.0000
  C   C29       1.0  0.17243  0.89675  0.02882  1.0000
  C   C30       1.0  0.82757  0.10326  0.97118  1.0000
  C   C31       1.0  0.05580  0.78344  0.96550  1.0000
  C   C32       1.0  0.94420  0.21657  0.03451  1.0000
  I   I1        1.0  0.84370  0.33298  0.75771  1.0000
  I   I2        1.0  0.15630  0.66702  0.24229  1.0000
  I   I3        1.0  0.58556  0.70869  0.73448  1.0000
  I   I4        1.0  0.41444  0.29131  0.26553  1.0000
  N   N1        1.0  0.43200  0.28613  0.63564  1.0000
  N   N2        1.0  0.56800  0.71386  0.36436  1.0000
  N   N3        1.0  0.42153  0.44112  0.88232  1.0000
  N   N4        1.0  0.57847  0.55888  0.11768  1.0000
  N   N5        1.0  0.01385  0.75180  0.85125  1.0000
  N   N6        1.0  0.98615  0.24820  0.14875  1.0000
  N   N7        1.0  0.99083  0.63454  0.60482  1.0000
  N   N8        1.0  0.00917  0.36546  0.39518  1.0000
