data_image0
_chemical_formula_structural       Cu4H36C16I4N4
_chemical_formula_sum              "Cu4 H36 C16 I4 N4"
_cell_length_a       7.37634
_cell_length_b       7.79746
_cell_length_c       12.5509
_cell_angle_alpha    89.9989
_cell_angle_beta     90.0035
_cell_angle_gamma    103.121

_space_group_name_H-M_alt    "P 1"
_space_group_IT_number       1

loop_
  _space_group_symop_operation_xyz
  'x, y, z'

loop_
  _atom_site_type_symbol
  _atom_site_label
  _atom_site_symmetry_multiplicity
  _atom_site_fract_x
  _atom_site_fract_y
  _atom_site_fract_z
  _atom_site_occupancy
  Cu  Cu1       1.0  0.46628  0.84665  0.51994  1.0000
  Cu  Cu2       1.0  0.53372  0.65335  0.01992  1.0000
  Cu  Cu3       1.0  0.53371  0.15333  0.48008  1.0000
  Cu  Cu4       1.0  0.46629  0.34668  0.98008  1.0000
  H   H1        1.0  0.23100  0.54473  0.40145  1.0000
  H   H2        1.0  0.76901  0.95528  0.90145  1.0000
  H   H3        1.0  0.76902  0.45527  0.59855  1.0000
  H   H4        1.0  0.23101  0.04474  0.09855  1.0000
  H   H5        1.0  0.25402  0.34671  0.46726  1.0000
  H   H6        1.0  0.74598  0.15330  0.96727  1.0000
  H   H7        1.0  0.74598  0.65328  0.53273  1.0000
  H   H8        1.0  0.25403  0.84673  0.03273  1.0000
  H   H9        1.0  0.43451  0.37339  0.63557  1.0000
  H   H10       1.0  0.56552  0.12658  0.13558  1.0000
  H   H11       1.0  0.56550  0.62657  0.36442  1.0000
  H   H12       1.0  0.43448  0.87342  0.86442  1.0000
  H   H13       1.0  0.53566  0.58749  0.68651  1.0000
  H   H14       1.0  0.46439  0.91250  0.18650  1.0000
  H   H15       1.0  0.46435  0.41249  0.31350  1.0000
  H   H16       1.0  0.53563  0.08754  0.81349  1.0000
  H   H17       1.0  0.12521  0.42986  0.62517  1.0000
  H   H18       1.0  0.87479  0.07011  0.12521  1.0000
  H   H19       1.0  0.87479  0.57009  0.37481  1.0000
  H   H20       1.0  0.12519  0.92994  0.87482  1.0000
  H   H21       1.0  0.09396  0.61863  0.55384  1.0000
  H   H22       1.0  0.90607  0.88135  0.05386  1.0000
  H   H23       1.0  0.90605  0.38133  0.44615  1.0000
  H   H24       1.0  0.09397  0.11870  0.94617  1.0000
  H   H25       1.0  0.28551  0.62665  0.77276  1.0000
  H   H26       1.0  0.71445  0.87328  0.27278  1.0000
  H   H27       1.0  0.71448  0.37333  0.22722  1.0000
  H   H28       1.0  0.28551  0.12675  0.72725  1.0000
  H   H29       1.0  0.06798  0.67563  0.74298  1.0000
  H   H30       1.0  0.93202  0.82428  0.24300  1.0000
  H   H31       1.0  0.93203  0.32429  0.25701  1.0000
  H   H32       1.0  0.06800  0.17575  0.75702  1.0000
  H   H33       1.0  0.27668  0.81562  0.69422  1.0000
  H   H34       1.0  0.72328  0.68429  0.19420  1.0000
  H   H35       1.0  0.72327  0.18431  0.30578  1.0000
  H   H36       1.0  0.27670  0.31570  0.80580  1.0000
  C   C1        1.0  0.32474  0.48472  0.44949  1.0000
  C   C2        1.0  0.67528  0.01526  0.94953  1.0000
  C   C3        1.0  0.67529  0.51525  0.55047  1.0000
  C   C4        1.0  0.32476  0.98474  0.05050  1.0000
  C   C5        1.0  0.49919  0.51090  0.61315  1.0000
  C   C6        1.0  0.50085  0.98909  0.11317  1.0000
  C   C7        1.0  0.50085  0.48908  0.38683  1.0000
  C   C8        1.0  0.49918  0.01093  0.88685  1.0000
  C   C9        1.0  0.18685  0.57043  0.60901  1.0000
  C   C10       1.0  0.81311  0.92955  0.10899  1.0000
  C   C11       1.0  0.81312  0.42954  0.39101  1.0000
  C   C12       1.0  0.18685  0.07050  0.89098  1.0000
  C   C13       1.0  0.20687  0.67783  0.71075  1.0000
  C   C14       1.0  0.79313  0.82212  0.21074  1.0000
  C   C15       1.0  0.79312  0.32213  0.28925  1.0000
  C   C16       1.0  0.20687  0.17794  0.78926  1.0000
  I   I1        1.0  0.24350  0.96343  0.39349  1.0000
  I   I2        1.0  0.75647  0.53659  0.89348  1.0000
  I   I3        1.0  0.75649  0.03657  0.60652  1.0000
  I   I4        1.0  0.24348  0.46343  0.10648  1.0000
  N   N1        1.0  0.36493  0.58526  0.55037  1.0000
  N   N2        1.0  0.63505  0.91476  0.05039  1.0000
  N   N3        1.0  0.63505  0.41474  0.44961  1.0000
  N   N4        1.0  0.36493  0.08529  0.94963  1.0000
