data_image0
_chemical_formula_structural       Ho4H36C40N16O40
_chemical_formula_sum              "Ho4 H36 C40 N16 O40"
_cell_length_a       9.22707
_cell_length_b       10.867
_cell_length_c       14.259
_cell_angle_alpha    104.893
_cell_angle_beta     90
_cell_angle_gamma    90

_space_group_name_H-M_alt    "P 1"
_space_group_IT_number       1

loop_
  _space_group_symop_operation_xyz
  'x, y, z'

loop_
  _atom_site_type_symbol
  _atom_site_label
  _atom_site_symmetry_multiplicity
  _atom_site_fract_x
  _atom_site_fract_y
  _atom_site_fract_z
  _atom_site_occupancy
  Ho  Ho1       1.0  0.37372  0.04229  0.76457  1.0000
  Ho  Ho2       1.0  0.87372  0.45771  0.73543  1.0000
  Ho  Ho3       1.0  0.62628  0.95771  0.23543  1.0000
  Ho  Ho4       1.0  0.12628  0.54229  0.26457  1.0000
  H   H1        1.0  0.60596  0.72058  0.01627  1.0000
  H   H2        1.0  0.10596  0.77942  0.48373  1.0000
  H   H3        1.0  0.39404  0.27942  0.98373  1.0000
  H   H4        1.0  0.89404  0.22058  0.51627  1.0000
  H   H5        1.0  0.10912  0.68509  0.92520  1.0000
  H   H6        1.0  0.60912  0.81491  0.57480  1.0000
  H   H7        1.0  0.89088  0.31491  0.07480  1.0000
  H   H8        1.0  0.39088  0.18509  0.42520  1.0000
  H   H9        1.0  0.09650  0.80528  0.73111  1.0000
  H   H10       1.0  0.59650  0.69472  0.76889  1.0000
  H   H11       1.0  0.90350  0.19472  0.26889  1.0000
  H   H12       1.0  0.40350  0.30528  0.23111  1.0000
  H   H13       1.0  0.44399  0.40948  0.84286  1.0000
  H   H14       1.0  0.94399  0.09052  0.65714  1.0000
  H   H15       1.0  0.55601  0.59052  0.15714  1.0000
  H   H16       1.0  0.05601  0.90948  0.34286  1.0000
  H   H17       1.0  0.84152  0.05860  0.94879  1.0000
  H   H18       1.0  0.34152  0.44140  0.55121  1.0000
  H   H19       1.0  0.15848  0.94140  0.05121  1.0000
  H   H20       1.0  0.65848  0.55860  0.44879  1.0000
  H   H21       1.0  0.58606  0.92923  0.87294  1.0000
  H   H22       1.0  0.08606  0.57078  0.62706  1.0000
  H   H23       1.0  0.41394  0.07078  0.12706  1.0000
  H   H24       1.0  0.91394  0.42923  0.37294  1.0000
  H   H25       1.0  0.55634  0.07327  0.93466  1.0000
  H   H26       1.0  0.05634  0.42673  0.56534  1.0000
  H   H27       1.0  0.44366  0.92674  0.06534  1.0000
  H   H28       1.0  0.94366  0.57327  0.43466  1.0000
  H   H29       1.0  0.34642  0.89127  0.55926  1.0000
  H   H30       1.0  0.84642  0.60873  0.94074  1.0000
  H   H31       1.0  0.65358  0.10873  0.44074  1.0000
  H   H32       1.0  0.15358  0.39127  0.05926  1.0000
  H   H33       1.0  0.20871  0.98325  0.58326  1.0000
  H   H34       1.0  0.70871  0.51675  0.91674  1.0000
  H   H35       1.0  0.79129  0.01675  0.41674  1.0000
  H   H36       1.0  0.29129  0.48325  0.08326  1.0000
  C   C1        1.0  0.16422  0.29414  0.73942  1.0000
  C   C2        1.0  0.66423  0.20586  0.76058  1.0000
  C   C3        1.0  0.83578  0.70586  0.26058  1.0000
  C   C4        1.0  0.33577  0.79414  0.23942  1.0000
  C   C5        1.0  0.21079  0.41800  0.80471  1.0000
  C   C6        1.0  0.71079  0.08200  0.69529  1.0000
  C   C7        1.0  0.78921  0.58200  0.19529  1.0000
  C   C8        1.0  0.28921  0.91800  0.30471  1.0000
  C   C9        1.0  0.34320  0.46230  0.84958  1.0000
  C   C10       1.0  0.84320  0.03770  0.65042  1.0000
  C   C11       1.0  0.65680  0.53770  0.15042  1.0000
  C   C12       1.0  0.15680  0.96230  0.34958  1.0000
  C   C13       1.0  0.31439  0.58649  0.90309  1.0000
  C   C14       1.0  0.81439  0.91350  0.59690  1.0000
  C   C15       1.0  0.68561  0.41350  0.09690  1.0000
  C   C16       1.0  0.18561  0.08649  0.40310  1.0000
  C   C17       1.0  0.40583  0.68807  0.96270  1.0000
  C   C18       1.0  0.90583  0.81192  0.53730  1.0000
  C   C19       1.0  0.59417  0.31192  0.03730  1.0000
  C   C20       1.0  0.09417  0.18807  0.46270  1.0000
  C   C21       1.0  0.14131  0.18251  0.94064  1.0000
  C   C22       1.0  0.64131  0.31749  0.55936  1.0000
  C   C23       1.0  0.85869  0.81749  0.05936  1.0000
  C   C24       1.0  0.35869  0.68251  0.44064  1.0000
  C   C25       1.0  0.06258  0.06748  0.88619  1.0000
  C   C26       1.0  0.56258  0.43252  0.61381  1.0000
  C   C27       1.0  0.93742  0.93252  0.11381  1.0000
  C   C28       1.0  0.43742  0.56748  0.38619  1.0000
  C   C29       1.0  0.92613  0.01585  0.89819  1.0000
  C   C30       1.0  0.42612  0.48415  0.60181  1.0000
  C   C31       1.0  0.07387  0.98415  0.10181  1.0000
  C   C32       1.0  0.57388  0.51586  0.39819  1.0000
  C   C33       1.0  0.92654  0.89551  0.83275  1.0000
  C   C34       1.0  0.42655  0.60449  0.66725  1.0000
  C   C35       1.0  0.07345  0.10449  0.16725  1.0000
  C   C36       1.0  0.57346  0.39551  0.33275  1.0000
  C   C37       1.0  0.82558  0.78567  0.81264  1.0000
  C   C38       1.0  0.32558  0.71433  0.68736  1.0000
  C   C39       1.0  0.17442  0.21433  0.18736  1.0000
  C   C40       1.0  0.67442  0.28567  0.31264  1.0000
  N   N1        1.0  0.17164  0.60969  0.88818  1.0000
  N   N2        1.0  0.67164  0.89031  0.61182  1.0000
  N   N3        1.0  0.82836  0.39031  0.11182  1.0000
  N   N4        1.0  0.32836  0.10969  0.38818  1.0000
  N   N5        1.0  0.10783  0.50939  0.82944  1.0000
  N   N6        1.0  0.60783  0.99061  0.67056  1.0000
  N   N7        1.0  0.89217  0.49061  0.17056  1.0000
  N   N8        1.0  0.39217  0.00939  0.32944  1.0000
  N   N9        1.0  0.13813  0.98536  0.81590  1.0000
  N   N10       1.0  0.63813  0.51464  0.68409  1.0000
  N   N11       1.0  0.86187  0.01464  0.18409  1.0000
  N   N12       1.0  0.36187  0.48536  0.31591  1.0000
  N   N13       1.0  0.05539  0.88304  0.78515  1.0000
  N   N14       1.0  0.55540  0.61696  0.71484  1.0000
  N   N15       1.0  0.94460  0.11696  0.21484  1.0000
  N   N16       1.0  0.44460  0.38304  0.28516  1.0000
  O   O1        1.0  0.07439  0.26513  0.00429  1.0000
  O   O2        1.0  0.57439  0.23487  0.49571  1.0000
  O   O3        1.0  0.92561  0.73487  0.99571  1.0000
  O   O4        1.0  0.42561  0.76513  0.50429  1.0000
  O   O5        1.0  0.27688  0.18691  0.91897  1.0000
  O   O6        1.0  0.77688  0.31309  0.58103  1.0000
  O   O7        1.0  0.72312  0.81309  0.08103  1.0000
  O   O8        1.0  0.22312  0.68691  0.41897  1.0000
  O   O9        1.0  0.03649  0.29092  0.70497  1.0000
  O   O10       1.0  0.53649  0.20908  0.79503  1.0000
  O   O11       1.0  0.96351  0.70908  0.29503  1.0000
  O   O12       1.0  0.46351  0.79092  0.20497  1.0000
  O   O13       1.0  0.24794  0.19923  0.72233  1.0000
  O   O14       1.0  0.74794  0.30077  0.77767  1.0000
  O   O15       1.0  0.75206  0.80077  0.27767  1.0000
  O   O16       1.0  0.25206  0.69923  0.22233  1.0000
  O   O17       1.0  0.53931  0.65021  0.97588  1.0000
  O   O18       1.0  0.03931  0.84979  0.52412  1.0000
  O   O19       1.0  0.46069  0.34979  0.02412  1.0000
  O   O20       1.0  0.96069  0.15021  0.47588  1.0000
  O   O21       1.0  0.35736  0.79696  0.99460  1.0000
  O   O22       1.0  0.85736  0.70302  0.50540  1.0000
  O   O23       1.0  0.64264  0.20302  0.00540  1.0000
  O   O24       1.0  0.14264  0.29697  0.49460  1.0000
  O   O25       1.0  0.87961  0.67946  0.76682  1.0000
  O   O26       1.0  0.37961  0.82054  0.73318  1.0000
  O   O27       1.0  0.12039  0.32054  0.23318  1.0000
  O   O28       1.0  0.62039  0.17946  0.26682  1.0000
  O   O29       1.0  0.69485  0.80358  0.84087  1.0000
  O   O30       1.0  0.19485  0.69642  0.65913  1.0000
  O   O31       1.0  0.30515  0.19643  0.15913  1.0000
  O   O32       1.0  0.80515  0.30358  0.34087  1.0000
  O   O33       1.0  0.51365  0.99991  0.88593  1.0000
  O   O34       1.0  0.01364  0.50009  0.61407  1.0000
  O   O35       1.0  0.48636  0.00009  0.11407  1.0000
  O   O36       1.0  0.98635  0.49991  0.38593  1.0000
  O   O37       1.0  0.30973  0.97577  0.60079  1.0000
  O   O38       1.0  0.80973  0.52423  0.89921  1.0000
  O   O39       1.0  0.69027  0.02423  0.39921  1.0000
  O   O40       1.0  0.19027  0.47577  0.10079  1.0000
