data_image0
_chemical_formula_structural       Zn6H44C64O36
_chemical_formula_sum              "Zn6 H44 C64 O36"
_cell_length_a       6.7284
_cell_length_b       14.4916
_cell_length_c       15.72
_cell_angle_alpha    90
_cell_angle_beta     98.3733
_cell_angle_gamma    90

_space_group_name_H-M_alt    "P 1"
_space_group_IT_number       1

loop_
  _space_group_symop_operation_xyz
  'x, y, z'

loop_
  _atom_site_type_symbol
  _atom_site_label
  _atom_site_symmetry_multiplicity
  _atom_site_fract_x
  _atom_site_fract_y
  _atom_site_fract_z
  _atom_site_occupancy
  Zn  Zn1       1.0  0.50000  0.50000  0.00000  1.0000
  Zn  Zn2       1.0  0.50000  0.00000  0.50000  1.0000
  Zn  Zn3       1.0  0.06164  0.52587  0.09414  1.0000
  Zn  Zn4       1.0  0.93836  0.02587  0.40586  1.0000
  Zn  Zn5       1.0  0.93836  0.47413  0.90586  1.0000
  Zn  Zn6       1.0  0.06164  0.97413  0.59414  1.0000
  H   H1        1.0  0.52232  0.17012  0.28442  1.0000
  H   H2        1.0  0.47770  0.67012  0.21558  1.0000
  H   H3        1.0  0.47768  0.82988  0.71558  1.0000
  H   H4        1.0  0.52231  0.32988  0.78442  1.0000
  H   H5        1.0  0.43738  0.29363  0.17806  1.0000
  H   H6        1.0  0.56263  0.79363  0.32194  1.0000
  H   H7        1.0  0.56262  0.70637  0.82194  1.0000
  H   H8        1.0  0.43738  0.20637  0.67806  1.0000
  H   H9        1.0  0.76960  0.68979  0.43905  1.0000
  H   H10       1.0  0.23040  0.18979  0.06095  1.0000
  H   H11       1.0  0.23040  0.31021  0.56095  1.0000
  H   H12       1.0  0.76960  0.81021  0.93905  1.0000
  H   H13       1.0  0.89095  0.73121  0.59216  1.0000
  H   H14       1.0  0.10904  0.23121  0.90784  1.0000
  H   H15       1.0  0.10905  0.26879  0.40784  1.0000
  H   H16       1.0  0.89096  0.76879  0.09216  1.0000
  H   H17       1.0  0.92552  0.60785  0.70471  1.0000
  H   H18       1.0  0.07448  0.10785  0.79529  1.0000
  H   H19       1.0  0.07448  0.39215  0.29529  1.0000
  H   H20       1.0  0.92552  0.89215  0.20471  1.0000
  H   H21       1.0  0.83905  0.44499  0.66245  1.0000
  H   H22       1.0  0.16095  0.94499  0.83755  1.0000
  H   H23       1.0  0.16095  0.55501  0.33755  1.0000
  H   H24       1.0  0.83906  0.05501  0.16245  1.0000
  H   H25       1.0  0.21773  0.39587  0.00892  1.0000
  H   H26       1.0  0.78226  0.89587  0.49108  1.0000
  H   H27       1.0  0.78226  0.60413  0.99108  1.0000
  H   H28       1.0  0.21773  0.10413  0.50892  1.0000
  H   H29       1.0  0.90937  0.36567  0.07444  1.0000
  H   H30       1.0  0.09063  0.86567  0.42556  1.0000
  H   H31       1.0  0.09063  0.63433  0.92556  1.0000
  H   H32       1.0  0.90937  0.13433  0.57444  1.0000
  H   H33       1.0  0.80209  0.41579  0.14260  1.0000
  H   H34       1.0  0.19791  0.91579  0.35739  1.0000
  H   H35       1.0  0.19791  0.58421  0.85739  1.0000
  H   H36       1.0  0.80209  0.08421  0.64260  1.0000
  H   H37       1.0  0.76083  0.57492  0.16600  1.0000
  H   H38       1.0  0.23918  0.07492  0.33400  1.0000
  H   H39       1.0  0.23917  0.42508  0.83400  1.0000
  H   H40       1.0  0.76083  0.92508  0.66600  1.0000
  H   H41       1.0  0.93278  0.61191  0.23430  1.0000
  H   H42       1.0  0.06722  0.11191  0.26570  1.0000
  H   H43       1.0  0.06722  0.38809  0.76570  1.0000
  H   H44       1.0  0.93278  0.88809  0.73430  1.0000
  C   C1        1.0  0.61799  0.26323  0.39005  1.0000
  C   C2        1.0  0.38202  0.76323  0.10995  1.0000
  C   C3        1.0  0.38200  0.73677  0.60995  1.0000
  C   C4        1.0  0.61799  0.23677  0.89004  1.0000
  C   C5        1.0  0.54377  0.24173  0.30455  1.0000
  C   C6        1.0  0.45624  0.74173  0.19546  1.0000
  C   C7        1.0  0.45624  0.75827  0.69545  1.0000
  C   C8        1.0  0.54377  0.25827  0.80454  1.0000
  C   C9        1.0  0.49715  0.31152  0.24423  1.0000
  C   C10       1.0  0.50285  0.81153  0.25577  1.0000
  C   C11       1.0  0.50284  0.68847  0.75577  1.0000
  C   C12       1.0  0.49716  0.18847  0.74423  1.0000
  C   C13       1.0  0.52865  0.40416  0.26749  1.0000
  C   C14       1.0  0.47135  0.90417  0.23251  1.0000
  C   C15       1.0  0.47135  0.59583  0.73250  1.0000
  C   C16       1.0  0.52865  0.09583  0.76749  1.0000
  C   C17       1.0  0.78669  0.63716  0.48902  1.0000
  C   C18       1.0  0.21332  0.13716  0.01098  1.0000
  C   C19       1.0  0.21332  0.36284  0.51098  1.0000
  C   C20       1.0  0.78669  0.86284  0.98902  1.0000
  C   C21       1.0  0.85441  0.65977  0.57455  1.0000
  C   C22       1.0  0.14560  0.15977  0.92545  1.0000
  C   C23       1.0  0.14560  0.34023  0.42545  1.0000
  C   C24       1.0  0.85440  0.84023  0.07455  1.0000
  C   C25       1.0  0.87559  0.59060  0.63743  1.0000
  C   C26       1.0  0.12442  0.09060  0.86257  1.0000
  C   C27       1.0  0.12442  0.40940  0.36257  1.0000
  C   C28       1.0  0.87558  0.90940  0.13743  1.0000
  C   C29       1.0  0.82900  0.49942  0.61438  1.0000
  C   C30       1.0  0.17101  0.99942  0.88562  1.0000
  C   C31       1.0  0.17100  0.50057  0.38562  1.0000
  C   C32       1.0  0.82899  0.00058  0.11438  1.0000
  C   C33       1.0  0.71974  0.37797  0.50596  1.0000
  C   C34       1.0  0.28026  0.87797  0.99404  1.0000
  C   C35       1.0  0.28026  0.62203  0.49404  1.0000
  C   C36       1.0  0.71974  0.12204  0.00596  1.0000
  C   C37       1.0  0.67070  0.52282  0.37429  1.0000
  C   C38       1.0  0.32930  0.02282  0.12571  1.0000
  C   C39       1.0  0.32930  0.47718  0.62571  1.0000
  C   C40       1.0  0.67070  0.97718  0.87429  1.0000
  C   C41       1.0  0.74038  0.54559  0.46536  1.0000
  C   C42       1.0  0.25961  0.04559  0.03464  1.0000
  C   C43       1.0  0.25962  0.45441  0.53464  1.0000
  C   C44       1.0  0.74039  0.95441  0.96536  1.0000
  C   C45       1.0  0.76253  0.47592  0.52874  1.0000
  C   C46       1.0  0.23747  0.97592  0.97127  1.0000
  C   C47       1.0  0.23747  0.52408  0.47126  1.0000
  C   C48       1.0  0.76253  0.02408  0.02874  1.0000
  C   C49       1.0  0.64924  0.35573  0.41449  1.0000
  C   C50       1.0  0.35077  0.85573  0.08551  1.0000
  C   C51       1.0  0.35076  0.64427  0.58551  1.0000
  C   C52       1.0  0.64923  0.14427  0.91449  1.0000
  C   C53       1.0  0.61086  0.42649  0.35227  1.0000
  C   C54       1.0  0.38914  0.92649  0.14773  1.0000
  C   C55       1.0  0.38914  0.57351  0.64773  1.0000
  C   C56       1.0  0.61085  0.07351  0.85227  1.0000
  C   C57       1.0  0.46453  0.47368  0.19781  1.0000
  C   C58       1.0  0.53547  0.97369  0.30219  1.0000
  C   C59       1.0  0.53546  0.52632  0.80219  1.0000
  C   C60       1.0  0.46454  0.02632  0.69781  1.0000
  C   C61       1.0  0.66901  0.18305  0.44994  1.0000
  C   C62       1.0  0.33099  0.68304  0.05007  1.0000
  C   C63       1.0  0.33099  0.81695  0.55006  1.0000
  C   C64       1.0  0.66901  0.31696  0.94993  1.0000
  O   O1        1.0  0.66906  0.58209  0.31691  1.0000
  O   O2        1.0  0.33093  0.08209  0.18309  1.0000
  O   O3        1.0  0.33093  0.41791  0.68309  1.0000
  O   O4        1.0  0.66906  0.91792  0.81691  1.0000
  O   O5        1.0  0.73886  0.31655  0.56139  1.0000
  O   O6        1.0  0.26114  0.81655  0.93861  1.0000
  O   O7        1.0  0.26114  0.68345  0.43861  1.0000
  O   O8        1.0  0.73886  0.18345  0.06139  1.0000
  O   O9        1.0  0.85183  0.15566  0.45984  1.0000
  O   O10       1.0  0.14817  0.65566  0.04016  1.0000
  O   O11       1.0  0.14817  0.84434  0.54016  1.0000
  O   O12       1.0  0.85183  0.34434  0.95984  1.0000
  O   O13       1.0  0.52531  0.14307  0.47854  1.0000
  O   O14       1.0  0.47469  0.64307  0.02146  1.0000
  O   O15       1.0  0.47469  0.85693  0.52146  1.0000
  O   O16       1.0  0.52530  0.35693  0.97854  1.0000
  O   O17       1.0  0.29694  0.51308  0.19641  1.0000
  O   O18       1.0  0.70306  0.01309  0.30358  1.0000
  O   O19       1.0  0.70305  0.48691  0.80359  1.0000
  O   O20       1.0  0.29694  0.98692  0.69641  1.0000
  O   O21       1.0  0.57963  0.48058  0.13971  1.0000
  O   O22       1.0  0.42037  0.98058  0.36029  1.0000
  O   O23       1.0  0.42037  0.51942  0.86029  1.0000
  O   O24       1.0  0.57963  0.01942  0.63971  1.0000
  O   O25       1.0  0.20256  0.46249  0.00199  1.0000
  O   O26       1.0  0.79744  0.96249  0.49801  1.0000
  O   O27       1.0  0.79744  0.53751  0.99801  1.0000
  O   O28       1.0  0.20256  0.03751  0.50199  1.0000
  O   O29       1.0  0.93801  0.39706  0.13111  1.0000
  O   O30       1.0  0.06199  0.89706  0.36889  1.0000
  O   O31       1.0  0.06198  0.60294  0.86889  1.0000
  O   O32       1.0  0.93801  0.10294  0.63111  1.0000
  O   O33       1.0  0.89326  0.60573  0.17242  1.0000
  O   O34       1.0  0.10674  0.10573  0.32758  1.0000
  O   O35       1.0  0.10674  0.39427  0.82758  1.0000
  O   O36       1.0  0.89326  0.89427  0.67242  1.0000
