data_image0
_chemical_formula_structural       Dy4H36C40N16O40
_chemical_formula_sum              "Dy4 H36 C40 N16 O40"
_cell_length_a       9.22712
_cell_length_b       10.8933
_cell_length_c       14.23
_cell_angle_alpha    104.924
_cell_angle_beta     90
_cell_angle_gamma    90

_space_group_name_H-M_alt    "P 1"
_space_group_IT_number       1

loop_
  _space_group_symop_operation_xyz
  'x, y, z'

loop_
  _atom_site_type_symbol
  _atom_site_label
  _atom_site_symmetry_multiplicity
  _atom_site_fract_x
  _atom_site_fract_y
  _atom_site_fract_z
  _atom_site_occupancy
  Dy  Dy1       1.0  0.37240  0.54224  0.76480  1.0000
  Dy  Dy2       1.0  0.87240  0.95776  0.73520  1.0000
  Dy  Dy3       1.0  0.62760  0.45776  0.23520  1.0000
  Dy  Dy4       1.0  0.12760  0.04224  0.26480  1.0000
  H   H1        1.0  0.60551  0.22088  0.01607  1.0000
  H   H2        1.0  0.10551  0.27912  0.48392  1.0000
  H   H3        1.0  0.39449  0.77912  0.98392  1.0000
  H   H4        1.0  0.89449  0.72088  0.51607  1.0000
  H   H5        1.0  0.10858  0.18456  0.92579  1.0000
  H   H6        1.0  0.60858  0.31543  0.57421  1.0000
  H   H7        1.0  0.89142  0.81544  0.07420  1.0000
  H   H8        1.0  0.39142  0.68457  0.42579  1.0000
  H   H9        1.0  0.09384  0.30549  0.73130  1.0000
  H   H10       1.0  0.59384  0.19451  0.76870  1.0000
  H   H11       1.0  0.90616  0.69451  0.26870  1.0000
  H   H12       1.0  0.40616  0.80549  0.23130  1.0000
  H   H13       1.0  0.44411  0.91004  0.84267  1.0000
  H   H14       1.0  0.94410  0.58996  0.65733  1.0000
  H   H15       1.0  0.55590  0.08996  0.15733  1.0000
  H   H16       1.0  0.05590  0.41004  0.34267  1.0000
  H   H17       1.0  0.83881  0.55840  0.94939  1.0000
  H   H18       1.0  0.33880  0.94160  0.55061  1.0000
  H   H19       1.0  0.16119  0.44160  0.05061  1.0000
  H   H20       1.0  0.66119  0.05840  0.44939  1.0000
  H   H21       1.0  0.34611  0.39039  0.55885  1.0000
  H   H22       1.0  0.84611  0.10960  0.94115  1.0000
  H   H23       1.0  0.65389  0.60960  0.44115  1.0000
  H   H24       1.0  0.15389  0.89040  0.05885  1.0000
  H   H25       1.0  0.20564  0.47841  0.58230  1.0000
  H   H26       1.0  0.70564  0.02159  0.91770  1.0000
  H   H27       1.0  0.79436  0.52159  0.41770  1.0000
  H   H28       1.0  0.29436  0.97841  0.08230  1.0000
  H   H29       1.0  0.58459  0.42869  0.87430  1.0000
  H   H30       1.0  0.08459  0.07131  0.62570  1.0000
  H   H31       1.0  0.41541  0.57131  0.12570  1.0000
  H   H32       1.0  0.91541  0.92869  0.37430  1.0000
  H   H33       1.0  0.55567  0.57261  0.93606  1.0000
  H   H34       1.0  0.05567  0.92739  0.56394  1.0000
  H   H35       1.0  0.44433  0.42739  0.06394  1.0000
  H   H36       1.0  0.94433  0.07261  0.43606  1.0000
  C   C1        1.0  0.16441  0.79477  0.73896  1.0000
  C   C2        1.0  0.66441  0.70523  0.76104  1.0000
  C   C3        1.0  0.83559  0.20523  0.26104  1.0000
  C   C4        1.0  0.33560  0.29477  0.23896  1.0000
  C   C5        1.0  0.21077  0.91834  0.80459  1.0000
  C   C6        1.0  0.71077  0.58166  0.69541  1.0000
  C   C7        1.0  0.78923  0.08166  0.19541  1.0000
  C   C8        1.0  0.28923  0.41834  0.30459  1.0000
  C   C9        1.0  0.34318  0.96261  0.84955  1.0000
  C   C10       1.0  0.84318  0.53739  0.65045  1.0000
  C   C11       1.0  0.65682  0.03739  0.15045  1.0000
  C   C12       1.0  0.15682  0.46261  0.34955  1.0000
  C   C13       1.0  0.31427  0.08659  0.90319  1.0000
  C   C14       1.0  0.81426  0.41341  0.59681  1.0000
  C   C15       1.0  0.68574  0.91342  0.09681  1.0000
  C   C16       1.0  0.18574  0.58659  0.40319  1.0000
  C   C17       1.0  0.40555  0.18825  0.96265  1.0000
  C   C18       1.0  0.90554  0.31175  0.53734  1.0000
  C   C19       1.0  0.59446  0.81175  0.03734  1.0000
  C   C20       1.0  0.09446  0.68825  0.46265  1.0000
  C   C21       1.0  0.13891  0.68216  0.94091  1.0000
  C   C22       1.0  0.63892  0.81785  0.55909  1.0000
  C   C23       1.0  0.86109  0.31784  0.05909  1.0000
  C   C24       1.0  0.36108  0.18216  0.44091  1.0000
  C   C25       1.0  0.05988  0.56733  0.88648  1.0000
  C   C26       1.0  0.55988  0.93267  0.61352  1.0000
  C   C27       1.0  0.94012  0.43267  0.11352  1.0000
  C   C28       1.0  0.44012  0.06733  0.38647  1.0000
  C   C29       1.0  0.92345  0.51572  0.89867  1.0000
  C   C30       1.0  0.42345  0.98428  0.60133  1.0000
  C   C31       1.0  0.07655  0.48428  0.10133  1.0000
  C   C32       1.0  0.57655  0.01572  0.39867  1.0000
  C   C33       1.0  0.92392  0.39555  0.83310  1.0000
  C   C34       1.0  0.42393  0.10445  0.66690  1.0000
  C   C35       1.0  0.07607  0.60445  0.16690  1.0000
  C   C36       1.0  0.57607  0.89555  0.33310  1.0000
  C   C37       1.0  0.82318  0.28577  0.81271  1.0000
  C   C38       1.0  0.32318  0.21423  0.68729  1.0000
  C   C39       1.0  0.17682  0.71423  0.18729  1.0000
  C   C40       1.0  0.67682  0.78577  0.31271  1.0000
  N   N1        1.0  0.17146  0.10960  0.88842  1.0000
  N   N2        1.0  0.67146  0.39040  0.61158  1.0000
  N   N3        1.0  0.82854  0.89040  0.11158  1.0000
  N   N4        1.0  0.32854  0.60960  0.38842  1.0000
  N   N5        1.0  0.10772  0.00942  0.82962  1.0000
  N   N6        1.0  0.60771  0.49058  0.67038  1.0000
  N   N7        1.0  0.89228  0.99058  0.17038  1.0000
  N   N8        1.0  0.39229  0.50942  0.32962  1.0000
  N   N9        1.0  0.13536  0.48528  0.81605  1.0000
  N   N10       1.0  0.63536  0.01472  0.68395  1.0000
  N   N11       1.0  0.86464  0.51472  0.18395  1.0000
  N   N12       1.0  0.36464  0.98527  0.31605  1.0000
  N   N13       1.0  0.05277  0.38310  0.78540  1.0000
  N   N14       1.0  0.55277  0.11690  0.71460  1.0000
  N   N15       1.0  0.94722  0.61690  0.21460  1.0000
  N   N16       1.0  0.44722  0.88310  0.28540  1.0000
  O   O1        1.0  0.24840  0.70027  0.72179  1.0000
  O   O2        1.0  0.74840  0.79973  0.77821  1.0000
  O   O3        1.0  0.75160  0.29973  0.27821  1.0000
  O   O4        1.0  0.25161  0.20027  0.22179  1.0000
  O   O5        1.0  0.03684  0.79134  0.70422  1.0000
  O   O6        1.0  0.53684  0.70866  0.79578  1.0000
  O   O7        1.0  0.96316  0.20866  0.29578  1.0000
  O   O8        1.0  0.46316  0.29134  0.20422  1.0000
  O   O9        1.0  0.27447  0.68647  0.91917  1.0000
  O   O10       1.0  0.77447  0.81353  0.58082  1.0000
  O   O11       1.0  0.72553  0.31353  0.08082  1.0000
  O   O12       1.0  0.22553  0.18647  0.41917  1.0000
  O   O13       1.0  0.07218  0.76474  0.00477  1.0000
  O   O14       1.0  0.57218  0.73526  0.49523  1.0000
  O   O15       1.0  0.92782  0.23526  0.99523  1.0000
  O   O16       1.0  0.42782  0.26474  0.50477  1.0000
  O   O17       1.0  0.69254  0.30324  0.84135  1.0000
  O   O18       1.0  0.19254  0.19676  0.65865  1.0000
  O   O19       1.0  0.30746  0.69676  0.15865  1.0000
  O   O20       1.0  0.80746  0.80324  0.34135  1.0000
  O   O21       1.0  0.87733  0.18008  0.76628  1.0000
  O   O22       1.0  0.37733  0.31992  0.73371  1.0000
  O   O23       1.0  0.12267  0.81992  0.23371  1.0000
  O   O24       1.0  0.62267  0.68008  0.26628  1.0000
  O   O25       1.0  0.35760  0.29708  0.99415  1.0000
  O   O26       1.0  0.85759  0.20291  0.50584  1.0000
  O   O27       1.0  0.64241  0.70292  0.00584  1.0000
  O   O28       1.0  0.14241  0.79708  0.49415  1.0000
  O   O29       1.0  0.53912  0.15050  0.97611  1.0000
  O   O30       1.0  0.03912  0.34950  0.52389  1.0000
  O   O31       1.0  0.46088  0.84950  0.02389  1.0000
  O   O32       1.0  0.96088  0.65050  0.47611  1.0000
  O   O33       1.0  0.30736  0.47438  0.59967  1.0000
  O   O34       1.0  0.80736  0.02561  0.90033  1.0000
  O   O35       1.0  0.69264  0.52561  0.40033  1.0000
  O   O36       1.0  0.19263  0.97439  0.09967  1.0000
  O   O37       1.0  0.51253  0.49956  0.88735  1.0000
  O   O38       1.0  0.01253  0.00044  0.61265  1.0000
  O   O39       1.0  0.48747  0.50044  0.11265  1.0000
  O   O40       1.0  0.98747  0.99956  0.38735  1.0000
