data_image0
_chemical_formula_structural       Na4H24C24S4N4Cl12O14
_chemical_formula_sum              "Na4 H24 C24 S4 N4 Cl12 O14"
_cell_length_a       6.34849
_cell_length_b       6.34916
_cell_length_c       30.0324
_cell_angle_alpha    92.8322
_cell_angle_beta     93.8461
_cell_angle_gamma    116.707

_space_group_name_H-M_alt    "P 1"
_space_group_IT_number       1

loop_
  _space_group_symop_operation_xyz
  'x, y, z'

loop_
  _atom_site_type_symbol
  _atom_site_label
  _atom_site_symmetry_multiplicity
  _atom_site_fract_x
  _atom_site_fract_y
  _atom_site_fract_z
  _atom_site_occupancy
  Na  Na1       1.0  0.59348  0.14439  0.73621  1.0000
  Na  Na2       1.0  0.90812  0.85745  0.76377  1.0000
  Na  Na3       1.0  0.40652  0.85561  0.26379  1.0000
  Na  Na4       1.0  0.09188  0.14255  0.23623  1.0000
  H   H1        1.0  0.58655  0.94040  0.52660  1.0000
  H   H2        1.0  0.91426  0.06061  0.97342  1.0000
  H   H3        1.0  0.41345  0.05959  0.47340  1.0000
  H   H4        1.0  0.08572  0.93938  0.02658  1.0000
  H   H5        1.0  0.07785  0.64489  0.54274  1.0000
  H   H6        1.0  0.60158  0.53482  0.95728  1.0000
  H   H7        1.0  0.92216  0.35511  0.45726  1.0000
  H   H8        1.0  0.39842  0.46518  0.04272  1.0000
  H   H9        1.0  0.20993  0.84754  0.61961  1.0000
  H   H10       1.0  0.72721  0.59003  0.88039  1.0000
  H   H11       1.0  0.79008  0.15246  0.38039  1.0000
  H   H12       1.0  0.27279  0.40998  0.11961  1.0000
  H   H13       1.0  0.37028  0.61711  0.72397  1.0000
  H   H14       1.0  0.39293  0.64640  0.77596  1.0000
  H   H15       1.0  0.62973  0.38289  0.27603  1.0000
  H   H16       1.0  0.60708  0.35360  0.22404  1.0000
  H   H17       1.0  0.36799  0.03781  0.81542  1.0000
  H   H18       1.0  0.72248  0.55271  0.68457  1.0000
  H   H19       1.0  0.63202  0.96220  0.18459  1.0000
  H   H20       1.0  0.27753  0.44730  0.31543  1.0000
  H   H21       1.0  0.32591  0.25883  0.80785  1.0000
  H   H22       1.0  0.95115  0.51831  0.69211  1.0000
  H   H23       1.0  0.67409  0.74118  0.19215  1.0000
  H   H24       1.0  0.04885  0.48170  0.30789  1.0000
  C   C1        1.0  0.97909  0.01130  0.61635  1.0000
  C   C2        1.0  0.89460  0.36279  0.88365  1.0000
  C   C3        1.0  0.02091  0.98870  0.38365  1.0000
  C   C4        1.0  0.10540  0.63722  0.11635  1.0000
  C   C5        1.0  0.80235  0.03688  0.58977  1.0000
  C   C6        1.0  0.94704  0.21283  0.91024  1.0000
  C   C7        1.0  0.19766  0.96311  0.41023  1.0000
  C   C8        1.0  0.05296  0.78717  0.08976  1.0000
  C   C9        1.0  0.72388  0.92009  0.54679  1.0000
  C   C10       1.0  0.87343  0.17744  0.95322  1.0000
  C   C11       1.0  0.27612  0.07990  0.45320  1.0000
  C   C12       1.0  0.12656  0.82255  0.04678  1.0000
  C   C13       1.0  0.82622  0.78280  0.52996  1.0000
  C   C14       1.0  0.75273  0.29634  0.97005  1.0000
  C   C15       1.0  0.17378  0.21719  0.47003  1.0000
  C   C16       1.0  0.24726  0.70366  0.02995  1.0000
  C   C17       1.0  0.00029  0.75391  0.55590  1.0000
  C   C18       1.0  0.69760  0.44424  0.94411  1.0000
  C   C19       1.0  0.99972  0.24609  0.44410  1.0000
  C   C20       1.0  0.30240  0.55577  0.05589  1.0000
  C   C21       1.0  0.07399  0.86767  0.59893  1.0000
  C   C22       1.0  0.76824  0.47495  0.90107  1.0000
  C   C23       1.0  0.92601  0.13233  0.40107  1.0000
  C   C24       1.0  0.23176  0.52506  0.09893  1.0000
  S   S1        1.0  0.09309  0.15451  0.67175  1.0000
  S   S2        1.0  0.98230  0.42135  0.82824  1.0000
  S   S3        1.0  0.90693  0.84549  0.32825  1.0000
  S   S4        1.0  0.01770  0.57862  0.17176  1.0000
  N   N1        1.0  0.17883  0.43386  0.67139  1.0000
  N   N2        1.0  0.26200  0.50731  0.82857  1.0000
  N   N3        1.0  0.82118  0.56614  0.32861  1.0000
  N   N4        1.0  0.73799  0.49270  0.17143  1.0000
  Cl  Cl1       1.0  0.40698  0.56056  0.63659  1.0000
  Cl  Cl2       1.0  0.42371  0.77034  0.86337  1.0000
  Cl  Cl3       1.0  0.59302  0.43945  0.36341  1.0000
  Cl  Cl4       1.0  0.57627  0.22967  0.13663  1.0000
  Cl  Cl5       1.0  0.67716  0.21239  0.60770  1.0000
  Cl  Cl6       1.0  0.10467  0.06976  0.89229  1.0000
  Cl  Cl7       1.0  0.32284  0.78760  0.39230  1.0000
  Cl  Cl8       1.0  0.89532  0.93024  0.10771  1.0000
  Cl  Cl9       1.0  0.74033  0.65394  0.47562  1.0000
  Cl  Cl10      1.0  0.67833  0.26470  0.02440  1.0000
  Cl  Cl11      1.0  0.25967  0.34605  0.52438  1.0000
  Cl  Cl12      1.0  0.32166  0.73531  0.97561  1.0000
  O   O1        1.0  0.89673  0.07713  0.69988  1.0000
  O   O2        1.0  0.87665  0.19682  0.80011  1.0000
  O   O3        1.0  0.10326  0.92287  0.30012  1.0000
  O   O4        1.0  0.12336  0.80319  0.19989  1.0000
  O   O5        1.0  0.27973  0.08867  0.68438  1.0000
  O   O6        1.0  0.90383  0.59533  0.81563  1.0000
  O   O7        1.0  0.72027  0.91133  0.31562  1.0000
  O   O8        1.0  0.09615  0.40467  0.18437  1.0000
  O   O9        1.0  0.47411  0.72425  0.74997  1.0000
  O   O10       1.0  0.52589  0.27574  0.25003  1.0000
  O   O11       1.0  0.32931  0.11978  0.79191  1.0000
  O   O12       1.0  0.82815  0.53779  0.70807  1.0000
  O   O13       1.0  0.67069  0.88022  0.20809  1.0000
  O   O14       1.0  0.17185  0.46221  0.29193  1.0000
