data_image0
_chemical_formula_structural       Na2H70C52N4O2
_chemical_formula_sum              "Na2 H70 C52 N4 O2"
_cell_length_a       8.69323
_cell_length_b       12.0009
_cell_length_c       12.7912
_cell_angle_alpha    72.934
_cell_angle_beta     79.7506
_cell_angle_gamma    68.831

_space_group_name_H-M_alt    "P 1"
_space_group_IT_number       1

loop_
  _space_group_symop_operation_xyz
  'x, y, z'

loop_
  _atom_site_type_symbol
  _atom_site_label
  _atom_site_symmetry_multiplicity
  _atom_site_fract_x
  _atom_site_fract_y
  _atom_site_fract_z
  _atom_site_occupancy
  Na  Na1       1.0  0.43163  0.89500  0.59322  1.0000
  Na  Na2       1.0  0.56838  0.10501  0.40678  1.0000
  H   H1        1.0  0.14823  0.72294  0.66105  1.0000
  H   H2        1.0  0.85178  0.27706  0.33895  1.0000
  H   H3        1.0  0.99730  0.54588  0.88727  1.0000
  H   H4        1.0  0.00270  0.45413  0.11273  1.0000
  H   H5        1.0  0.73143  0.16424  0.84177  1.0000
  H   H6        1.0  0.26856  0.83576  0.15823  1.0000
  H   H7        1.0  0.64194  0.05337  0.92905  1.0000
  H   H8        1.0  0.35805  0.94663  0.07094  1.0000
  H   H9        1.0  0.51376  0.20536  0.87145  1.0000
  H   H10       1.0  0.48623  0.79463  0.12855  1.0000
  H   H11       1.0  0.18190  0.37725  0.81484  1.0000
  H   H12       1.0  0.81810  0.62275  0.18516  1.0000
  H   H13       1.0  0.12288  0.36704  0.69295  1.0000
  H   H14       1.0  0.87712  0.63297  0.30705  1.0000
  H   H15       1.0  0.09031  0.26525  0.81923  1.0000
  H   H16       1.0  0.90970  0.73476  0.18077  1.0000
  H   H17       1.0  0.43622  0.59046  0.65855  1.0000
  H   H18       1.0  0.56379  0.40954  0.34145  1.0000
  H   H19       1.0  0.37024  0.52497  0.79313  1.0000
  H   H20       1.0  0.62976  0.47503  0.20687  1.0000
  H   H21       1.0  0.51314  0.42780  0.71219  1.0000
  H   H22       1.0  0.48687  0.57221  0.28781  1.0000
  H   H23       1.0  0.79797  0.37646  0.71552  1.0000
  H   H24       1.0  0.20204  0.62355  0.28448  1.0000
  H   H25       1.0  0.89780  0.98353  0.85099  1.0000
  H   H26       1.0  0.10219  0.01646  0.14901  1.0000
  H   H27       1.0  0.57470  0.18659  0.58119  1.0000
  H   H28       1.0  0.42531  0.81341  0.41880  1.0000
  H   H29       1.0  0.67939  0.24744  0.64639  1.0000
  H   H30       1.0  0.32061  0.75256  0.35361  1.0000
  H   H31       1.0  0.46076  0.28111  0.67174  1.0000
  H   H32       1.0  0.53924  0.71889  0.32826  1.0000
  H   H33       1.0  0.39927  0.69597  0.02268  1.0000
  H   H34       1.0  0.60073  0.30402  0.97732  1.0000
  H   H35       1.0  0.35510  0.57685  0.99065  1.0000
  H   H36       1.0  0.64489  0.42315  0.00935  1.0000
  H   H37       1.0  0.05551  0.58894  0.61184  1.0000
  H   H38       1.0  0.94449  0.41106  0.38815  1.0000
  H   H39       1.0  0.18185  0.67041  0.52051  1.0000
  H   H40       1.0  0.81816  0.32958  0.47949  1.0000
  H   H41       1.0  0.06285  0.60977  0.46790  1.0000
  H   H42       1.0  0.93714  0.39023  0.53209  1.0000
  H   H43       1.0  0.07830  0.71256  0.96788  1.0000
  H   H44       1.0  0.92170  0.28744  0.03212  1.0000
  H   H45       1.0  0.13223  0.83865  0.97796  1.0000
  H   H46       1.0  0.86777  0.16135  0.02204  1.0000
  H   H47       1.0  0.41581  0.04066  0.70846  1.0000
  H   H48       1.0  0.58418  0.95934  0.29154  1.0000
  H   H49       1.0  0.34333  0.12878  0.80788  1.0000
  H   H50       1.0  0.65667  0.87122  0.19211  1.0000
  H   H51       1.0  0.46601  0.97067  0.84689  1.0000
  H   H52       1.0  0.53398  0.02933  0.15310  1.0000
  H   H53       1.0  0.81737  0.74951  0.91948  1.0000
  H   H54       1.0  0.18263  0.25048  0.08054  1.0000
  H   H55       1.0  0.70481  0.67222  0.02795  1.0000
  H   H56       1.0  0.29519  0.32776  0.97206  1.0000
  H   H57       1.0  0.59955  0.79351  0.92094  1.0000
  H   H58       1.0  0.40045  0.20649  0.07908  1.0000
  H   H59       1.0  0.05305  0.88267  0.40338  1.0000
  H   H60       1.0  0.94695  0.11733  0.59662  1.0000
  H   H61       1.0  0.94442  0.82019  0.34245  1.0000
  H   H62       1.0  0.05558  0.17981  0.65755  1.0000
  H   H63       1.0  0.71318  0.70465  0.61068  1.0000
  H   H64       1.0  0.28682  0.29535  0.38932  1.0000
  H   H65       1.0  0.78770  0.66539  0.48379  1.0000
  H   H66       1.0  0.21230  0.33461  0.51621  1.0000
  H   H67       1.0  0.66091  0.81821  0.48276  1.0000
  H   H68       1.0  0.33909  0.18179  0.51724  1.0000
  H   H69       1.0  0.83741  0.94957  0.39787  1.0000
  H   H70       1.0  0.16259  0.05043  0.60213  1.0000
  C   C1        1.0  0.62141  0.52782  0.77469  1.0000
  C   C2        1.0  0.37859  0.47218  0.22531  1.0000
  C   C3        1.0  0.75706  0.98856  0.72538  1.0000
  C   C4        1.0  0.24294  0.01144  0.27461  1.0000
  C   C5        1.0  0.03791  0.79844  0.67533  1.0000
  C   C6        1.0  0.96209  0.20156  0.32466  1.0000
  C   C7        1.0  0.89199  0.53940  0.85667  1.0000
  C   C8        1.0  0.10801  0.46060  0.14333  1.0000
  C   C9        1.0  0.33637  0.76971  0.77106  1.0000
  C   C10       1.0  0.66363  0.23030  0.22894  1.0000
  C   C11       1.0  0.75895  0.93846  0.63495  1.0000
  C   C12       1.0  0.24105  0.06154  0.36505  1.0000
  C   C13       1.0  0.03819  0.85132  0.75901  1.0000
  C   C14       1.0  0.96181  0.14868  0.24099  1.0000
  C   C15       1.0  0.90318  0.83794  0.61334  1.0000
  C   C16       1.0  0.09682  0.16206  0.38666  1.0000
  C   C17       1.0  0.60521  0.09365  0.75415  1.0000
  C   C18       1.0  0.39478  0.90634  0.24585  1.0000
  C   C19       1.0  0.59946  0.61744  0.83217  1.0000
  C   C20       1.0  0.40054  0.38256  0.16784  1.0000
  C   C21       1.0  0.91414  0.77457  0.52219  1.0000
  C   C22       1.0  0.08586  0.22543  0.47781  1.0000
  C   C23       1.0  0.62581  0.13040  0.85500  1.0000
  C   C24       1.0  0.37418  0.86960  0.14500  1.0000
  C   C25       1.0  0.08691  0.36099  0.78083  1.0000
  C   C26       1.0  0.91309  0.63901  0.21917  1.0000
  C   C27       1.0  0.47813  0.51674  0.73254  1.0000
  C   C28       1.0  0.52187  0.48326  0.26746  1.0000
  C   C29       1.0  0.91780  0.45082  0.79920  1.0000
  C   C30       1.0  0.08220  0.54919  0.20080  1.0000
  C   C31       1.0  0.78065  0.44626  0.75936  1.0000
  C   C32       1.0  0.21935  0.55375  0.24064  1.0000
  C   C33       1.0  0.89660  0.94407  0.78466  1.0000
  C   C34       1.0  0.10340  0.05592  0.21534  1.0000
  C   C35       1.0  0.73433  0.62273  0.87476  1.0000
  C   C36       1.0  0.26567  0.37727  0.12525  1.0000
  C   C37       1.0  0.57841  0.20944  0.65728  1.0000
  C   C38       1.0  0.42159  0.79056  0.34272  1.0000
  C   C39       1.0  0.93873  0.86140  0.41004  1.0000
  C   C40       1.0  0.06127  0.13861  0.58996  1.0000
  C   C41       1.0  0.34669  0.67449  0.96227  1.0000
  C   C42       1.0  0.65330  0.32551  0.03773  1.0000
  C   C43       1.0  0.06275  0.65420  0.53186  1.0000
  C   C44       1.0  0.93725  0.34580  0.46814  1.0000
  C   C45       1.0  0.17010  0.76052  0.93998  1.0000
  C   C46       1.0  0.82990  0.23948  0.06002  1.0000
  C   C47       1.0  0.44819  0.05570  0.78081  1.0000
  C   C48       1.0  0.55181  0.94430  0.21919  1.0000
  C   C49       1.0  0.71261  0.71445  0.93904  1.0000
  C   C50       1.0  0.28738  0.28555  0.06098  1.0000
  C   C51       1.0  0.75849  0.73941  0.52580  1.0000
  C   C52       1.0  0.24151  0.26060  0.47420  1.0000
  N   N1        1.0  0.43685  0.69810  0.85217  1.0000
  N   N2        1.0  0.56315  0.30190  0.14783  1.0000
  N   N3        1.0  0.18139  0.80463  0.81836  1.0000
  N   N4        1.0  0.81861  0.19537  0.18165  1.0000
  O   O1        1.0  0.63248  0.98233  0.57446  1.0000
  O   O2        1.0  0.36752  0.01767  0.42553  1.0000
