data_image0
_chemical_formula_structural       H24Pb2C32S2N4O8
_chemical_formula_sum              "H24 Pb2 C32 S2 N4 O8"
_cell_length_a       8.22962
_cell_length_b       8.79795
_cell_length_c       10.8904
_cell_angle_alpha    75.7864
_cell_angle_beta     80.1344
_cell_angle_gamma    77.7409

_space_group_name_H-M_alt    "P 1"
_space_group_IT_number       1

loop_
  _space_group_symop_operation_xyz
  'x, y, z'

loop_
  _atom_site_type_symbol
  _atom_site_label
  _atom_site_symmetry_multiplicity
  _atom_site_fract_x
  _atom_site_fract_y
  _atom_site_fract_z
  _atom_site_occupancy
  H   H1        1.0  0.58409  0.69706  0.35388  1.0000
  H   H2        1.0  0.41591  0.30294  0.64612  1.0000
  H   H3        1.0  0.50034  0.71517  0.51145  1.0000
  H   H4        1.0  0.49966  0.28483  0.48855  1.0000
  H   H5        1.0  0.15102  0.94257  0.47554  1.0000
  H   H6        1.0  0.84898  0.05743  0.52446  1.0000
  H   H7        1.0  0.30477  0.95197  0.56968  1.0000
  H   H8        1.0  0.69523  0.04802  0.43032  1.0000
  H   H9        1.0  0.76307  0.88053  0.26826  1.0000
  H   H10       1.0  0.23693  0.11948  0.73175  1.0000
  H   H11       1.0  0.61650  0.07804  0.09706  1.0000
  H   H12       1.0  0.38350  0.92196  0.90294  1.0000
  H   H13       1.0  0.73047  0.07436  0.86548  1.0000
  H   H14       1.0  0.26953  0.92564  0.13453  1.0000
  H   H15       1.0  0.94171  0.95168  0.71198  1.0000
  H   H16       1.0  0.05828  0.04832  0.28801  1.0000
  H   H17       1.0  0.17950  0.73363  0.66848  1.0000
  H   H18       1.0  0.82050  0.26637  0.33151  1.0000
  H   H19       1.0  0.38632  0.49873  0.74855  1.0000
  H   H20       1.0  0.61368  0.50127  0.25145  1.0000
  H   H21       1.0  0.49252  0.29230  0.93309  1.0000
  H   H22       1.0  0.50748  0.70770  0.06691  1.0000
  H   H23       1.0  0.35251  0.31058  0.15697  1.0000
  H   H24       1.0  0.64749  0.68942  0.84303  1.0000
  Pb  Pb1       1.0  0.05968  0.53782  0.33106  1.0000
  Pb  Pb2       1.0  0.94032  0.46218  0.66894  1.0000
  C   C1        1.0  0.33047  0.65686  0.40542  1.0000
  C   C2        1.0  0.66953  0.34313  0.59458  1.0000
  C   C3        1.0  0.47062  0.74126  0.41324  1.0000
  C   C4        1.0  0.52938  0.25875  0.58676  1.0000
  C   C5        1.0  0.25755  0.99962  0.47679  1.0000
  C   C6        1.0  0.74245  0.00038  0.52321  1.0000
  C   C7        1.0  0.19640  0.17831  0.46347  1.0000
  C   C8        1.0  0.80361  0.82169  0.53653  1.0000
  C   C9        1.0  0.80213  0.87686  0.16794  1.0000
  C   C10       1.0  0.19787  0.12314  0.83206  1.0000
  C   C11       1.0  0.72272  0.98962  0.07077  1.0000
  C   C12       1.0  0.27728  0.01038  0.92923  1.0000
  C   C13       1.0  0.78444  0.98710  0.94486  1.0000
  C   C14       1.0  0.21556  0.01290  0.05514  1.0000
  C   C15       1.0  0.92234  0.86835  0.91733  1.0000
  C   C16       1.0  0.07767  0.13165  0.08266  1.0000
  C   C17       1.0  0.99405  0.86040  0.78936  1.0000
  C   C18       1.0  0.00595  0.13960  0.21064  1.0000
  C   C19       1.0  0.12547  0.74285  0.76565  1.0000
  C   C20       1.0  0.87453  0.25716  0.23434  1.0000
  C   C21       1.0  0.19506  0.62510  0.86827  1.0000
  C   C22       1.0  0.80493  0.37490  0.13173  1.0000
  C   C23       1.0  0.33035  0.50188  0.84635  1.0000
  C   C24       1.0  0.66965  0.49812  0.15365  1.0000
  C   C25       1.0  0.12765  0.62882  0.99712  1.0000
  C   C26       1.0  0.87235  0.37118  0.00288  1.0000
  C   C27       1.0  0.38874  0.38817  0.94865  1.0000
  C   C28       1.0  0.61126  0.61183  0.05135  1.0000
  C   C29       1.0  0.31248  0.39877  0.07295  1.0000
  C   C30       1.0  0.68752  0.60123  0.92705  1.0000
  C   C31       1.0  0.99031  0.75507  0.02195  1.0000
  C   C32       1.0  0.00969  0.24493  0.97805  1.0000
  S   S1        1.0  0.42416  0.95490  0.35258  1.0000
  S   S2        1.0  0.57584  0.04510  0.64742  1.0000
  N   N1        1.0  0.93050  0.76297  0.14457  1.0000
  N   N2        1.0  0.06950  0.23704  0.85543  1.0000
  N   N3        1.0  0.18735  0.51592  0.09653  1.0000
  N   N4        1.0  0.81265  0.48407  0.90347  1.0000
  O   O1        1.0  0.28940  0.67232  0.29310  1.0000
  O   O2        1.0  0.71060  0.32767  0.70691  1.0000
  O   O3        1.0  0.26177  0.57757  0.50603  1.0000
  O   O4        1.0  0.73823  0.42243  0.49397  1.0000
  O   O5        1.0  0.26086  0.27186  0.36727  1.0000
  O   O6        1.0  0.73914  0.72814  0.63273  1.0000
  O   O7        1.0  0.08354  0.21879  0.55031  1.0000
  O   O8        1.0  0.91646  0.78122  0.44969  1.0000
