data_image0
_chemical_formula_structural       Ag4H44C38S6N8O10
_chemical_formula_sum              "Ag4 H44 C38 S6 N8 O10"
_cell_length_a       7.15326
_cell_length_b       12.5255
_cell_length_c       14.211
_cell_angle_alpha    67.3975
_cell_angle_beta     84.6143
_cell_angle_gamma    89.6461

_space_group_name_H-M_alt    "P 1"
_space_group_IT_number       1

loop_
  _space_group_symop_operation_xyz
  'x, y, z'

loop_
  _atom_site_type_symbol
  _atom_site_label
  _atom_site_symmetry_multiplicity
  _atom_site_fract_x
  _atom_site_fract_y
  _atom_site_fract_z
  _atom_site_occupancy
  Ag  Ag1       1.0  0.83125  0.93279  0.48566  1.0000
  Ag  Ag2       1.0  0.16875  0.06720  0.51434  1.0000
  Ag  Ag3       1.0  0.49142  0.94818  0.61415  1.0000
  Ag  Ag4       1.0  0.50858  0.05182  0.38585  1.0000
  H   H1        1.0  0.94686  0.09139  0.24802  1.0000
  H   H2        1.0  0.05314  0.90861  0.75198  1.0000
  H   H3        1.0  0.33510  0.66606  0.74507  1.0000
  H   H4        1.0  0.66490  0.33394  0.25493  1.0000
  H   H5        1.0  0.52708  0.64641  0.66467  1.0000
  H   H6        1.0  0.47292  0.35360  0.33533  1.0000
  H   H7        1.0  0.80231  0.52125  0.72717  1.0000
  H   H8        1.0  0.19770  0.47876  0.27283  1.0000
  H   H9        1.0  0.97989  0.73514  0.44348  1.0000
  H   H10       1.0  0.02011  0.26486  0.55652  1.0000
  H   H11       1.0  0.97207  0.58992  0.52944  1.0000
  H   H12       1.0  0.02794  0.41008  0.47056  1.0000
  H   H13       1.0  0.74592  0.32668  0.86891  1.0000
  H   H14       1.0  0.25409  0.67332  0.13109  1.0000
  H   H15       1.0  0.78087  0.70544  0.28739  1.0000
  H   H16       1.0  0.21913  0.29456  0.71261  1.0000
  H   H17       1.0  0.94060  0.70584  0.18495  1.0000
  H   H18       1.0  0.05939  0.29416  0.81506  1.0000
  H   H19       1.0  0.24003  0.03218  0.16111  1.0000
  H   H20       1.0  0.75997  0.96782  0.83889  1.0000
  H   H21       1.0  0.08634  0.10811  0.06694  1.0000
  H   H22       1.0  0.91365  0.89189  0.93305  1.0000
  H   H23       1.0  0.78475  0.67817  0.94941  1.0000
  H   H24       1.0  0.21524  0.32183  0.05059  1.0000
  H   H25       1.0  0.61123  0.67843  0.14951  1.0000
  H   H26       1.0  0.38877  0.32157  0.85049  1.0000
  H   H27       1.0  0.55324  0.26432  0.10935  1.0000
  H   H28       1.0  0.44676  0.73568  0.89065  1.0000
  H   H29       1.0  0.78963  0.26522  0.13563  1.0000
  H   H30       1.0  0.21037  0.73478  0.86437  1.0000
  H   H31       1.0  0.72796  0.20585  0.04705  1.0000
  H   H32       1.0  0.27204  0.79414  0.95295  1.0000
  H   H33       1.0  0.07903  0.60525  0.34997  1.0000
  H   H34       1.0  0.92096  0.39474  0.65004  1.0000
  H   H35       1.0  0.73357  0.48530  0.08956  1.0000
  H   H36       1.0  0.26642  0.51470  0.91044  1.0000
  H   H37       1.0  0.45346  0.63867  0.42988  1.0000
  H   H38       1.0  0.54655  0.36133  0.57011  1.0000
  H   H39       1.0  0.42207  0.59251  0.32319  1.0000
  H   H40       1.0  0.57793  0.40748  0.67681  1.0000
  H   H41       1.0  0.64632  0.94517  0.07357  1.0000
  H   H42       1.0  0.35368  0.05483  0.92643  1.0000
  H   H43       1.0  0.47491  0.85825  0.03992  1.0000
  H   H44       1.0  0.52509  0.14175  0.96009  1.0000
  C   C1        1.0  0.26078  0.79907  0.52731  1.0000
  C   C2        1.0  0.73922  0.20093  0.47269  1.0000
  C   C3        1.0  0.85081  0.92969  0.25252  1.0000
  C   C4        1.0  0.14919  0.07031  0.74748  1.0000
  C   C5        1.0  0.38203  0.67572  0.66633  1.0000
  C   C6        1.0  0.61797  0.32428  0.33367  1.0000
  C   C7        1.0  0.79560  0.61067  0.82978  1.0000
  C   C8        1.0  0.20440  0.38933  0.17022  1.0000
  C   C9        1.0  0.78505  0.51232  0.80682  1.0000
  C   C10       1.0  0.21495  0.48768  0.19318  1.0000
  C   C11       1.0  0.06854  0.66083  0.47822  1.0000
  C   C12       1.0  0.93146  0.33916  0.52178  1.0000
  C   C13       1.0  0.25395  0.60781  0.62937  1.0000
  C   C14       1.0  0.74605  0.39220  0.37063  1.0000
  C   C15       1.0  0.75398  0.40394  0.88646  1.0000
  C   C16       1.0  0.24603  0.59606  0.11354  1.0000
  C   C17       1.0  0.73414  0.39199  0.98915  1.0000
  C   C18       1.0  0.26586  0.60802  0.01085  1.0000
  C   C19       1.0  0.82662  0.75421  0.20602  1.0000
  C   C20       1.0  0.17338  0.24579  0.79398  1.0000
  C   C21       1.0  0.05541  0.92206  0.12148  1.0000
  C   C22       1.0  0.94459  0.07794  0.87852  1.0000
  C   C23       1.0  0.09780  0.03153  0.13758  1.0000
  C   C24       1.0  0.90220  0.96847  0.86242  1.0000
  C   C25       1.0  0.77673  0.60102  0.93176  1.0000
  C   C26       1.0  0.22327  0.39898  0.06824  1.0000
  C   C27       1.0  0.66700  0.76255  0.14248  1.0000
  C   C28       1.0  0.33300  0.23745  0.85752  1.0000
  C   C29       1.0  0.69951  0.27554  0.07448  1.0000
  C   C30       1.0  0.30050  0.72446  0.92551  1.0000
  C   C31       1.0  0.17179  0.62670  0.39756  1.0000
  C   C32       1.0  0.82822  0.37329  0.60244  1.0000
  C   C33       1.0  0.74678  0.49243  0.01018  1.0000
  C   C34       1.0  0.25322  0.50757  0.98982  1.0000
  C   C35       1.0  0.35752  0.61896  0.38299  1.0000
  C   C36       1.0  0.64249  0.38104  0.61701  1.0000
  C   C37       1.0  0.59290  0.86007  0.08240  1.0000
  C   C38       1.0  0.40710  0.13993  0.91760  1.0000
  S   S1        1.0  0.83439  0.74980  0.73044  1.0000
  S   S2        1.0  0.16561  0.25020  0.26957  1.0000
  S   S3        1.0  0.19768  0.92103  0.42754  1.0000
  S   S4        1.0  0.80232  0.07897  0.57246  1.0000
  S   S5        1.0  0.67725  0.88378  0.35005  1.0000
  S   S6        1.0  0.32275  0.11622  0.64994  1.0000
  N   N1        1.0  0.37272  0.79587  0.59580  1.0000
  N   N2        1.0  0.62728  0.20413  0.40420  1.0000
  N   N3        1.0  0.19013  0.68933  0.54176  1.0000
  N   N4        1.0  0.80987  0.31066  0.45824  1.0000
  N   N5        1.0  0.95577  0.02641  0.21889  1.0000
  N   N6        1.0  0.04423  0.97359  0.78111  1.0000
  N   N7        1.0  0.90743  0.86523  0.19470  1.0000
  N   N8        1.0  0.09257  0.13477  0.80531  1.0000
  O   O1        1.0  0.02924  0.78662  0.73320  1.0000
  O   O2        1.0  0.97076  0.21338  0.26681  1.0000
  O   O3        1.0  0.80996  0.73597  0.63380  1.0000
  O   O4        1.0  0.19004  0.26403  0.36620  1.0000
  O   O5        1.0  0.69583  0.82495  0.75564  1.0000
  O   O6        1.0  0.30417  0.17506  0.24436  1.0000
  O   O7        1.0  0.13101  0.88671  0.05844  1.0000
  O   O8        1.0  0.86899  0.11329  0.94156  1.0000
  O   O9        1.0  0.21201  0.50379  0.66563  1.0000
  O   O10       1.0  0.78799  0.49620  0.33437  1.0000
