data_image0
_chemical_formula_structural       Na2H16C12S2Br2N2O7
_chemical_formula_sum              "Na2 H16 C12 S2 Br2 N2 O7"
_cell_length_a       6.12609
_cell_length_b       6.1262
_cell_length_c       14.8676
_cell_angle_alpha    78.1099
_cell_angle_beta     78.1115
_cell_angle_gamma    65.6694

_space_group_name_H-M_alt    "P 1"
_space_group_IT_number       1

loop_
  _space_group_symop_operation_xyz
  'x, y, z'

loop_
  _atom_site_type_symbol
  _atom_site_label
  _atom_site_symmetry_multiplicity
  _atom_site_fract_x
  _atom_site_fract_y
  _atom_site_fract_z
  _atom_site_occupancy
  Na  Na1       1.0  0.15845  0.11856  0.53618  1.0000
  Na  Na2       1.0  0.88144  0.84157  0.46382  1.0000
  H   H1        1.0  0.25751  0.81598  0.76940  1.0000
  H   H2        1.0  0.18399  0.74250  0.23061  1.0000
  H   H3        1.0  0.07966  0.95511  0.92257  1.0000
  H   H4        1.0  0.04488  0.92033  0.07744  1.0000
  H   H5        1.0  0.74956  0.83453  0.01942  1.0000
  H   H6        1.0  0.16543  0.25043  0.98058  1.0000
  H   H7        1.0  0.60090  0.57886  0.96009  1.0000
  H   H8        1.0  0.42110  0.39911  0.03991  1.0000
  H   H9        1.0  0.78605  0.43145  0.80636  1.0000
  H   H10       1.0  0.56850  0.21397  0.19364  1.0000
  H   H11       1.0  0.68335  0.36737  0.44610  1.0000
  H   H12       1.0  0.63264  0.31666  0.55389  1.0000
  H   H13       1.0  0.59117  0.90840  0.63064  1.0000
  H   H14       1.0  0.09162  0.40884  0.36936  1.0000
  H   H15       1.0  0.52932  0.69499  0.61522  1.0000
  H   H16       1.0  0.30503  0.47068  0.38478  1.0000
  C   C1        1.0  0.03200  0.61447  0.78015  1.0000
  C   C2        1.0  0.38551  0.96802  0.21985  1.0000
  C   C3        1.0  0.11672  0.76060  0.81210  1.0000
  C   C4        1.0  0.23937  0.88328  0.18791  1.0000
  C   C5        1.0  0.01529  0.83901  0.89836  1.0000
  C   C6        1.0  0.16095  0.98471  0.10164  1.0000
  C   C7        1.0  0.83037  0.77297  0.95207  1.0000
  C   C8        1.0  0.22699  0.16962  0.04793  1.0000
  C   C9        1.0  0.74668  0.62825  0.91890  1.0000
  C   C10       1.0  0.37172  0.25331  0.08110  1.0000
  C   C11       1.0  0.84799  0.54616  0.83294  1.0000
  C   C12       1.0  0.45381  0.15202  0.16705  1.0000
  S   S1        1.0  0.15347  0.52790  0.66723  1.0000
  S   S2        1.0  0.47208  0.84654  0.33277  1.0000
  Br  Br1       1.0  0.56551  0.16742  0.74861  1.0000
  Br  Br2       1.0  0.83258  0.43456  0.25137  1.0000
  N   N1        1.0  0.44081  0.44092  0.65757  1.0000
  N   N2        1.0  0.55910  0.55921  0.34243  1.0000
  O   O1        1.0  0.08104  0.74920  0.60039  1.0000
  O   O2        1.0  0.25081  0.91896  0.39961  1.0000
  O   O3        1.0  0.06324  0.34689  0.65952  1.0000
  O   O4        1.0  0.65311  0.93678  0.34048  1.0000
  O   O5        1.0  0.75093  0.24908  0.50000  1.0000
  O   O6        1.0  0.54680  0.84864  0.58382  1.0000
  O   O7        1.0  0.15138  0.45321  0.41618  1.0000
