data_image0
_chemical_formula_structural       Cd2H32C52S2N8O8
_chemical_formula_sum              "Cd2 H32 C52 S2 N8 O8"
_cell_length_a       8.72161
_cell_length_b       10.8598
_cell_length_c       13.2654
_cell_angle_alpha    83.4496
_cell_angle_beta     74.9619
_cell_angle_gamma    69.8311

_space_group_name_H-M_alt    "P 1"
_space_group_IT_number       1

loop_
  _space_group_symop_operation_xyz
  'x, y, z'

loop_
  _atom_site_type_symbol
  _atom_site_label
  _atom_site_symmetry_multiplicity
  _atom_site_fract_x
  _atom_site_fract_y
  _atom_site_fract_z
  _atom_site_occupancy
  Cd  Cd1       1.0  0.65795  0.75760  0.74914  1.0000
  Cd  Cd2       1.0  0.34205  0.24240  0.25086  1.0000
  H   H1        1.0  0.99811  0.66970  0.83539  1.0000
  H   H2        1.0  0.00189  0.33030  0.16461  1.0000
  H   H3        1.0  0.54029  0.83569  0.36508  1.0000
  H   H4        1.0  0.45971  0.16430  0.63492  1.0000
  H   H5        1.0  0.30919  0.57002  0.77071  1.0000
  H   H6        1.0  0.69081  0.42997  0.22929  1.0000
  H   H7        1.0  0.06352  0.64879  0.36886  1.0000
  H   H8        1.0  0.93649  0.35121  0.63114  1.0000
  H   H9        1.0  0.42835  0.52673  0.58050  1.0000
  H   H10       1.0  0.57165  0.47327  0.41950  1.0000
  H   H11       1.0  0.07124  0.55782  0.23099  1.0000
  H   H12       1.0  0.92877  0.44218  0.76901  1.0000
  H   H13       1.0  0.23411  0.58418  0.45996  1.0000
  H   H14       1.0  0.76589  0.41582  0.54004  1.0000
  H   H15       1.0  0.01625  0.99854  0.57684  1.0000
  H   H16       1.0  0.98375  0.00146  0.42316  1.0000
  H   H17       1.0  0.30053  0.92088  0.45552  1.0000
  H   H18       1.0  0.69947  0.07912  0.54448  1.0000
  H   H19       1.0  0.99045  0.97684  0.76942  1.0000
  H   H20       1.0  0.00955  0.02315  0.23058  1.0000
  H   H21       1.0  0.64938  0.90445  0.20674  1.0000
  H   H22       1.0  0.35062  0.09555  0.79326  1.0000
  H   H23       1.0  0.56424  0.12840  0.99588  1.0000
  H   H24       1.0  0.43576  0.87160  0.00412  1.0000
  H   H25       1.0  0.25320  0.87457  0.83462  1.0000
  H   H26       1.0  0.74680  0.12543  0.16538  1.0000
  H   H27       1.0  0.54160  0.37855  0.99178  1.0000
  H   H28       1.0  0.45839  0.62145  0.00822  1.0000
  H   H29       1.0  0.73292  0.87626  0.01450  1.0000
  H   H30       1.0  0.26708  0.12374  0.98550  1.0000
  H   H31       1.0  0.14335  0.54744  0.03859  1.0000
  H   H32       1.0  0.85666  0.45256  0.96141  1.0000
  C   C1        1.0  0.65649  0.00630  0.79158  1.0000
  C   C2        1.0  0.34351  0.99370  0.20842  1.0000
  C   C3        1.0  0.88694  0.70414  0.51773  1.0000
  C   C4        1.0  0.11306  0.29586  0.48227  1.0000
  C   C5        1.0  0.62616  0.50062  0.78213  1.0000
  C   C6        1.0  0.37385  0.49938  0.21787  1.0000
  C   C7        1.0  0.60296  0.80204  0.51607  1.0000
  C   C8        1.0  0.39704  0.19796  0.48393  1.0000
  C   C9        1.0  0.05465  0.64941  0.75243  1.0000
  C   C10       1.0  0.94535  0.35059  0.24757  1.0000
  C   C11       1.0  0.64012  0.79779  0.40689  1.0000
  C   C12       1.0  0.35988  0.20221  0.59311  1.0000
  C   C13       1.0  0.42843  0.85412  0.58228  1.0000
  C   C14       1.0  0.57158  0.14588  0.41772  1.0000
  C   C15       1.0  0.22811  0.59418  0.71624  1.0000
  C   C16       1.0  0.77189  0.40582  0.28376  1.0000
  C   C17       1.0  0.80779  0.74187  0.35198  1.0000
  C   C18       1.0  0.19221  0.25813  0.64802  1.0000
  C   C19       1.0  0.93250  0.69350  0.40903  1.0000
  C   C20       1.0  0.06750  0.30650  0.59097  1.0000
  C   C21       1.0  0.29307  0.57048  0.61009  1.0000
  C   C22       1.0  0.70693  0.42952  0.38991  1.0000
  C   C23       1.0  0.99427  0.63233  0.18623  1.0000
  C   C24       1.0  0.00573  0.36767  0.81377  1.0000
  C   C25       1.0  0.18436  0.60405  0.54300  1.0000
  C   C26       1.0  0.81564  0.39595  0.45700  1.0000
  C   C27       1.0  0.12851  0.95479  0.60717  1.0000
  C   C28       1.0  0.87150  0.04521  0.39283  1.0000
  C   C29       1.0  0.28740  0.90996  0.53982  1.0000
  C   C30       1.0  0.71260  0.09005  0.46018  1.0000
  C   C31       1.0  0.11257  0.94310  0.71475  1.0000
  C   C32       1.0  0.88743  0.05690  0.28525  1.0000
  C   C33       1.0  0.01143  0.66077  0.58447  1.0000
  C   C34       1.0  0.98857  0.33923  0.41553  1.0000
  C   C35       1.0  0.64066  0.13563  0.82618  1.0000
  C   C36       1.0  0.35934  0.86437  0.17382  1.0000
  C   C37       1.0  0.75879  0.82266  0.17310  1.0000
  C   C38       1.0  0.24121  0.17733  0.82690  1.0000
  C   C39       1.0  0.59314  0.18615  0.92522  1.0000
  C   C40       1.0  0.40685  0.81385  0.07478  1.0000
  C   C41       1.0  0.25836  0.88683  0.75106  1.0000
  C   C42       1.0  0.74164  0.11317  0.24894  1.0000
  C   C43       1.0  0.57926  0.32013  0.92252  1.0000
  C   C44       1.0  0.42074  0.67987  0.07748  1.0000
  C   C45       1.0  0.80700  0.80830  0.06506  1.0000
  C   C46       1.0  0.19300  0.19170  0.93493  1.0000
  C   C47       1.0  0.61554  0.36996  0.82144  1.0000
  C   C48       1.0  0.38447  0.63004  0.17856  1.0000
  C   C49       1.0  0.85335  0.73272  0.23678  1.0000
  C   C50       1.0  0.14665  0.26728  0.76322  1.0000
  C   C51       1.0  0.03351  0.62595  0.07781  1.0000
  C   C52       1.0  0.96649  0.37405  0.92219  1.0000
  S   S1        1.0  0.66712  0.25256  0.73033  1.0000
  S   S2        1.0  0.33288  0.74745  0.26967  1.0000
  N   N1        1.0  0.72566  0.75682  0.56744  1.0000
  N   N2        1.0  0.27434  0.24319  0.43256  1.0000
  N   N3        1.0  0.95001  0.68042  0.68825  1.0000
  N   N4        1.0  0.04999  0.31958  0.31175  1.0000
  N   N5        1.0  0.41121  0.84438  0.68693  1.0000
  N   N6        1.0  0.58879  0.15562  0.31307  1.0000
  N   N7        1.0  0.94234  0.71172  0.01682  1.0000
  N   N8        1.0  0.05766  0.28827  0.98318  1.0000
  O   O1        1.0  0.66825  0.51887  0.68427  1.0000
  O   O2        1.0  0.33178  0.48112  0.31573  1.0000
  O   O3        1.0  0.62452  0.91924  0.86055  1.0000
  O   O4        1.0  0.37548  0.08076  0.13945  1.0000
  O   O5        1.0  0.59693  0.58769  0.84945  1.0000
  O   O6        1.0  0.40306  0.41231  0.15054  1.0000
  O   O7        1.0  0.69679  0.98866  0.69393  1.0000
  O   O8        1.0  0.30321  0.01134  0.30607  1.0000
