data_image0
_chemical_formula_structural       CaH20C10S2N2O8
_chemical_formula_sum              "Ca1 H20 C10 S2 N2 O8"
_cell_length_a       5.40274
_cell_length_b       8.0997
_cell_length_c       9.69465
_cell_angle_alpha    70.4827
_cell_angle_beta     84.4895
_cell_angle_gamma    89.6263

_space_group_name_H-M_alt    "P 1"
_space_group_IT_number       1

loop_
  _space_group_symop_operation_xyz
  'x, y, z'

loop_
  _atom_site_type_symbol
  _atom_site_label
  _atom_site_symmetry_multiplicity
  _atom_site_fract_x
  _atom_site_fract_y
  _atom_site_fract_z
  _atom_site_occupancy
  Ca  Ca1       1.0  0.00000  0.50000  0.99999  1.0000
  H   H1        1.0  0.88901  0.17995  0.69441  1.0000
  H   H2        1.0  0.11099  0.82006  0.30559  1.0000
  H   H3        1.0  0.53419  0.23474  0.33389  1.0000
  H   H4        1.0  0.46581  0.76525  0.66612  1.0000
  H   H5        1.0  0.60961  0.34306  0.45797  1.0000
  H   H6        1.0  0.39039  0.65694  0.54203  1.0000
  H   H7        1.0  0.16941  0.38134  0.52779  1.0000
  H   H8        1.0  0.83059  0.61866  0.47221  1.0000
  H   H9        1.0  0.07118  0.28293  0.40316  1.0000
  H   H10       1.0  0.92882  0.71707  0.59683  1.0000
  H   H11       1.0  0.23226  0.99780  0.54715  1.0000
  H   H12       1.0  0.76772  0.00220  0.45285  1.0000
  H   H13       1.0  0.38844  0.09624  0.65419  1.0000
  H   H14       1.0  0.61156  0.90376  0.34580  1.0000
  H   H15       1.0  0.75142  0.87885  0.02253  1.0000
  H   H16       1.0  0.24858  0.12115  0.97748  1.0000
  H   H17       1.0  0.57621  0.82760  0.89728  1.0000
  H   H18       1.0  0.42382  0.17240  0.10272  1.0000
  H   H19       1.0  0.62682  0.05219  0.87874  1.0000
  H   H20       1.0  0.37318  0.94781  0.12126  1.0000
  C   C1        1.0  0.46964  0.32969  0.38716  1.0000
  C   C2        1.0  0.53037  0.67031  0.61284  1.0000
  C   C3        1.0  0.21623  0.28212  0.47566  1.0000
  C   C4        1.0  0.78376  0.71788  0.52434  1.0000
  C   C5        1.0  0.22221  0.10317  0.59536  1.0000
  C   C6        1.0  0.77778  0.89683  0.40464  1.0000
  C   C7        1.0  0.94535  0.92570  0.81078  1.0000
  C   C8        1.0  0.05466  0.07431  0.18922  1.0000
  C   C9        1.0  0.71052  0.92340  0.90736  1.0000
  C   C10       1.0  0.28949  0.07660  0.09264  1.0000
  S   S1        1.0  0.47697  0.53496  0.24141  1.0000
  S   S2        1.0  0.52302  0.46504  0.75859  1.0000
  N   N1        1.0  0.00020  0.07527  0.69899  1.0000
  N   N2        1.0  0.99981  0.92474  0.30101  1.0000
  O   O1        1.0  0.37612  0.66553  0.30467  1.0000
  O   O2        1.0  0.62390  0.33447  0.69533  1.0000
  O   O3        1.0  0.74180  0.57046  0.18422  1.0000
  O   O4        1.0  0.25820  0.42953  0.81576  1.0000
  O   O5        1.0  0.32562  0.51072  0.13083  1.0000
  O   O6        1.0  0.67435  0.48927  0.86918  1.0000
  O   O7        1.0  0.08142  0.79371  0.83315  1.0000
  O   O8        1.0  0.91861  0.20631  0.16686  1.0000
