data_image0
_chemical_formula_structural       Co2Cu4H60C30S12Br4N6
_chemical_formula_sum              "Co2 Cu4 H60 C30 S12 Br4 N6"
_cell_length_a       11.6061
_cell_length_b       11.6389
_cell_length_c       13.705
_cell_angle_alpha    66.9454
_cell_angle_beta     66.8766
_cell_angle_gamma    74.8807

_space_group_name_H-M_alt    "P 1"
_space_group_IT_number       1

loop_
  _space_group_symop_operation_xyz
  'x, y, z'

loop_
  _atom_site_type_symbol
  _atom_site_label
  _atom_site_symmetry_multiplicity
  _atom_site_fract_x
  _atom_site_fract_y
  _atom_site_fract_z
  _atom_site_occupancy
  Co  Co1       1.0  0.89896  0.10093  0.75007  1.0000
  Co  Co2       1.0  0.10105  0.89908  0.24992  1.0000
  Cu  Cu1       1.0  0.61943  0.03348  0.92470  1.0000
  Cu  Cu2       1.0  0.96641  0.38003  0.57576  1.0000
  Cu  Cu3       1.0  0.38059  0.96655  0.07531  1.0000
  Cu  Cu4       1.0  0.03360  0.61997  0.42424  1.0000
  H   H1        1.0  0.72249  0.52050  0.72100  1.0000
  H   H2        1.0  0.47844  0.27835  0.77869  1.0000
  H   H3        1.0  0.27752  0.47949  0.27901  1.0000
  H   H4        1.0  0.52155  0.72166  0.22131  1.0000
  H   H5        1.0  0.58112  0.58575  0.68952  1.0000
  H   H6        1.0  0.41332  0.41935  0.81036  1.0000
  H   H7        1.0  0.41889  0.41425  0.31048  1.0000
  H   H8        1.0  0.58667  0.58067  0.18964  1.0000
  H   H9        1.0  0.45536  0.51428  0.89812  1.0000
  H   H10       1.0  0.48576  0.54445  0.60171  1.0000
  H   H11       1.0  0.54464  0.48570  0.10189  1.0000
  H   H12       1.0  0.51424  0.45555  0.39829  1.0000
  H   H13       1.0  0.59942  0.45324  0.92708  1.0000
  H   H14       1.0  0.54663  0.40071  0.57267  1.0000
  H   H15       1.0  0.40059  0.54675  0.07292  1.0000
  H   H16       1.0  0.45336  0.59930  0.42732  1.0000
  H   H17       1.0  0.56186  0.61870  0.86610  1.0000
  H   H18       1.0  0.38054  0.43876  0.63362  1.0000
  H   H19       1.0  0.43814  0.38128  0.13391  1.0000
  H   H20       1.0  0.61945  0.56125  0.36638  1.0000
  H   H21       1.0  0.99662  0.66630  0.82438  1.0000
  H   H22       1.0  0.33560  0.00457  0.67382  1.0000
  H   H23       1.0  0.00338  0.33369  0.17563  1.0000
  H   H24       1.0  0.66438  0.99544  0.32619  1.0000
  H   H25       1.0  0.94708  0.55330  0.95966  1.0000
  H   H26       1.0  0.44844  0.05555  0.53841  1.0000
  H   H27       1.0  0.05291  0.44670  0.04035  1.0000
  H   H28       1.0  0.55155  0.94443  0.46160  1.0000
  H   H29       1.0  0.73289  0.57692  0.94329  1.0000
  H   H30       1.0  0.42334  0.26815  0.55673  1.0000
  H   H31       1.0  0.26711  0.42307  0.05671  1.0000
  H   H32       1.0  0.57664  0.73185  0.44327  1.0000
  H   H33       1.0  0.78136  0.69165  0.80885  1.0000
  H   H34       1.0  0.30866  0.21857  0.69124  1.0000
  H   H35       1.0  0.21864  0.30834  0.19115  1.0000
  H   H36       1.0  0.69133  0.78143  0.30876  1.0000
  H   H37       1.0  0.85483  0.53266  0.83047  1.0000
  H   H38       1.0  0.46849  0.14629  0.66876  1.0000
  H   H39       1.0  0.14518  0.46733  0.16952  1.0000
  H   H40       1.0  0.53151  0.85372  0.33123  1.0000
  H   H41       1.0  0.74435  0.77190  0.09785  1.0000
  H   H42       1.0  0.22837  0.25633  0.40162  1.0000
  H   H43       1.0  0.25566  0.22809  0.90214  1.0000
  H   H44       1.0  0.77162  0.74366  0.59838  1.0000
  H   H45       1.0  0.78269  0.61158  0.10647  1.0000
  H   H46       1.0  0.38935  0.21794  0.39240  1.0000
  H   H47       1.0  0.21731  0.38841  0.89353  1.0000
  H   H48       1.0  0.61064  0.78207  0.60760  1.0000
  H   H49       1.0  0.00748  0.61949  0.09108  1.0000
  H   H50       1.0  0.38069  0.99383  0.40833  1.0000
  H   H51       1.0  0.99253  0.38051  0.90891  1.0000
  H   H52       1.0  0.61932  0.00617  0.59167  1.0000
  H   H53       1.0  0.96139  0.77724  0.09189  1.0000
  H   H54       1.0  0.22229  0.03996  0.40812  1.0000
  H   H55       1.0  0.03863  0.22276  0.90810  1.0000
  H   H56       1.0  0.77772  0.96004  0.59188  1.0000
  H   H57       1.0  0.89303  0.65181  0.21179  1.0000
  H   H58       1.0  0.34802  0.10754  0.28774  1.0000
  H   H59       1.0  0.10698  0.34819  0.78819  1.0000
  H   H60       1.0  0.65198  0.89246  0.71226  1.0000
  C   C1        1.0  0.70267  0.29694  0.75020  1.0000
  C   C2        1.0  0.29733  0.70306  0.24980  1.0000
  C   C3        1.0  0.62132  0.51217  0.75151  1.0000
  C   C4        1.0  0.48711  0.37909  0.74829  1.0000
  C   C5        1.0  0.37868  0.48783  0.24849  1.0000
  C   C6        1.0  0.51288  0.62092  0.25170  1.0000
  C   C7        1.0  0.55580  0.52557  0.86733  1.0000
  C   C8        1.0  0.47406  0.44444  0.63241  1.0000
  C   C9        1.0  0.44420  0.47442  0.13267  1.0000
  C   C10       1.0  0.52593  0.55557  0.36758  1.0000
  C   C11       1.0  0.87030  0.85646  0.88602  1.0000
  C   C12       1.0  0.14393  0.13033  0.61352  1.0000
  C   C13       1.0  0.12970  0.14354  0.11397  1.0000
  C   C14       1.0  0.85606  0.86967  0.38648  1.0000
  C   C15       1.0  0.91405  0.63700  0.89929  1.0000
  C   C16       1.0  0.36429  0.08745  0.59941  1.0000
  C   C17       1.0  0.08595  0.36301  0.10071  1.0000
  C   C18       1.0  0.63571  0.91254  0.40060  1.0000
  C   C19       1.0  0.81469  0.60765  0.86871  1.0000
  C   C20       1.0  0.39307  0.18614  0.63087  1.0000
  C   C21       1.0  0.18531  0.39234  0.13129  1.0000
  C   C22       1.0  0.60692  0.81386  0.36913  1.0000
  C   C23       1.0  0.82238  0.70048  0.07361  1.0000
  C   C24       1.0  0.30002  0.17853  0.42561  1.0000
  C   C25       1.0  0.17762  0.29951  0.92638  1.0000
  C   C26       1.0  0.69997  0.82147  0.57439  1.0000
  C   C27       1.0  0.92718  0.68657  0.11957  1.0000
  C   C28       1.0  0.31345  0.07387  0.37995  1.0000
  C   C29       1.0  0.07283  0.31343  0.88042  1.0000
  C   C30       1.0  0.68656  0.92612  0.62006  1.0000
  S   S1        1.0  0.70150  0.15634  0.73618  1.0000
  S   S2        1.0  0.84373  0.29760  0.76433  1.0000
  S   S3        1.0  0.29850  0.84365  0.26382  1.0000
  S   S4        1.0  0.15627  0.70240  0.23566  1.0000
  S   S5        1.0  0.82242  0.98354  0.93503  1.0000
  S   S6        1.0  0.01623  0.17786  0.56498  1.0000
  S   S7        1.0  0.17760  0.01646  0.06496  1.0000
  S   S8        1.0  0.98376  0.82216  0.43503  1.0000
  S   S9        1.0  0.92540  0.90667  0.74350  1.0000
  S   S10       1.0  0.09403  0.07471  0.75602  1.0000
  S   S11       1.0  0.07459  0.09335  0.25649  1.0000
  S   S12       1.0  0.90596  0.92529  0.24398  1.0000
  Br  Br1       1.0  0.52747  0.85060  0.94976  1.0000
  Br  Br2       1.0  0.14954  0.47282  0.54970  1.0000
  Br  Br3       1.0  0.47254  0.14940  0.05027  1.0000
  Br  Br4       1.0  0.85045  0.52722  0.45031  1.0000
  N   N1        1.0  0.60861  0.39120  0.74994  1.0000
  N   N2        1.0  0.39140  0.60880  0.25006  1.0000
  N   N3        1.0  0.86680  0.73625  0.95104  1.0000
  N   N4        1.0  0.26443  0.13445  0.54814  1.0000
  N   N5        1.0  0.13321  0.26375  0.04895  1.0000
  N   N6        1.0  0.73556  0.86555  0.45186  1.0000
