data_image0
_chemical_formula_structural       Cu6H12C4O16
_chemical_formula_sum              "Cu6 H12 C4 O16"
_cell_length_a       5.83683
_cell_length_b       6.95028
_cell_length_c       9.19686
_cell_angle_alpha    90.0025
_cell_angle_beta     89.9997
_cell_angle_gamma    105.988

_space_group_name_H-M_alt    "P 1"
_space_group_IT_number       1

loop_
  _space_group_symop_operation_xyz
  'x, y, z'

loop_
  _atom_site_type_symbol
  _atom_site_label
  _atom_site_symmetry_multiplicity
  _atom_site_fract_x
  _atom_site_fract_y
  _atom_site_fract_z
  _atom_site_occupancy
  Cu  Cu1       1.0  0.96896  0.02121  0.66173  1.0000
  Cu  Cu2       1.0  0.53105  0.97875  0.16172  1.0000
  Cu  Cu3       1.0  0.03086  0.97943  0.33720  1.0000
  Cu  Cu4       1.0  0.46917  0.02059  0.83719  1.0000
  Cu  Cu5       1.0  1.00000  0.99997  0.00195  1.0000
  Cu  Cu6       1.0  0.50002  0.00003  0.50195  1.0000
  H   H1        1.0  0.68291  0.50655  0.87176  1.0000
  H   H2        1.0  0.81699  0.49344  0.37181  1.0000
  H   H3        1.0  0.31755  0.49319  0.12887  1.0000
  H   H4        1.0  0.18248  0.50684  0.62876  1.0000
  H   H5        1.0  0.16872  0.28888  0.83714  1.0000
  H   H6        1.0  0.33125  0.71112  0.33716  1.0000
  H   H7        1.0  0.83110  0.70863  0.16322  1.0000
  H   H8        1.0  0.66894  0.29137  0.66321  1.0000
  H   H9        1.0  0.73662  0.73755  0.52434  1.0000
  H   H10       1.0  0.76341  0.26244  0.02438  1.0000
  H   H11       1.0  0.26397  0.26208  0.47407  1.0000
  H   H12       1.0  0.23602  0.73792  0.97401  1.0000
  C   C1        1.0  0.72405  0.60876  0.77710  1.0000
  C   C2        1.0  0.77592  0.39124  0.27712  1.0000
  C   C3        1.0  0.27543  0.39106  0.22358  1.0000
  C   C4        1.0  0.22456  0.60896  0.72349  1.0000
  O   O1        1.0  0.15362  0.14189  0.82826  1.0000
  O   O2        1.0  0.34639  0.85811  0.32825  1.0000
  O   O3        1.0  0.84420  0.85561  0.17284  1.0000
  O   O4        1.0  0.65583  0.14440  0.67286  1.0000
  O   O5        1.0  0.70051  0.53387  0.65049  1.0000
  O   O6        1.0  0.79951  0.46612  0.15053  1.0000
  O   O7        1.0  0.29903  0.46547  0.35010  1.0000
  O   O8        1.0  0.20088  0.53453  0.85001  1.0000
  O   O9        1.0  0.78105  0.88054  0.49270  1.0000
  O   O10       1.0  0.71898  0.11945  0.99272  1.0000
  O   O11       1.0  0.21728  0.11845  0.50443  1.0000
  O   O12       1.0  0.28272  0.88154  0.00441  1.0000
  O   O13       1.0  0.79121  0.79482  0.80670  1.0000
  O   O14       1.0  0.70878  0.20517  0.30671  1.0000
  O   O15       1.0  0.20692  0.20492  0.19363  1.0000
  O   O16       1.0  0.29310  0.79510  0.69359  1.0000
