data_image0
_chemical_formula_structural       Li4H44C24S4N8O16
_chemical_formula_sum              "Li4 H44 C24 S4 N8 O16"
_cell_length_a       7.74372
_cell_length_b       8.14854
_cell_length_c       14.4317
_cell_angle_alpha    94.7944
_cell_angle_beta     90.0001
_cell_angle_gamma    90.0001

_space_group_name_H-M_alt    "P 1"
_space_group_IT_number       1

loop_
  _space_group_symop_operation_xyz
  'x, y, z'

loop_
  _atom_site_type_symbol
  _atom_site_label
  _atom_site_symmetry_multiplicity
  _atom_site_fract_x
  _atom_site_fract_y
  _atom_site_fract_z
  _atom_site_occupancy
  Li  Li1       1.0  0.78421  0.32719  0.26084  1.0000
  Li  Li2       1.0  0.28421  0.67281  0.23916  1.0000
  Li  Li3       1.0  0.21579  0.67281  0.73916  1.0000
  Li  Li4       1.0  0.71579  0.32719  0.76084  1.0000
  H   H1        1.0  0.06410  0.14773  0.23454  1.0000
  H   H2        1.0  0.56410  0.85227  0.26546  1.0000
  H   H3        1.0  0.93591  0.85227  0.76546  1.0000
  H   H4        1.0  0.43590  0.14773  0.73454  1.0000
  H   H5        1.0  0.90574  0.02932  0.25185  1.0000
  H   H6        1.0  0.40574  0.97068  0.24815  1.0000
  H   H7        1.0  0.09426  0.97067  0.74815  1.0000
  H   H8        1.0  0.59426  0.02933  0.75185  1.0000
  H   H9        1.0  0.72072  0.55760  0.60785  1.0000
  H   H10       1.0  0.22072  0.44240  0.89215  1.0000
  H   H11       1.0  0.27928  0.44240  0.39215  1.0000
  H   H12       1.0  0.77928  0.55760  0.10785  1.0000
  H   H13       1.0  0.52898  0.28089  0.54769  1.0000
  H   H14       1.0  0.02898  0.71911  0.95231  1.0000
  H   H15       1.0  0.47102  0.71911  0.45231  1.0000
  H   H16       1.0  0.97102  0.28089  0.04769  1.0000
  H   H17       1.0  0.73846  0.20130  0.55334  1.0000
  H   H18       1.0  0.23846  0.79869  0.94666  1.0000
  H   H19       1.0  0.26154  0.79870  0.44666  1.0000
  H   H20       1.0  0.76154  0.20130  0.05334  1.0000
  H   H21       1.0  0.55887  0.01751  0.44176  1.0000
  H   H22       1.0  0.05887  0.98249  0.05824  1.0000
  H   H23       1.0  0.44113  0.98249  0.55824  1.0000
  H   H24       1.0  0.94113  0.01752  0.94176  1.0000
  H   H25       1.0  0.72551  0.10732  0.38052  1.0000
  H   H26       1.0  0.22550  0.89268  0.11948  1.0000
  H   H27       1.0  0.27450  0.89268  0.61948  1.0000
  H   H28       1.0  0.77450  0.10732  0.88052  1.0000
  H   H29       1.0  0.51300  0.18622  0.37601  1.0000
  H   H30       1.0  0.01300  0.81378  0.12399  1.0000
  H   H31       1.0  0.48700  0.81378  0.62399  1.0000
  H   H32       1.0  0.98700  0.18622  0.87602  1.0000
  H   H33       1.0  0.91441  0.91053  0.47798  1.0000
  H   H34       1.0  0.41441  0.08947  0.02202  1.0000
  H   H35       1.0  0.08559  0.08947  0.52202  1.0000
  H   H36       1.0  0.58559  0.91053  0.97798  1.0000
  H   H37       1.0  0.97167  0.82457  0.58359  1.0000
  H   H38       1.0  0.47167  0.17543  0.91641  1.0000
  H   H39       1.0  0.02833  0.17543  0.41641  1.0000
  H   H40       1.0  0.52833  0.82457  0.08359  1.0000
  H   H41       1.0  0.76058  0.90095  0.56866  1.0000
  H   H42       1.0  0.26058  0.09905  0.93134  1.0000
  H   H43       1.0  0.23942  0.09905  0.43134  1.0000
  H   H44       1.0  0.73942  0.90095  0.06866  1.0000
  C   C1        1.0  0.71844  0.41267  0.47778  1.0000
  C   C2        1.0  0.21844  0.58733  0.02222  1.0000
  C   C3        1.0  0.28156  0.58733  0.52222  1.0000
  C   C4        1.0  0.78156  0.41267  0.97778  1.0000
  C   C5        1.0  0.64651  0.25463  0.50595  1.0000
  C   C6        1.0  0.14651  0.74537  0.99406  1.0000
  C   C7        1.0  0.35349  0.74537  0.49405  1.0000
  C   C8        1.0  0.85349  0.25463  0.00595  1.0000
  C   C9        1.0  0.60861  0.13494  0.42158  1.0000
  C   C10       1.0  0.10861  0.86506  0.07842  1.0000
  C   C11       1.0  0.39139  0.86506  0.57842  1.0000
  C   C12       1.0  0.89139  0.13494  0.92158  1.0000
  C   C13       1.0  0.81607  0.67204  0.48894  1.0000
  C   C14       1.0  0.31607  0.32796  0.01106  1.0000
  C   C15       1.0  0.18393  0.32796  0.51106  1.0000
  C   C16       1.0  0.68392  0.67204  0.98894  1.0000
  C   C17       1.0  0.86818  0.83562  0.53226  1.0000
  C   C18       1.0  0.36818  0.16438  0.96774  1.0000
  C   C19       1.0  0.13182  0.16438  0.46774  1.0000
  C   C20       1.0  0.63182  0.83562  0.03226  1.0000
  C   C21       1.0  0.82201  0.60332  0.39804  1.0000
  C   C22       1.0  0.32201  0.39668  0.10196  1.0000
  C   C23       1.0  0.17799  0.39668  0.60196  1.0000
  C   C24       1.0  0.67799  0.60332  0.89804  1.0000
  S   S1        1.0  0.89611  0.68422  0.29638  1.0000
  S   S2        1.0  0.39611  0.31578  0.20362  1.0000
  S   S3        1.0  0.10389  0.31578  0.70362  1.0000
  S   S4        1.0  0.60389  0.68422  0.79638  1.0000
  N   N1        1.0  0.76239  0.44284  0.39177  1.0000
  N   N2        1.0  0.26238  0.55716  0.10823  1.0000
  N   N3        1.0  0.23761  0.55716  0.60823  1.0000
  N   N4        1.0  0.73761  0.44284  0.89177  1.0000
  N   N5        1.0  0.74951  0.54836  0.53780  1.0000
  N   N6        1.0  0.24951  0.45164  0.96220  1.0000
  N   N7        1.0  0.25049  0.45164  0.46220  1.0000
  N   N8        1.0  0.75049  0.54836  0.03780  1.0000
  O   O1        1.0  0.86862  0.54714  0.22400  1.0000
  O   O2        1.0  0.36862  0.45286  0.27600  1.0000
  O   O3        1.0  0.13138  0.45286  0.77600  1.0000
  O   O4        1.0  0.63138  0.54714  0.72400  1.0000
  O   O5        1.0  0.07864  0.72804  0.31048  1.0000
  O   O6        1.0  0.57864  0.27196  0.18952  1.0000
  O   O7        1.0  0.92136  0.27196  0.68952  1.0000
  O   O8        1.0  0.42136  0.72804  0.81048  1.0000
  O   O9        1.0  0.79319  0.83155  0.27940  1.0000
  O   O10       1.0  0.29319  0.16845  0.22061  1.0000
  O   O11       1.0  0.20681  0.16845  0.72060  1.0000
  O   O12       1.0  0.70681  0.83155  0.77940  1.0000
  O   O13       1.0  0.93773  0.14360  0.24268  1.0000
  O   O14       1.0  0.43773  0.85640  0.25731  1.0000
  O   O15       1.0  0.06227  0.85640  0.75732  1.0000
  O   O16       1.0  0.56227  0.14360  0.74268  1.0000
