data_image0
_chemical_formula_structural       Ag4H36C24S4N8O12
_chemical_formula_sum              "Ag4 H36 C24 S4 N8 O12"
_cell_length_a       9.33893
_cell_length_b       10.936
_cell_length_c       11.2351
_cell_angle_alpha    61.7624
_cell_angle_beta     67.9608
_cell_angle_gamma    66.5619

_space_group_name_H-M_alt    "P 1"
_space_group_IT_number       1

loop_
  _space_group_symop_operation_xyz
  'x, y, z'

loop_
  _atom_site_type_symbol
  _atom_site_label
  _atom_site_symmetry_multiplicity
  _atom_site_fract_x
  _atom_site_fract_y
  _atom_site_fract_z
  _atom_site_occupancy
  Ag  Ag1       1.0  0.53349  0.22858  0.26207  1.0000
  Ag  Ag2       1.0  0.46651  0.77142  0.73793  1.0000
  Ag  Ag3       1.0  0.77805  0.95725  0.01270  1.0000
  Ag  Ag4       1.0  0.22195  0.04275  0.98730  1.0000
  H   H1        1.0  0.74495  0.93451  0.70711  1.0000
  H   H2        1.0  0.25505  0.06549  0.29289  1.0000
  H   H3        1.0  0.16380  0.71156  0.00383  1.0000
  H   H4        1.0  0.83620  0.28844  0.99617  1.0000
  H   H5        1.0  0.05963  0.81388  0.61549  1.0000
  H   H6        1.0  0.94037  0.18612  0.38451  1.0000
  H   H7        1.0  0.10156  0.77318  0.46753  1.0000
  H   H8        1.0  0.89844  0.22682  0.53247  1.0000
  H   H9        1.0  0.97690  0.68638  0.62776  1.0000
  H   H10       1.0  0.02310  0.31362  0.37224  1.0000
  H   H11       1.0  0.46441  0.11221  0.71043  1.0000
  H   H12       1.0  0.53559  0.88779  0.28957  1.0000
  H   H13       1.0  0.38902  0.18465  0.56187  1.0000
  H   H14       1.0  0.61098  0.81535  0.43813  1.0000
  H   H15       1.0  0.40761  0.38245  0.59896  1.0000
  H   H16       1.0  0.59239  0.61754  0.40104  1.0000
  H   H17       1.0  0.55319  0.36865  0.44523  1.0000
  H   H18       1.0  0.44681  0.63135  0.55477  1.0000
  H   H19       1.0  0.61189  0.29896  0.60432  1.0000
  H   H20       1.0  0.38811  0.70104  0.39568  1.0000
  H   H21       1.0  0.17694  0.47915  0.82840  1.0000
  H   H22       1.0  0.82306  0.52085  0.17160  1.0000
  H   H23       1.0  0.22203  0.64683  0.75942  1.0000
  H   H24       1.0  0.77797  0.35317  0.24058  1.0000
  H   H25       1.0  0.03527  0.62630  0.87636  1.0000
  H   H26       1.0  0.96473  0.37370  0.12364  1.0000
  H   H27       1.0  0.27180  0.69589  0.19548  1.0000
  H   H28       1.0  0.72820  0.30411  0.80452  1.0000
  H   H29       1.0  0.42506  0.53853  0.25378  1.0000
  H   H30       1.0  0.57494  0.46147  0.74622  1.0000
  H   H31       1.0  0.19555  0.55409  0.45461  1.0000
  H   H32       1.0  0.80445  0.44591  0.54539  1.0000
  H   H33       1.0  0.20896  0.40677  0.42072  1.0000
  H   H34       1.0  0.79104  0.59323  0.57928  1.0000
  H   H35       1.0  0.06057  0.57349  0.36607  1.0000
  H   H36       1.0  0.93943  0.42651  0.63393  1.0000
  C   C1        1.0  0.63482  0.07344  0.53561  1.0000
  C   C2        1.0  0.36518  0.92656  0.46439  1.0000
  C   C3        1.0  0.86870  0.90690  0.51348  1.0000
  C   C4        1.0  0.13130  0.09310  0.48652  1.0000
  C   C5        1.0  0.82254  0.98130  0.38848  1.0000
  C   C6        1.0  0.17746  0.01870  0.61153  1.0000
  C   C7        1.0  0.00980  0.78811  0.55847  1.0000
  C   C8        1.0  0.99020  0.21189  0.44153  1.0000
  C   C9        1.0  0.49271  0.16791  0.59715  1.0000
  C   C10       1.0  0.50729  0.83208  0.40285  1.0000
  C   C11       1.0  0.51850  0.31335  0.55845  1.0000
  C   C12       1.0  0.48150  0.68665  0.44155  1.0000
  C   C13       1.0  0.30128  0.52601  0.13888  1.0000
  C   C14       1.0  0.69872  0.47399  0.86112  1.0000
  C   C15       1.0  0.23665  0.51691  0.97050  1.0000
  C   C16       1.0  0.76335  0.48309  0.02950  1.0000
  C   C17       1.0  0.33263  0.38498  0.03790  1.0000
  C   C18       1.0  0.66737  0.61502  0.96210  1.0000
  C   C19       1.0  0.16307  0.56976  0.85269  1.0000
  C   C20       1.0  0.83693  0.43024  0.14731  1.0000
  C   C21       1.0  0.30241  0.57783  0.23897  1.0000
  C   C22       1.0  0.69759  0.42217  0.76103  1.0000
  C   C23       1.0  0.18461  0.52465  0.37833  1.0000
  C   C24       1.0  0.81539  0.47535  0.62167  1.0000
  S   S1        1.0  0.92399  0.95920  0.22927  1.0000
  S   S2        1.0  0.07601  0.04081  0.77073  1.0000
  S   S3        1.0  0.39078  0.22072  0.01809  1.0000
  S   S4        1.0  0.60922  0.77928  0.98191  1.0000
  N   N1        1.0  0.67662  0.08364  0.40404  1.0000
  N   N2        1.0  0.32338  0.91636  0.59596  1.0000
  N   N3        1.0  0.74872  0.96772  0.60284  1.0000
  N   N4        1.0  0.25128  0.03228  0.39716  1.0000
  N   N5        1.0  0.37153  0.39192  0.14172  1.0000
  N   N6        1.0  0.62847  0.60807  0.85828  1.0000
  N   N7        1.0  0.21915  0.60281  0.03678  1.0000
  N   N8        1.0  0.78085  0.39718  0.96322  1.0000
  O   O1        1.0  0.86156  0.85763  0.22394  1.0000
  O   O2        1.0  0.13844  0.14237  0.77606  1.0000
  O   O3        1.0  0.88531  0.10407  0.12075  1.0000
  O   O4        1.0  0.11469  0.89593  0.87925  1.0000
  O   O5        1.0  0.09465  0.90295  0.23208  1.0000
  O   O6        1.0  0.90535  0.09705  0.76792  1.0000
  O   O7        1.0  0.54317  0.14269  0.06285  1.0000
  O   O8        1.0  0.45683  0.85731  0.93715  1.0000
  O   O9        1.0  0.26101  0.14904  0.11596  1.0000
  O   O10       1.0  0.73899  0.85096  0.88404  1.0000
  O   O11       1.0  0.39934  0.25358  0.87442  1.0000
  O   O12       1.0  0.60066  0.74642  0.12558  1.0000
