data_image0
_chemical_formula_structural       Na4H24C28S4N4O20
_chemical_formula_sum              "Na4 H24 C28 S4 N4 O20"
_cell_length_a       6.9501
_cell_length_b       10.8026
_cell_length_c       12.0253
_cell_angle_alpha    89.9999
_cell_angle_beta     90.0001
_cell_angle_gamma    90.0001

_space_group_name_H-M_alt    "P 1"
_space_group_IT_number       1

loop_
  _space_group_symop_operation_xyz
  'x, y, z'

loop_
  _atom_site_type_symbol
  _atom_site_label
  _atom_site_symmetry_multiplicity
  _atom_site_fract_x
  _atom_site_fract_y
  _atom_site_fract_z
  _atom_site_occupancy
  Na  Na1       1.0  0.25000  0.90287  0.63233  1.0000
  Na  Na2       1.0  0.75000  0.59713  0.13233  1.0000
  Na  Na3       1.0  0.25000  0.40287  0.86767  1.0000
  Na  Na4       1.0  0.75000  0.09713  0.36767  1.0000
  H   H1        1.0  0.13900  0.90689  0.40936  1.0000
  H   H2        1.0  0.63900  0.59312  0.90936  1.0000
  H   H3        1.0  0.13900  0.40689  0.09064  1.0000
  H   H4        1.0  0.63901  0.09311  0.59064  1.0000
  H   H5        1.0  0.86099  0.09311  0.59064  1.0000
  H   H6        1.0  0.36100  0.40689  0.09064  1.0000
  H   H7        1.0  0.86100  0.59311  0.90936  1.0000
  H   H8        1.0  0.36100  0.90689  0.40936  1.0000
  H   H9        1.0  0.25000  0.10446  0.78575  1.0000
  H   H10       1.0  0.75000  0.39554  0.28575  1.0000
  H   H11       1.0  0.25000  0.60446  0.71425  1.0000
  H   H12       1.0  0.75000  0.89554  0.21425  1.0000
  H   H13       1.0  0.25000  0.16446  0.97338  1.0000
  H   H14       1.0  0.75000  0.33554  0.47338  1.0000
  H   H15       1.0  0.25000  0.66446  0.52662  1.0000
  H   H16       1.0  0.75000  0.83554  0.02662  1.0000
  H   H17       1.0  0.25000  0.10302  0.16879  1.0000
  H   H18       1.0  0.75000  0.39698  0.66879  1.0000
  H   H19       1.0  0.25000  0.60302  0.33120  1.0000
  H   H20       1.0  0.75000  0.89698  0.83121  1.0000
  H   H21       1.0  0.25000  0.87716  0.22291  1.0000
  H   H22       1.0  0.75000  0.62284  0.72291  1.0000
  H   H23       1.0  0.25000  0.37716  0.27709  1.0000
  H   H24       1.0  0.75000  0.12284  0.77709  1.0000
  C   C1        1.0  0.25000  0.73818  0.86644  1.0000
  C   C2        1.0  0.75000  0.76182  0.36644  1.0000
  C   C3        1.0  0.25000  0.23818  0.63356  1.0000
  C   C4        1.0  0.75000  0.26182  0.13356  1.0000
  C   C5        1.0  0.25000  0.85184  0.93702  1.0000
  C   C6        1.0  0.75000  0.64816  0.43702  1.0000
  C   C7        1.0  0.25000  0.35184  0.56298  1.0000
  C   C8        1.0  0.75000  0.14816  0.06298  1.0000
  C   C9        1.0  0.25000  0.97798  0.90718  1.0000
  C   C10       1.0  0.75000  0.52202  0.40718  1.0000
  C   C11       1.0  0.25000  0.47798  0.59282  1.0000
  C   C12       1.0  0.75000  0.02202  0.09282  1.0000
  C   C13       1.0  0.25000  0.06627  0.99370  1.0000
  C   C14       1.0  0.75000  0.43373  0.49370  1.0000
  C   C15       1.0  0.25000  0.56627  0.50630  1.0000
  C   C16       1.0  0.75000  0.93373  0.00630  1.0000
  C   C17       1.0  0.25000  0.03136  0.10501  1.0000
  C   C18       1.0  0.75000  0.46864  0.60501  1.0000
  C   C19       1.0  0.25000  0.53136  0.39499  1.0000
  C   C20       1.0  0.75000  0.96864  0.89499  1.0000
  C   C21       1.0  0.25000  0.90607  0.13624  1.0000
  C   C22       1.0  0.75000  0.59393  0.63624  1.0000
  C   C23       1.0  0.25000  0.40607  0.36375  1.0000
  C   C24       1.0  0.75000  0.09393  0.86376  1.0000
  C   C25       1.0  0.25000  0.82125  0.05027  1.0000
  C   C26       1.0  0.75000  0.67875  0.55028  1.0000
  C   C27       1.0  0.25000  0.32125  0.44972  1.0000
  C   C28       1.0  0.75000  0.17875  0.94973  1.0000
  S   S1        1.0  0.25000  0.65786  0.05786  1.0000
  S   S2        1.0  0.75000  0.84214  0.55786  1.0000
  S   S3        1.0  0.25000  0.15786  0.44214  1.0000
  S   S4        1.0  0.75000  0.34214  0.94214  1.0000
  N   N1        1.0  0.25000  0.63064  0.92542  1.0000
  N   N2        1.0  0.75000  0.86936  0.42542  1.0000
  N   N3        1.0  0.25000  0.13064  0.57458  1.0000
  N   N4        1.0  0.75000  0.36936  0.07459  1.0000
  O   O1        1.0  0.07561  0.61051  0.11046  1.0000
  O   O2        1.0  0.57561  0.88949  0.61046  1.0000
  O   O3        1.0  0.07561  0.11051  0.38954  1.0000
  O   O4        1.0  0.57561  0.38949  0.88954  1.0000
  O   O5        1.0  0.92439  0.38949  0.88954  1.0000
  O   O6        1.0  0.42439  0.11051  0.38954  1.0000
  O   O7        1.0  0.92439  0.88949  0.61046  1.0000
  O   O8        1.0  0.42439  0.61051  0.11046  1.0000
  O   O9        1.0  0.25000  0.73925  0.76120  1.0000
  O   O10       1.0  0.75000  0.76074  0.26120  1.0000
  O   O11       1.0  0.25000  0.23926  0.73880  1.0000
  O   O12       1.0  0.75000  0.26075  0.23880  1.0000
  O   O13       1.0  0.25000  0.01047  0.79959  1.0000
  O   O14       1.0  0.75001  0.48953  0.29959  1.0000
  O   O15       1.0  0.24999  0.51047  0.70041  1.0000
  O   O16       1.0  0.75000  0.98953  0.20041  1.0000
  O   O17       1.0  0.25000  0.85677  0.43118  1.0000
  O   O18       1.0  0.75000  0.64323  0.93119  1.0000
  O   O19       1.0  0.25000  0.35677  0.06882  1.0000
  O   O20       1.0  0.75000  0.14323  0.56882  1.0000
