data_image0
_chemical_formula_structural       Sn2H44C56O4
_chemical_formula_sum              "Sn2 H44 C56 O4"
_cell_length_a       9.9252
_cell_length_b       10.4091
_cell_length_c       10.981
_cell_angle_alpha    90
_cell_angle_beta     102.956
_cell_angle_gamma    90

_space_group_name_H-M_alt    "P 1"
_space_group_IT_number       1

loop_
  _space_group_symop_operation_xyz
  'x, y, z'

loop_
  _atom_site_type_symbol
  _atom_site_label
  _atom_site_symmetry_multiplicity
  _atom_site_fract_x
  _atom_site_fract_y
  _atom_site_fract_z
  _atom_site_occupancy
  Sn  Sn1       1.0  0.42958  0.25821  0.01552  1.0000
  Sn  Sn2       1.0  0.57042  0.75821  0.98449  1.0000
  H   H1        1.0  0.65864  0.39083  0.12433  1.0000
  H   H2        1.0  0.34136  0.89083  0.87567  1.0000
  H   H3        1.0  0.70342  0.26819  0.02587  1.0000
  H   H4        1.0  0.29658  0.76819  0.97413  1.0000
  H   H5        1.0  0.67735  0.22756  0.17798  1.0000
  H   H6        1.0  0.32265  0.72756  0.82202  1.0000
  H   H7        1.0  0.58555  0.10255  0.83397  1.0000
  H   H8        1.0  0.41444  0.60254  0.16603  1.0000
  H   H9        1.0  0.51646  0.98120  0.63725  1.0000
  H   H10       1.0  0.48355  0.48120  0.36276  1.0000
  H   H11       1.0  0.26748  0.95819  0.53340  1.0000
  H   H12       1.0  0.73253  0.45819  0.46660  1.0000
  H   H13       1.0  0.08841  0.05800  0.62850  1.0000
  H   H14       1.0  0.91159  0.55801  0.37150  1.0000
  H   H15       1.0  0.15624  0.18154  0.82582  1.0000
  H   H16       1.0  0.84376  0.68155  0.17418  1.0000
  H   H17       1.0  0.25766  0.52409  0.00325  1.0000
  H   H18       1.0  0.74235  0.02409  0.99674  1.0000
  H   H19       1.0  0.03779  0.59226  0.05437  1.0000
  H   H20       1.0  0.96221  0.09226  0.94562  1.0000
  H   H21       1.0  0.89254  0.43379  0.13625  1.0000
  H   H22       1.0  0.10745  0.93378  0.86373  1.0000
  H   H23       1.0  0.96950  0.20596  0.16769  1.0000
  H   H24       1.0  0.03049  0.70596  0.83230  1.0000
  H   H25       1.0  0.19340  0.13964  0.12507  1.0000
  H   H26       1.0  0.80659  0.63963  0.87493  1.0000
  H   H27       1.0  0.24196  0.92645  0.13345  1.0000
  H   H28       1.0  0.75804  0.42645  0.86656  1.0000
  H   H29       1.0  0.03795  0.82262  0.18015  1.0000
  H   H30       1.0  0.96204  0.32262  0.81987  1.0000
  H   H31       1.0  0.05829  0.69177  0.37503  1.0000
  H   H32       1.0  0.94172  0.19177  0.62498  1.0000
  H   H33       1.0  0.28514  0.66431  0.52115  1.0000
  H   H34       1.0  0.71487  0.16432  0.47886  1.0000
  H   H35       1.0  0.53342  0.71361  0.58215  1.0000
  H   H36       1.0  0.46658  0.21361  0.41785  1.0000
  H   H37       1.0  0.78031  0.75919  0.64318  1.0000
  H   H38       1.0  0.21969  0.25919  0.35682  1.0000
  H   H39       1.0  0.99222  0.85322  0.59661  1.0000
  H   H40       1.0  0.00778  0.35322  0.40339  1.0000
  H   H41       1.0  0.97893  0.97547  0.39800  1.0000
  H   H42       1.0  0.02107  0.47547  0.60200  1.0000
  H   H43       1.0  0.75681  0.00330  0.24787  1.0000
  H   H44       1.0  0.24318  0.50331  0.75213  1.0000
  C   C1        1.0  0.64424  0.28998  0.09655  1.0000
  C   C2        1.0  0.35575  0.78998  0.90345  1.0000
  C   C3        1.0  0.37573  0.15005  0.84507  1.0000
  C   C4        1.0  0.62427  0.65005  0.15494  1.0000
  C   C5        1.0  0.47594  0.09335  0.79041  1.0000
  C   C6        1.0  0.52407  0.59334  0.20959  1.0000
  C   C7        1.0  0.43740  0.02439  0.67893  1.0000
  C   C8        1.0  0.56260  0.52438  0.32107  1.0000
  C   C9        1.0  0.29773  0.01156  0.62060  1.0000
  C   C10       1.0  0.70228  0.51156  0.37940  1.0000
  C   C11       1.0  0.19733  0.06814  0.67387  1.0000
  C   C12       1.0  0.80268  0.56814  0.32614  1.0000
  C   C13       1.0  0.23596  0.13729  0.78541  1.0000
  C   C14       1.0  0.76405  0.63729  0.21459  1.0000
  C   C15       1.0  0.24288  0.32729  0.06223  1.0000
  C   C16       1.0  0.75712  0.82728  0.93777  1.0000
  C   C17       1.0  0.19624  0.45433  0.04131  1.0000
  C   C18       1.0  0.80376  0.95433  0.95869  1.0000
  C   C19       1.0  0.07125  0.49256  0.06870  1.0000
  C   C20       1.0  0.92874  0.99255  0.93128  1.0000
  C   C21       1.0  0.98945  0.40368  0.11430  1.0000
  C   C22       1.0  0.01054  0.90367  0.88568  1.0000
  C   C23       1.0  0.03292  0.27627  0.13226  1.0000
  C   C24       1.0  0.96707  0.77626  0.86773  1.0000
  C   C25       1.0  0.15924  0.23868  0.10738  1.0000
  C   C26       1.0  0.84076  0.73868  0.89262  1.0000
  C   C27       1.0  0.49556  0.99571  0.16195  1.0000
  C   C28       1.0  0.50444  0.49572  0.83805  1.0000
  C   C29       1.0  0.50539  0.91506  0.27666  1.0000
  C   C30       1.0  0.49460  0.41506  0.72334  1.0000
  C   C31       1.0  0.38508  0.85936  0.30212  1.0000
  C   C32       1.0  0.61492  0.35936  0.69788  1.0000
  C   C33       1.0  0.25236  0.87098  0.21922  1.0000
  C   C34       1.0  0.74764  0.37098  0.78079  1.0000
  C   C35       1.0  0.13811  0.81197  0.24508  1.0000
  C   C36       1.0  0.86188  0.31197  0.75493  1.0000
  C   C37       1.0  0.14983  0.73696  0.35524  1.0000
  C   C38       1.0  0.85017  0.23696  0.64478  1.0000
  C   C39       1.0  0.27565  0.72248  0.43692  1.0000
  C   C40       1.0  0.72435  0.22248  0.56309  1.0000
  C   C41       1.0  0.39651  0.78319  0.41403  1.0000
  C   C42       1.0  0.60349  0.28319  0.58597  1.0000
  C   C43       1.0  0.52533  0.77010  0.49689  1.0000
  C   C44       1.0  0.47467  0.27010  0.50312  1.0000
  C   C45       1.0  0.64469  0.82617  0.47222  1.0000
  C   C46       1.0  0.35531  0.32617  0.52778  1.0000
  C   C47       1.0  0.77567  0.81201  0.55664  1.0000
  C   C48       1.0  0.22433  0.31201  0.44336  1.0000
  C   C49       1.0  0.89289  0.86490  0.53088  1.0000
  C   C50       1.0  0.10711  0.36490  0.46912  1.0000
  C   C51       1.0  0.88503  0.93517  0.41853  1.0000
  C   C52       1.0  0.11497  0.43516  0.58147  1.0000
  C   C53       1.0  0.76055  0.95152  0.33483  1.0000
  C   C54       1.0  0.23945  0.45153  0.66517  1.0000
  C   C55       1.0  0.63597  0.89847  0.35834  1.0000
  C   C56       1.0  0.36403  0.39848  0.64166  1.0000
  O   O1        1.0  0.42907  0.10147  0.15892  1.0000
  O   O2        1.0  0.57093  0.60148  0.84108  1.0000
  O   O3        1.0  0.55433  0.96076  0.07596  1.0000
  O   O4        1.0  0.44567  0.46077  0.92405  1.0000
