data_image0
_chemical_formula_structural       Gd8H32C20S8N8O60
_chemical_formula_sum              "Gd8 H32 C20 S8 N8 O60"
_cell_length_a       6.44287
_cell_length_b       13.3141
_cell_length_c       18.2315
_cell_angle_alpha    90
_cell_angle_beta     93.8024
_cell_angle_gamma    90

_space_group_name_H-M_alt    "P 1"
_space_group_IT_number       1

loop_
  _space_group_symop_operation_xyz
  'x, y, z'

loop_
  _atom_site_type_symbol
  _atom_site_label
  _atom_site_symmetry_multiplicity
  _atom_site_fract_x
  _atom_site_fract_y
  _atom_site_fract_z
  _atom_site_occupancy
  Gd  Gd1       1.0  0.26106  0.30652  0.71285  1.0000
  Gd  Gd2       1.0  0.23894  0.80652  0.78715  1.0000
  Gd  Gd3       1.0  0.73894  0.69348  0.28715  1.0000
  Gd  Gd4       1.0  0.76106  0.19348  0.21285  1.0000
  Gd  Gd5       1.0  0.09547  0.16955  0.90165  1.0000
  Gd  Gd6       1.0  0.40453  0.66955  0.59835  1.0000
  Gd  Gd7       1.0  0.90453  0.83045  0.09835  1.0000
  Gd  Gd8       1.0  0.59547  0.33045  0.40165  1.0000
  H   H1        1.0  0.30621  0.01174  0.49539  1.0000
  H   H2        1.0  0.19379  0.51174  0.00461  1.0000
  H   H3        1.0  0.69379  0.98826  0.50461  1.0000
  H   H4        1.0  0.80621  0.48826  0.99539  1.0000
  H   H5        1.0  0.22932  0.19751  0.51452  1.0000
  H   H6        1.0  0.27068  0.69752  0.98548  1.0000
  H   H7        1.0  0.77068  0.80248  0.48548  1.0000
  H   H8        1.0  0.72932  0.30248  0.01452  1.0000
  H   H9        1.0  0.57003  0.19657  0.87792  1.0000
  H   H10       1.0  0.92997  0.69657  0.62208  1.0000
  H   H11       1.0  0.42997  0.80343  0.12208  1.0000
  H   H12       1.0  0.07003  0.30343  0.37792  1.0000
  H   H13       1.0  0.53235  0.08627  0.89963  1.0000
  H   H14       1.0  0.96766  0.58627  0.60037  1.0000
  H   H15       1.0  0.46765  0.91374  0.10037  1.0000
  H   H16       1.0  0.03235  0.41374  0.39963  1.0000
  H   H17       1.0  0.17533  0.19485  0.06316  1.0000
  H   H18       1.0  0.32467  0.69485  0.43684  1.0000
  H   H19       1.0  0.82467  0.80515  0.93684  1.0000
  H   H20       1.0  0.67533  0.30515  0.56316  1.0000
  H   H21       1.0  0.39875  0.17435  0.03851  1.0000
  H   H22       1.0  0.10125  0.67436  0.46149  1.0000
  H   H23       1.0  0.60125  0.82564  0.96149  1.0000
  H   H24       1.0  0.89875  0.32564  0.53851  1.0000
  H   H25       1.0  0.87844  0.97416  0.85276  1.0000
  H   H26       1.0  0.62155  0.47416  0.64724  1.0000
  H   H27       1.0  0.12155  0.02584  0.14724  1.0000
  H   H28       1.0  0.37845  0.52584  0.35276  1.0000
  H   H29       1.0  0.77887  0.05569  0.79858  1.0000
  H   H30       1.0  0.72113  0.55569  0.70142  1.0000
  H   H31       1.0  0.22113  0.94431  0.20142  1.0000
  H   H32       1.0  0.27887  0.44431  0.29858  1.0000
  C   C1        1.0  0.23700  0.14067  0.55718  1.0000
  C   C2        1.0  0.26301  0.64067  0.94282  1.0000
  C   C3        1.0  0.76300  0.85932  0.44282  1.0000
  C   C4        1.0  0.73700  0.35932  0.05718  1.0000
  C   C5        1.0  0.28032  0.99098  0.61014  1.0000
  C   C6        1.0  0.21968  0.49098  0.88986  1.0000
  C   C7        1.0  0.71968  0.00902  0.38986  1.0000
  C   C8        1.0  0.78032  0.50902  0.11014  1.0000
  C   C9        1.0  0.24080  0.06356  0.66237  1.0000
  C   C10       1.0  0.25920  0.56356  0.83763  1.0000
  C   C11       1.0  0.75920  0.93644  0.33763  1.0000
  C   C12       1.0  0.74080  0.43644  0.16237  1.0000
  C   C13       1.0  0.33425  0.88358  0.60933  1.0000
  C   C14       1.0  0.16575  0.38358  0.89067  1.0000
  C   C15       1.0  0.66575  0.11642  0.39067  1.0000
  C   C16       1.0  0.83425  0.61642  0.10933  1.0000
  C   C17       1.0  0.23060  0.05926  0.74297  1.0000
  C   C18       1.0  0.26940  0.55926  0.75703  1.0000
  C   C19       1.0  0.76940  0.94074  0.25703  1.0000
  C   C20       1.0  0.73060  0.44074  0.24297  1.0000
  S   S1        1.0  0.72199  0.28612  0.76353  1.0000
  S   S2        1.0  0.77801  0.78612  0.73647  1.0000
  S   S3        1.0  0.27801  0.71388  0.23647  1.0000
  S   S4        1.0  0.22199  0.21388  0.26353  1.0000
  S   S5        1.0  0.31020  0.40091  0.55891  1.0000
  S   S6        1.0  0.18980  0.90091  0.94109  1.0000
  S   S7        1.0  0.68980  0.59909  0.44109  1.0000
  S   S8        1.0  0.81020  0.09909  0.05891  1.0000
  N   N1        1.0  0.21609  0.15568  0.62830  1.0000
  N   N2        1.0  0.28391  0.65568  0.87170  1.0000
  N   N3        1.0  0.78391  0.84432  0.37170  1.0000
  N   N4        1.0  0.71610  0.34432  0.12830  1.0000
  N   N5        1.0  0.27670  0.04282  0.54455  1.0000
  N   N6        1.0  0.22331  0.54282  0.95544  1.0000
  N   N7        1.0  0.72331  0.95718  0.45544  1.0000
  N   N8        1.0  0.77670  0.45718  0.04456  1.0000
  O   O1        1.0  0.17474  0.14179  0.77288  1.0000
  O   O2        1.0  0.32526  0.64179  0.72712  1.0000
  O   O3        1.0  0.82526  0.85821  0.22712  1.0000
  O   O4        1.0  0.67474  0.35821  0.27288  1.0000
  O   O5        1.0  0.59431  0.37827  0.76936  1.0000
  O   O6        1.0  0.90569  0.87827  0.73064  1.0000
  O   O7        1.0  0.40569  0.62173  0.23064  1.0000
  O   O8        1.0  0.09431  0.12173  0.26936  1.0000
  O   O9        1.0  0.79571  0.25051  0.83893  1.0000
  O   O10       1.0  0.70429  0.75051  0.66107  1.0000
  O   O11       1.0  0.20429  0.74949  0.16107  1.0000
  O   O12       1.0  0.29571  0.24949  0.33893  1.0000
  O   O13       1.0  0.90160  0.30498  0.71903  1.0000
  O   O14       1.0  0.59840  0.80498  0.78097  1.0000
  O   O15       1.0  0.09840  0.69502  0.28097  1.0000
  O   O16       1.0  0.40160  0.19502  0.21903  1.0000
  O   O17       1.0  0.58120  0.20800  0.72819  1.0000
  O   O18       1.0  0.91880  0.70800  0.77181  1.0000
  O   O19       1.0  0.41880  0.79200  0.27181  1.0000
  O   O20       1.0  0.08120  0.29200  0.22819  1.0000
  O   O21       1.0  0.34102  0.35003  0.48853  1.0000
  O   O22       1.0  0.15898  0.85003  0.01147  1.0000
  O   O23       1.0  0.65898  0.64997  0.51147  1.0000
  O   O24       1.0  0.84102  0.14997  0.98853  1.0000
  O   O25       1.0  0.11376  0.36633  0.58953  1.0000
  O   O26       1.0  0.38624  0.86633  0.91047  1.0000
  O   O27       1.0  0.88624  0.63367  0.41047  1.0000
  O   O28       1.0  0.61376  0.13367  0.08953  1.0000
  O   O29       1.0  0.47956  0.36836  0.61556  1.0000
  O   O30       1.0  0.02043  0.86836  0.88444  1.0000
  O   O31       1.0  0.52044  0.63164  0.38444  1.0000
  O   O32       1.0  0.97956  0.13164  0.11556  1.0000
  O   O33       1.0  0.31063  0.51051  0.54938  1.0000
  O   O34       1.0  0.18937  0.01051  0.95062  1.0000
  O   O35       1.0  0.68936  0.48949  0.45062  1.0000
  O   O36       1.0  0.81063  0.98949  0.04938  1.0000
  O   O37       1.0  0.46435  0.15184  0.89756  1.0000
  O   O38       1.0  0.03565  0.65184  0.60244  1.0000
  O   O39       1.0  0.53565  0.84816  0.10244  1.0000
  O   O40       1.0  0.96435  0.34817  0.39756  1.0000
  O   O41       1.0  0.26357  0.20466  0.02166  1.0000
  O   O42       1.0  0.23643  0.70466  0.47834  1.0000
  O   O43       1.0  0.73643  0.79534  0.97834  1.0000
  O   O44       1.0  0.76357  0.29534  0.52166  1.0000
  O   O45       1.0  0.83282  0.04525  0.84921  1.0000
  O   O46       1.0  0.66718  0.54525  0.65079  1.0000
  O   O47       1.0  0.16718  0.95475  0.15079  1.0000
  O   O48       1.0  0.33282  0.45475  0.34921  1.0000
  O   O49       1.0  0.43348  0.85224  0.55656  1.0000
  O   O50       1.0  0.06652  0.35225  0.94344  1.0000
  O   O51       1.0  0.56652  0.14775  0.44344  1.0000
  O   O52       1.0  0.93348  0.64775  0.05656  1.0000
  O   O53       1.0  0.27715  0.82274  0.65923  1.0000
  O   O54       1.0  0.22285  0.32274  0.84077  1.0000
  O   O55       1.0  0.72286  0.17726  0.34077  1.0000
  O   O56       1.0  0.77714  0.67726  0.15923  1.0000
  O   O57       1.0  0.27602  0.98030  0.77828  1.0000
  O   O58       1.0  0.22398  0.48030  0.72172  1.0000
  O   O59       1.0  0.72398  0.01970  0.22172  1.0000
  O   O60       1.0  0.77602  0.51970  0.27828  1.0000
