data_image0
_chemical_formula_structural       Ba2H42C60O14
_chemical_formula_sum              "Ba2 H42 C60 O14"
_cell_length_a       5.12083
_cell_length_b       14.233
_cell_length_c       17.649
_cell_angle_alpha    70.301
_cell_angle_beta     84.1819
_cell_angle_gamma    88.097

_space_group_name_H-M_alt    "P 1"
_space_group_IT_number       1

loop_
  _space_group_symop_operation_xyz
  'x, y, z'

loop_
  _atom_site_type_symbol
  _atom_site_label
  _atom_site_symmetry_multiplicity
  _atom_site_fract_x
  _atom_site_fract_y
  _atom_site_fract_z
  _atom_site_occupancy
  Ba  Ba1       1.0  0.76889  0.39764  0.61880  1.0000
  Ba  Ba2       1.0  0.23111  0.60236  0.38121  1.0000
  H   H1        1.0  0.95456  0.15756  0.00113  1.0000
  H   H2        1.0  0.04544  0.84244  0.99887  1.0000
  H   H3        1.0  0.89525  0.52538  0.77210  1.0000
  H   H4        1.0  0.10474  0.47462  0.22790  1.0000
  H   H5        1.0  0.49651  0.05568  0.79007  1.0000
  H   H6        1.0  0.50349  0.94432  0.20993  1.0000
  H   H7        1.0  0.01211  0.72868  0.51348  1.0000
  H   H8        1.0  0.98789  0.27132  0.48652  1.0000
  H   H9        1.0  0.84620  0.14147  0.14295  1.0000
  H   H10       1.0  0.15380  0.85853  0.85705  1.0000
  H   H11       1.0  0.48961  0.84249  0.49021  1.0000
  H   H12       1.0  0.51039  0.15751  0.50979  1.0000
  H   H13       1.0  0.52353  0.21692  0.79927  1.0000
  H   H14       1.0  0.47647  0.78308  0.20073  1.0000
  H   H15       1.0  0.98874  0.13654  0.88950  1.0000
  H   H16       1.0  0.01126  0.86346  0.11050  1.0000
  H   H17       1.0  0.54572  0.95773  0.37715  1.0000
  H   H18       1.0  0.45428  0.04227  0.62285  1.0000
  H   H19       1.0  0.51681  0.11748  0.26745  1.0000
  H   H20       1.0  0.48319  0.88252  0.73255  1.0000
  H   H21       1.0  0.44190  0.51156  0.83313  1.0000
  H   H22       1.0  0.55810  0.48844  0.16687  1.0000
  H   H23       1.0  0.87020  0.96150  0.75189  1.0000
  H   H24       1.0  0.12980  0.03850  0.24811  1.0000
  H   H25       1.0  0.87859  0.36759  0.86888  1.0000
  H   H26       1.0  0.12141  0.63240  0.13112  1.0000
  H   H27       1.0  0.51295  0.25717  0.93939  1.0000
  H   H28       1.0  0.48705  0.74283  0.06061  1.0000
  H   H29       1.0  0.49931  0.63907  0.85831  1.0000
  H   H30       1.0  0.50069  0.36093  0.14169  1.0000
  H   H31       1.0  0.80107  0.26125  0.25890  1.0000
  H   H32       1.0  0.19893  0.73874  0.74110  1.0000
  H   H33       1.0  0.09413  0.24627  0.36387  1.0000
  H   H34       1.0  0.90587  0.75372  0.63613  1.0000
  H   H35       1.0  0.67904  0.74643  0.92362  1.0000
  H   H36       1.0  0.32096  0.25357  0.07638  1.0000
  H   H37       1.0  0.94716  0.16091  0.62150  1.0000
  H   H38       1.0  0.05284  0.83909  0.37850  1.0000
  H   H39       1.0  0.83773  0.15406  0.70851  1.0000
  H   H40       1.0  0.16226  0.84594  0.29149  1.0000
  H   H41       1.0  0.24396  0.59189  0.58119  1.0000
  H   H42       1.0  0.75604  0.40811  0.41881  1.0000
  C   C1        1.0  0.65573  0.65599  0.50245  1.0000
  C   C2        1.0  0.34427  0.34401  0.49755  1.0000
  C   C3        1.0  0.14914  0.27849  0.75276  1.0000
  C   C4        1.0  0.85086  0.72151  0.24724  1.0000
  C   C5        1.0  0.26750  0.53695  0.69705  1.0000
  C   C6        1.0  0.73250  0.46306  0.30295  1.0000
  C   C7        1.0  0.28436  0.05415  0.02200  1.0000
  C   C8        1.0  0.71564  0.94585  0.97800  1.0000
  C   C9        1.0  0.56378  0.01118  0.91680  1.0000
  C   C10       1.0  0.43622  0.98882  0.08321  1.0000
  C   C11       1.0  0.35191  0.06642  0.93919  1.0000
  C   C12       1.0  0.64809  0.93358  0.06081  1.0000
  C   C13       1.0  0.21172  0.56552  0.95918  1.0000
  C   C14       1.0  0.78828  0.43448  0.04082  1.0000
  C   C15       1.0  0.82815  0.00936  0.43927  1.0000
  C   C16       1.0  0.17185  0.99064  0.56073  1.0000
  C   C17       1.0  0.84847  0.91624  0.50198  1.0000
  C   C18       1.0  0.15153  0.08376  0.49802  1.0000
  C   C19       1.0  0.10670  0.50370  0.92106  1.0000
  C   C20       1.0  0.89330  0.49630  0.07894  1.0000
  C   C21       1.0  0.07096  0.10795  0.04655  1.0000
  C   C22       1.0  0.92904  0.89205  0.95345  1.0000
  C   C23       1.0  0.10751  0.52086  0.77414  1.0000
  C   C24       1.0  0.89249  0.47914  0.22586  1.0000
  C   C25       1.0  0.62306  0.01279  0.83546  1.0000
  C   C26       1.0  0.37694  0.98721  0.16454  1.0000
  C   C27       1.0  0.80321  0.74142  0.50685  1.0000
  C   C28       1.0  0.19679  0.25858  0.49315  1.0000
  C   C29       1.0  0.01711  0.90621  0.56351  1.0000
  C   C30       1.0  0.98289  0.09379  0.43649  1.0000
  C   C31       1.0  0.01147  0.09997  0.12612  1.0000
  C   C32       1.0  0.98853  0.90003  0.87388  1.0000
  C   C33       1.0  0.69708  0.83135  0.50041  1.0000
  C   C34       1.0  0.30292  0.16865  0.49959  1.0000
  C   C35       1.0  0.31118  0.20813  0.81193  1.0000
  C   C36       1.0  0.68882  0.79187  0.18807  1.0000
  C   C37       1.0  0.20273  0.13769  0.87872  1.0000
  C   C38       1.0  0.79727  0.86231  0.12128  1.0000
  C   C39       1.0  0.89603  0.43755  0.96117  1.0000
  C   C40       1.0  0.10397  0.56245  0.03884  1.0000
  C   C41       1.0  0.66207  0.02094  0.37625  1.0000
  C   C42       1.0  0.33793  0.97906  0.62375  1.0000
  C   C43       1.0  0.64732  0.11012  0.31424  1.0000
  C   C44       1.0  0.35268  0.88988  0.68576  1.0000
  C   C45       1.0  0.22741  0.51027  0.84108  1.0000
  C   C46       1.0  0.77259  0.48973  0.15892  1.0000
  C   C47       1.0  0.82980  0.95954  0.81431  1.0000
  C   C48       1.0  0.17020  0.04045  0.18569  1.0000
  C   C49       1.0  0.79337  0.37029  0.92714  1.0000
  C   C50       1.0  0.20663  0.62971  0.07286  1.0000
  C   C51       1.0  0.58966  0.30672  0.96735  1.0000
  C   C52       1.0  0.41034  0.69328  0.03265  1.0000
  C   C53       1.0  0.41870  0.63449  0.91896  1.0000
  C   C54       1.0  0.58130  0.36551  0.08104  1.0000
  C   C55       1.0  0.80617  0.19182  0.30986  1.0000
  C   C56       1.0  0.19383  0.80818  0.69014  1.0000
  C   C57       1.0  0.97001  0.18353  0.36883  1.0000
  C   C58       1.0  0.02999  0.81647  0.63117  1.0000
  C   C59       1.0  0.51860  0.69543  0.95498  1.0000
  C   C60       1.0  0.48140  0.30457  0.04502  1.0000
  O   O1        1.0  0.78919  0.58141  0.49592  1.0000
  O   O2        1.0  0.21081  0.41859  0.50408  1.0000
  O   O3        1.0  0.40417  0.66004  0.50461  1.0000
  O   O4        1.0  0.59583  0.33996  0.49539  1.0000
  O   O5        1.0  0.26655  0.33230  0.68480  1.0000
  O   O6        1.0  0.73345  0.66770  0.31520  1.0000
  O   O7        1.0  0.51081  0.53093  0.68925  1.0000
  O   O8        1.0  0.48919  0.46907  0.31075  1.0000
  O   O9        1.0  0.12333  0.56211  0.63391  1.0000
  O   O10       1.0  0.87667  0.43789  0.36609  1.0000
  O   O11       1.0  0.90188  0.28232  0.76992  1.0000
  O   O12       1.0  0.09812  0.71768  0.23008  1.0000
  O   O13       1.0  0.79550  0.17814  0.65240  1.0000
  O   O14       1.0  0.20450  0.82186  0.34760  1.0000
