data_image0
_chemical_formula_structural       Er4H20C16S4N8O28
_chemical_formula_sum              "Er4 H20 C16 S4 N8 O28"
_cell_length_a       6.41928
_cell_length_b       11.1558
_cell_length_c       12.0688
_cell_angle_alpha    108.318
_cell_angle_beta     90
_cell_angle_gamma    90.0002

_space_group_name_H-M_alt    "P 1"
_space_group_IT_number       1

loop_
  _space_group_symop_operation_xyz
  'x, y, z'

loop_
  _atom_site_type_symbol
  _atom_site_label
  _atom_site_symmetry_multiplicity
  _atom_site_fract_x
  _atom_site_fract_y
  _atom_site_fract_z
  _atom_site_occupancy
  Er  Er1       1.0  0.86296  0.84106  0.39337  1.0000
  Er  Er2       1.0  0.36296  0.15894  0.10663  1.0000
  Er  Er3       1.0  0.13704  0.15894  0.60663  1.0000
  Er  Er4       1.0  0.63703  0.84106  0.89337  1.0000
  H   H1        1.0  0.72269  0.43598  0.55628  1.0000
  H   H2        1.0  0.22269  0.56402  0.94372  1.0000
  H   H3        1.0  0.27731  0.56402  0.44372  1.0000
  H   H4        1.0  0.77731  0.43598  0.05628  1.0000
  H   H5        1.0  0.77720  0.48991  0.22726  1.0000
  H   H6        1.0  0.27721  0.51009  0.27274  1.0000
  H   H7        1.0  0.22280  0.51009  0.77274  1.0000
  H   H8        1.0  0.72279  0.48991  0.72726  1.0000
  H   H9        1.0  0.72532  0.33216  0.33989  1.0000
  H   H10       1.0  0.22532  0.66784  0.16011  1.0000
  H   H11       1.0  0.27468  0.66784  0.66011  1.0000
  H   H12       1.0  0.77468  0.33216  0.83989  1.0000
  H   H13       1.0  0.04279  0.91121  0.19703  1.0000
  H   H14       1.0  0.54279  0.08879  0.30297  1.0000
  H   H15       1.0  0.95721  0.08879  0.80297  1.0000
  H   H16       1.0  0.45721  0.91121  0.69703  1.0000
  H   H17       1.0  0.06975  0.03240  0.31360  1.0000
  H   H18       1.0  0.56975  0.96760  0.18641  1.0000
  H   H19       1.0  0.93026  0.96760  0.68640  1.0000
  H   H20       1.0  0.43026  0.03240  0.81360  1.0000
  C   C1        1.0  0.73977  0.48824  0.49510  1.0000
  C   C2        1.0  0.23977  0.51176  0.00489  1.0000
  C   C3        1.0  0.26022  0.51176  0.50490  1.0000
  C   C4        1.0  0.76023  0.48824  0.99511  1.0000
  C   C5        1.0  0.77131  0.51363  0.32098  1.0000
  C   C6        1.0  0.27132  0.48637  0.17902  1.0000
  C   C7        1.0  0.22869  0.48637  0.67902  1.0000
  C   C8        1.0  0.72868  0.51363  0.82098  1.0000
  C   C9        1.0  0.76723  0.61449  0.50697  1.0000
  C   C10       1.0  0.26723  0.38551  0.99303  1.0000
  C   C11       1.0  0.23276  0.38551  0.49303  1.0000
  C   C12       1.0  0.73277  0.61449  0.00697  1.0000
  C   C13       1.0  0.77879  0.72923  0.60835  1.0000
  C   C14       1.0  0.27879  0.27077  0.89165  1.0000
  C   C15       1.0  0.22122  0.27077  0.39165  1.0000
  C   C16       1.0  0.72121  0.72923  0.10835  1.0000
  S   S1        1.0  0.32169  0.83637  0.45999  1.0000
  S   S2        1.0  0.82169  0.16363  0.04001  1.0000
  S   S3        1.0  0.67831  0.16363  0.54001  1.0000
  S   S4        1.0  0.17831  0.83637  0.95999  1.0000
  N   N1        1.0  0.74411  0.42697  0.37757  1.0000
  N   N2        1.0  0.24411  0.57303  0.12243  1.0000
  N   N3        1.0  0.25589  0.57303  0.62243  1.0000
  N   N4        1.0  0.75589  0.42697  0.87757  1.0000
  N   N5        1.0  0.78707  0.62828  0.39733  1.0000
  N   N6        1.0  0.28707  0.37172  0.10267  1.0000
  N   N7        1.0  0.21293  0.37172  0.60267  1.0000
  N   N8        1.0  0.71293  0.62828  0.89733  1.0000
  O   O1        1.0  0.72520  0.72458  0.70804  1.0000
  O   O2        1.0  0.22521  0.27542  0.79196  1.0000
  O   O3        1.0  0.27480  0.27542  0.29196  1.0000
  O   O4        1.0  0.77479  0.72458  0.20804  1.0000
  O   O5        1.0  0.84356  0.82839  0.58632  1.0000
  O   O6        1.0  0.34356  0.17161  0.91368  1.0000
  O   O7        1.0  0.15644  0.17161  0.41368  1.0000
  O   O8        1.0  0.65644  0.82839  0.08632  1.0000
  O   O9        1.0  0.51111  0.86370  0.40263  1.0000
  O   O10       1.0  0.01111  0.13630  0.09737  1.0000
  O   O11       1.0  0.48889  0.13630  0.59737  1.0000
  O   O12       1.0  0.98889  0.86370  0.90263  1.0000
  O   O13       1.0  0.37173  0.79949  0.56322  1.0000
  O   O14       1.0  0.87173  0.20051  0.93677  1.0000
  O   O15       1.0  0.62827  0.20051  0.43678  1.0000
  O   O16       1.0  0.12827  0.79949  0.06323  1.0000
  O   O17       1.0  0.19234  0.73809  0.37391  1.0000
  O   O18       1.0  0.69234  0.26191  0.12609  1.0000
  O   O19       1.0  0.80767  0.26191  0.62609  1.0000
  O   O20       1.0  0.30767  0.73809  0.87391  1.0000
  O   O21       1.0  0.18024  0.95031  0.49304  1.0000
  O   O22       1.0  0.68024  0.04968  0.00696  1.0000
  O   O23       1.0  0.81976  0.04968  0.50696  1.0000
  O   O24       1.0  0.31976  0.95032  0.99304  1.0000
  O   O25       1.0  0.99095  0.95270  0.27708  1.0000
  O   O26       1.0  0.49095  0.04730  0.22292  1.0000
  O   O27       1.0  0.00905  0.04730  0.72292  1.0000
  O   O28       1.0  0.50905  0.95270  0.77708  1.0000
