data_image0
_chemical_formula_structural       Tb4H20C16S4N8O28
_chemical_formula_sum              "Tb4 H20 C16 S4 N8 O28"
_cell_length_a       6.48158
_cell_length_b       11.1851
_cell_length_c       12.1692
_cell_angle_alpha    108.285
_cell_angle_beta     90
_cell_angle_gamma    90.0001

_space_group_name_H-M_alt    "P 1"
_space_group_IT_number       1

loop_
  _space_group_symop_operation_xyz
  'x, y, z'

loop_
  _atom_site_type_symbol
  _atom_site_label
  _atom_site_symmetry_multiplicity
  _atom_site_fract_x
  _atom_site_fract_y
  _atom_site_fract_z
  _atom_site_occupancy
  Tb  Tb1       1.0  0.86382  0.83991  0.39318  1.0000
  Tb  Tb2       1.0  0.36382  0.16009  0.10682  1.0000
  Tb  Tb3       1.0  0.13618  0.16009  0.60682  1.0000
  Tb  Tb4       1.0  0.63618  0.83991  0.89318  1.0000
  H   H1        1.0  0.72107  0.43639  0.55926  1.0000
  H   H2        1.0  0.22108  0.56361  0.94074  1.0000
  H   H3        1.0  0.27893  0.56361  0.44075  1.0000
  H   H4        1.0  0.77893  0.43639  0.05926  1.0000
  H   H5        1.0  0.77819  0.48488  0.23085  1.0000
  H   H6        1.0  0.27819  0.51511  0.26915  1.0000
  H   H7        1.0  0.22181  0.51511  0.76915  1.0000
  H   H8        1.0  0.72181  0.48488  0.73085  1.0000
  H   H9        1.0  0.72411  0.33005  0.34574  1.0000
  H   H10       1.0  0.22412  0.66995  0.15426  1.0000
  H   H11       1.0  0.27588  0.66995  0.65426  1.0000
  H   H12       1.0  0.77588  0.33005  0.84574  1.0000
  H   H13       1.0  0.04217  0.91357  0.19646  1.0000
  H   H14       1.0  0.54217  0.08643  0.30354  1.0000
  H   H15       1.0  0.95783  0.08643  0.80354  1.0000
  H   H16       1.0  0.45783  0.91357  0.69646  1.0000
  H   H17       1.0  0.06909  0.03373  0.31232  1.0000
  H   H18       1.0  0.56909  0.96627  0.18768  1.0000
  H   H19       1.0  0.93091  0.96627  0.68768  1.0000
  H   H20       1.0  0.43091  0.03373  0.81232  1.0000
  C   C1        1.0  0.73917  0.48722  0.49758  1.0000
  C   C2        1.0  0.23917  0.51278  0.00242  1.0000
  C   C3        1.0  0.26083  0.51278  0.50242  1.0000
  C   C4        1.0  0.76083  0.48722  0.99758  1.0000
  C   C5        1.0  0.77206  0.51003  0.32396  1.0000
  C   C6        1.0  0.27206  0.48997  0.17604  1.0000
  C   C7        1.0  0.22795  0.48997  0.67604  1.0000
  C   C8        1.0  0.72794  0.51003  0.82396  1.0000
  C   C9        1.0  0.76782  0.61261  0.50796  1.0000
  C   C10       1.0  0.26782  0.38739  0.99204  1.0000
  C   C11       1.0  0.23218  0.38739  0.49204  1.0000
  C   C12       1.0  0.73218  0.61261  0.00796  1.0000
  C   C13       1.0  0.77956  0.72705  0.60845  1.0000
  C   C14       1.0  0.27956  0.27295  0.89155  1.0000
  C   C15       1.0  0.22044  0.27295  0.39155  1.0000
  C   C16       1.0  0.72044  0.72705  0.10845  1.0000
  S   S1        1.0  0.32226  0.83607  0.46034  1.0000
  S   S2        1.0  0.82226  0.16393  0.03966  1.0000
  S   S3        1.0  0.67774  0.16393  0.53966  1.0000
  S   S4        1.0  0.17774  0.83607  0.96034  1.0000
  N   N1        1.0  0.74363  0.42479  0.38134  1.0000
  N   N2        1.0  0.24363  0.57521  0.11866  1.0000
  N   N3        1.0  0.25637  0.57521  0.61866  1.0000
  N   N4        1.0  0.75637  0.42479  0.88134  1.0000
  N   N5        1.0  0.78841  0.62490  0.39865  1.0000
  N   N6        1.0  0.28841  0.37510  0.10135  1.0000
  N   N7        1.0  0.21159  0.37510  0.60135  1.0000
  N   N8        1.0  0.71159  0.62490  0.89865  1.0000
  O   O1        1.0  0.72569  0.72207  0.70713  1.0000
  O   O2        1.0  0.22569  0.27793  0.79287  1.0000
  O   O3        1.0  0.27431  0.27793  0.29287  1.0000
  O   O4        1.0  0.77431  0.72207  0.20713  1.0000
  O   O5        1.0  0.84474  0.82604  0.58725  1.0000
  O   O6        1.0  0.34474  0.17396  0.91275  1.0000
  O   O7        1.0  0.15526  0.17396  0.41275  1.0000
  O   O8        1.0  0.65526  0.82604  0.08725  1.0000
  O   O9        1.0  0.50936  0.86326  0.40303  1.0000
  O   O10       1.0  0.00936  0.13674  0.09697  1.0000
  O   O11       1.0  0.49064  0.13674  0.59697  1.0000
  O   O12       1.0  0.99064  0.86326  0.90303  1.0000
  O   O13       1.0  0.37273  0.80143  0.56381  1.0000
  O   O14       1.0  0.87273  0.19857  0.93619  1.0000
  O   O15       1.0  0.62727  0.19857  0.43619  1.0000
  O   O16       1.0  0.12727  0.80142  0.06381  1.0000
  O   O17       1.0  0.19547  0.73665  0.37582  1.0000
  O   O18       1.0  0.69547  0.26335  0.12418  1.0000
  O   O19       1.0  0.80453  0.26335  0.62418  1.0000
  O   O20       1.0  0.30453  0.73665  0.87582  1.0000
  O   O21       1.0  0.18097  0.94936  0.49189  1.0000
  O   O22       1.0  0.68097  0.05064  0.00811  1.0000
  O   O23       1.0  0.81903  0.05064  0.50811  1.0000
  O   O24       1.0  0.31903  0.94936  0.99189  1.0000
  O   O25       1.0  0.99115  0.95436  0.27599  1.0000
  O   O26       1.0  0.49115  0.04564  0.22401  1.0000
  O   O27       1.0  0.00885  0.04564  0.72401  1.0000
  O   O28       1.0  0.50885  0.95436  0.77599  1.0000
