data_image0
_chemical_formula_structural       Gd4H20C16S4N8O28
_chemical_formula_sum              "Gd4 H20 C16 S4 N8 O28"
_cell_length_a       6.50134
_cell_length_b       11.2035
_cell_length_c       12.21
_cell_angle_alpha    108.382
_cell_angle_beta     90
_cell_angle_gamma    89.9999

_space_group_name_H-M_alt    "P 1"
_space_group_IT_number       1

loop_
  _space_group_symop_operation_xyz
  'x, y, z'

loop_
  _atom_site_type_symbol
  _atom_site_label
  _atom_site_symmetry_multiplicity
  _atom_site_fract_x
  _atom_site_fract_y
  _atom_site_fract_z
  _atom_site_occupancy
  Gd  Gd1       1.0  0.86374  0.83964  0.39287  1.0000
  Gd  Gd2       1.0  0.36374  0.16036  0.10713  1.0000
  Gd  Gd3       1.0  0.13626  0.16036  0.60713  1.0000
  Gd  Gd4       1.0  0.63626  0.83964  0.89287  1.0000
  H   H1        1.0  0.72069  0.43679  0.55965  1.0000
  H   H2        1.0  0.22069  0.56321  0.94035  1.0000
  H   H3        1.0  0.27931  0.56321  0.44035  1.0000
  H   H4        1.0  0.77931  0.43679  0.05965  1.0000
  H   H5        1.0  0.77855  0.48301  0.23165  1.0000
  H   H6        1.0  0.27855  0.51699  0.26835  1.0000
  H   H7        1.0  0.22145  0.51698  0.76835  1.0000
  H   H8        1.0  0.72145  0.48302  0.73165  1.0000
  H   H9        1.0  0.72415  0.32936  0.34705  1.0000
  H   H10       1.0  0.22415  0.67065  0.15295  1.0000
  H   H11       1.0  0.27585  0.67064  0.65295  1.0000
  H   H12       1.0  0.77585  0.32936  0.84704  1.0000
  H   H13       1.0  0.04468  0.91359  0.19636  1.0000
  H   H14       1.0  0.54467  0.08641  0.30364  1.0000
  H   H15       1.0  0.95532  0.08641  0.80364  1.0000
  H   H16       1.0  0.45532  0.91359  0.69636  1.0000
  H   H17       1.0  0.07126  0.03372  0.31207  1.0000
  H   H18       1.0  0.57126  0.96628  0.18793  1.0000
  H   H19       1.0  0.92874  0.96629  0.68794  1.0000
  H   H20       1.0  0.42874  0.03372  0.81207  1.0000
  C   C1        1.0  0.73893  0.48706  0.49787  1.0000
  C   C2        1.0  0.23892  0.51294  0.00214  1.0000
  C   C3        1.0  0.26107  0.51294  0.50214  1.0000
  C   C4        1.0  0.76107  0.48706  0.99786  1.0000
  C   C5        1.0  0.77217  0.50877  0.32452  1.0000
  C   C6        1.0  0.27217  0.49123  0.17548  1.0000
  C   C7        1.0  0.22783  0.49123  0.67549  1.0000
  C   C8        1.0  0.72783  0.50877  0.82452  1.0000
  C   C9        1.0  0.76749  0.61220  0.50793  1.0000
  C   C10       1.0  0.26748  0.38780  0.99207  1.0000
  C   C11       1.0  0.23252  0.38780  0.49207  1.0000
  C   C12       1.0  0.73252  0.61220  0.00793  1.0000
  C   C13       1.0  0.77925  0.72659  0.60816  1.0000
  C   C14       1.0  0.27925  0.27341  0.89184  1.0000
  C   C15       1.0  0.22075  0.27340  0.39184  1.0000
  C   C16       1.0  0.72075  0.72660  0.10816  1.0000
  S   S1        1.0  0.32236  0.83578  0.46083  1.0000
  S   S2        1.0  0.82236  0.16422  0.03917  1.0000
  S   S3        1.0  0.67764  0.16422  0.53917  1.0000
  S   S4        1.0  0.17764  0.83578  0.96083  1.0000
  N   N1        1.0  0.74367  0.42408  0.38204  1.0000
  N   N2        1.0  0.24367  0.57593  0.11796  1.0000
  N   N3        1.0  0.25633  0.57592  0.61796  1.0000
  N   N4        1.0  0.75633  0.42408  0.88204  1.0000
  N   N5        1.0  0.78830  0.62375  0.39874  1.0000
  N   N6        1.0  0.28830  0.37625  0.10126  1.0000
  N   N7        1.0  0.21170  0.37625  0.60126  1.0000
  N   N8        1.0  0.71170  0.62375  0.89874  1.0000
  O   O1        1.0  0.72589  0.72137  0.70651  1.0000
  O   O2        1.0  0.22589  0.27863  0.79349  1.0000
  O   O3        1.0  0.27411  0.27863  0.29349  1.0000
  O   O4        1.0  0.77411  0.72137  0.20651  1.0000
  O   O5        1.0  0.84414  0.82561  0.58743  1.0000
  O   O6        1.0  0.34414  0.17439  0.91257  1.0000
  O   O7        1.0  0.15586  0.17439  0.41257  1.0000
  O   O8        1.0  0.65586  0.82561  0.08743  1.0000
  O   O9        1.0  0.50846  0.86316  0.40353  1.0000
  O   O10       1.0  0.00846  0.13684  0.09647  1.0000
  O   O11       1.0  0.49154  0.13684  0.59647  1.0000
  O   O12       1.0  0.99154  0.86316  0.90353  1.0000
  O   O13       1.0  0.37303  0.80164  0.56413  1.0000
  O   O14       1.0  0.87303  0.19836  0.93587  1.0000
  O   O15       1.0  0.62697  0.19836  0.43587  1.0000
  O   O16       1.0  0.12697  0.80164  0.06413  1.0000
  O   O17       1.0  0.19637  0.73599  0.37676  1.0000
  O   O18       1.0  0.69637  0.26401  0.12324  1.0000
  O   O19       1.0  0.80363  0.26401  0.62324  1.0000
  O   O20       1.0  0.30363  0.73599  0.87676  1.0000
  O   O21       1.0  0.18107  0.94881  0.49231  1.0000
  O   O22       1.0  0.68107  0.05119  0.00769  1.0000
  O   O23       1.0  0.81893  0.05119  0.50769  1.0000
  O   O24       1.0  0.31893  0.94881  0.99231  1.0000
  O   O25       1.0  0.99400  0.95430  0.27575  1.0000
  O   O26       1.0  0.49400  0.04570  0.22425  1.0000
  O   O27       1.0  0.00600  0.04570  0.72425  1.0000
  O   O28       1.0  0.50600  0.95430  0.77575  1.0000
