data_image0
_chemical_formula_structural       Zn2H56C52N8O10
_chemical_formula_sum              "Zn2 H56 C52 N8 O10"
_cell_length_a       9.37346
_cell_length_b       12.3345
_cell_length_c       12.6894
_cell_angle_alpha    64.703
_cell_angle_beta     71.9598
_cell_angle_gamma    77.1554

_space_group_name_H-M_alt    "P 1"
_space_group_IT_number       1

loop_
  _space_group_symop_operation_xyz
  'x, y, z'

loop_
  _atom_site_type_symbol
  _atom_site_label
  _atom_site_symmetry_multiplicity
  _atom_site_fract_x
  _atom_site_fract_y
  _atom_site_fract_z
  _atom_site_occupancy
  Zn  Zn1       1.0  0.20428  0.39450  0.46850  1.0000
  Zn  Zn2       1.0  0.79572  0.60550  0.53150  1.0000
  H   H1        1.0  0.73979  0.94635  0.85062  1.0000
  H   H2        1.0  0.26021  0.05365  0.14938  1.0000
  H   H3        1.0  0.54125  0.07104  0.43184  1.0000
  H   H4        1.0  0.45875  0.92896  0.56816  1.0000
  H   H5        1.0  0.60734  0.10832  0.52862  1.0000
  H   H6        1.0  0.39266  0.89167  0.47138  1.0000
  H   H7        1.0  0.75207  0.30156  0.42600  1.0000
  H   H8        1.0  0.24793  0.69844  0.57400  1.0000
  H   H9        1.0  0.63030  0.38634  0.33152  1.0000
  H   H10       1.0  0.36970  0.61366  0.66848  1.0000
  H   H11       1.0  0.10249  0.32253  0.17117  1.0000
  H   H12       1.0  0.89750  0.67747  0.82883  1.0000
  H   H13       1.0  0.04029  0.26467  0.32876  1.0000
  H   H14       1.0  0.95971  0.73533  0.67124  1.0000
  H   H15       1.0  0.07743  0.10024  0.25764  1.0000
  H   H16       1.0  0.92257  0.89976  0.74236  1.0000
  H   H17       1.0  0.86834  0.09122  0.43611  1.0000
  H   H18       1.0  0.13166  0.90878  0.56389  1.0000
  H   H19       1.0  0.82242  0.02805  0.35040  1.0000
  H   H20       1.0  0.17758  0.97195  0.64960  1.0000
  H   H21       1.0  0.56214  0.29358  0.20864  1.0000
  H   H22       1.0  0.43786  0.70642  0.79137  1.0000
  H   H23       1.0  0.64454  0.14738  0.21557  1.0000
  H   H24       1.0  0.35546  0.85261  0.78443  1.0000
  H   H25       1.0  0.77509  0.30406  0.02713  1.0000
  H   H26       1.0  0.22491  0.69594  0.97288  1.0000
  H   H27       1.0  0.03707  0.23143  0.04998  1.0000
  H   H28       1.0  0.96293  0.76857  0.95002  1.0000
  H   H29       1.0  0.92044  0.11100  0.12250  1.0000
  H   H30       1.0  0.07956  0.88900  0.87750  1.0000
  H   H31       1.0  0.72671  0.46737  0.10636  1.0000
  H   H32       1.0  0.27329  0.53263  0.89364  1.0000
  H   H33       1.0  0.92102  0.44233  0.04018  1.0000
  H   H34       1.0  0.07899  0.55767  0.95982  1.0000
  H   H35       1.0  0.98527  0.53365  0.15732  1.0000
  H   H36       1.0  0.01473  0.46635  0.84268  1.0000
  H   H37       1.0  0.78804  0.55857  0.22111  1.0000
  H   H38       1.0  0.21196  0.44143  0.77889  1.0000
  H   H39       1.0  0.18684  0.26160  0.72868  1.0000
  H   H40       1.0  0.81316  0.73840  0.27133  1.0000
  H   H41       1.0  0.01353  0.13603  0.91834  1.0000
  H   H42       1.0  0.98647  0.86397  0.08166  1.0000
  H   H43       1.0  0.75238  0.12751  0.69500  1.0000
  H   H44       1.0  0.24761  0.87249  0.30500  1.0000
  H   H45       1.0  0.93011  0.25808  0.51824  1.0000
  H   H46       1.0  0.06989  0.74192  0.48177  1.0000
  H   H47       1.0  0.60701  0.78648  0.93092  1.0000
  H   H48       1.0  0.39299  0.21352  0.06908  1.0000
  H   H49       1.0  0.55173  0.74374  0.26069  1.0000
  H   H50       1.0  0.44827  0.25627  0.73931  1.0000
  H   H51       1.0  0.40236  0.58544  0.43079  1.0000
  H   H52       1.0  0.59764  0.41457  0.56921  1.0000
  H   H53       1.0  0.30213  0.46803  0.20409  1.0000
  H   H54       1.0  0.69787  0.53197  0.79591  1.0000
  H   H55       1.0  0.45128  0.62120  0.02055  1.0000
  H   H56       1.0  0.54872  0.37881  0.97945  1.0000
  C   C1        1.0  0.42751  0.23150  0.45910  1.0000
  C   C2        1.0  0.57249  0.76850  0.54090  1.0000
  C   C3        1.0  0.56891  0.14549  0.44508  1.0000
  C   C4        1.0  0.43109  0.85451  0.55492  1.0000
  C   C5        1.0  0.69955  0.20326  0.33829  1.0000
  C   C6        1.0  0.30045  0.79674  0.66171  1.0000
  C   C7        1.0  0.73097  0.32025  0.33880  1.0000
  C   C8        1.0  0.26903  0.67975  0.66121  1.0000
  C   C9        1.0  0.86525  0.37553  0.23514  1.0000
  C   C10       1.0  0.13475  0.62447  0.76486  1.0000
  C   C11       1.0  0.00671  0.28343  0.24646  1.0000
  C   C12       1.0  0.99329  0.71657  0.75354  1.0000
  C   C13       1.0  0.97685  0.16662  0.24526  1.0000
  C   C14       1.0  0.02315  0.83337  0.75474  1.0000
  C   C15       1.0  0.84289  0.11312  0.34949  1.0000
  C   C16       1.0  0.15711  0.88688  0.65051  1.0000
  C   C17       1.0  0.66579  0.23088  0.21726  1.0000
  C   C18       1.0  0.33422  0.76912  0.78274  1.0000
  C   C19       1.0  0.79974  0.28468  0.11321  1.0000
  C   C20       1.0  0.20027  0.71532  0.88679  1.0000
  C   C21       1.0  0.94123  0.19367  0.12582  1.0000
  C   C22       1.0  0.05877  0.80633  0.87418  1.0000
  C   C23       1.0  0.82742  0.40120  0.11612  1.0000
  C   C24       1.0  0.17258  0.59880  0.88388  1.0000
  C   C25       1.0  0.89053  0.49569  0.23376  1.0000
  C   C26       1.0  0.10947  0.50431  0.76624  1.0000
  C   C27       1.0  0.92644  0.48409  0.34748  1.0000
  C   C28       1.0  0.07356  0.51591  0.65252  1.0000
  C   C29       1.0  0.08767  0.23090  0.72675  1.0000
  C   C30       1.0  0.91233  0.76910  0.27326  1.0000
  C   C31       1.0  0.99286  0.16059  0.83087  1.0000
  C   C32       1.0  0.00714  0.83941  0.16914  1.0000
  C   C33       1.0  0.86979  0.12099  0.82217  1.0000
  C   C34       1.0  0.13021  0.87901  0.17783  1.0000
  C   C35       1.0  0.84756  0.15351  0.70795  1.0000
  C   C36       1.0  0.15244  0.84649  0.29205  1.0000
  C   C37       1.0  0.94590  0.22726  0.60845  1.0000
  C   C38       1.0  0.05410  0.77274  0.39156  1.0000
  C   C39       1.0  0.76970  0.04698  0.93743  1.0000
  C   C40       1.0  0.23030  0.95302  0.06257  1.0000
  C   C41       1.0  0.59074  0.79020  0.01924  1.0000
  C   C42       1.0  0.40926  0.20980  0.98075  1.0000
  C   C43       1.0  0.51149  0.69702  0.12503  1.0000
  C   C44       1.0  0.48851  0.30298  0.87496  1.0000
  C   C45       1.0  0.49899  0.68523  0.24271  1.0000
  C   C46       1.0  0.50101  0.31477  0.75728  1.0000
  C   C47       1.0  0.41568  0.59710  0.33827  1.0000
  C   C48       1.0  0.58431  0.40290  0.66173  1.0000
  C   C49       1.0  0.36044  0.53114  0.21084  1.0000
  C   C50       1.0  0.63956  0.46886  0.78916  1.0000
  C   C51       1.0  0.44279  0.61603  0.11019  1.0000
  C   C52       1.0  0.55721  0.38397  0.88980  1.0000
  N   N1        1.0  0.06271  0.26604  0.61741  1.0000
  N   N2        1.0  0.93729  0.73395  0.38259  1.0000
  N   N3        1.0  0.71048  0.95794  0.93024  1.0000
  N   N4        1.0  0.28952  0.04206  0.06976  1.0000
  N   N5        1.0  0.63609  0.87512  0.03077  1.0000
  N   N6        1.0  0.36391  0.12488  0.96923  1.0000
  N   N7        1.0  0.34553  0.52269  0.32287  1.0000
  N   N8        1.0  0.65447  0.47731  0.67712  1.0000
  O   O1        1.0  0.40542  0.28089  0.53421  1.0000
  O   O2        1.0  0.59458  0.71911  0.46579  1.0000
  O   O3        1.0  0.33591  0.25562  0.39371  1.0000
  O   O4        1.0  0.66409  0.74438  0.60629  1.0000
  O   O5        1.0  0.81856  0.50781  0.42722  1.0000
  O   O6        1.0  0.18144  0.49219  0.57278  1.0000
  O   O7        1.0  0.06265  0.44951  0.35445  1.0000
  O   O8        1.0  0.93735  0.55049  0.64555  1.0000
  O   O9        1.0  0.74696  0.06219  0.03120  1.0000
  O   O10       1.0  0.25304  0.93781  0.96880  1.0000
