data_image0
_chemical_formula_structural       Mn4P8H44C16N4O28
_chemical_formula_sum              "Mn4 P8 H44 C16 N4 O28"
_cell_length_a       5.51299
_cell_length_b       12.2701
_cell_length_c       14.645
_cell_angle_alpha    90
_cell_angle_beta     90
_cell_angle_gamma    98.1863

_space_group_name_H-M_alt    "P 1"
_space_group_IT_number       1

loop_
  _space_group_symop_operation_xyz
  'x, y, z'

loop_
  _atom_site_type_symbol
  _atom_site_label
  _atom_site_symmetry_multiplicity
  _atom_site_fract_x
  _atom_site_fract_y
  _atom_site_fract_z
  _atom_site_occupancy
  Mn  Mn1       1.0  0.72571  0.61336  0.03008  1.0000
  Mn  Mn2       1.0  0.77429  0.88665  0.53008  1.0000
  Mn  Mn3       1.0  0.27429  0.38665  0.96992  1.0000
  Mn  Mn4       1.0  0.22572  0.11336  0.46992  1.0000
  P   P1        1.0  0.28392  0.72838  0.10343  1.0000
  P   P2        1.0  0.21608  0.77162  0.60343  1.0000
  P   P3        1.0  0.71607  0.27162  0.89657  1.0000
  P   P4        1.0  0.78393  0.22838  0.39657  1.0000
  P   P5        1.0  0.22349  0.65043  0.90998  1.0000
  P   P6        1.0  0.27652  0.84958  0.40998  1.0000
  P   P7        1.0  0.77651  0.34957  0.09002  1.0000
  P   P8        1.0  0.72349  0.15043  0.59002  1.0000
  H   H1        1.0  0.03517  0.85908  0.97377  1.0000
  H   H2        1.0  0.46484  0.64092  0.47376  1.0000
  H   H3        1.0  0.96483  0.14092  0.02623  1.0000
  H   H4        1.0  0.53516  0.35908  0.52623  1.0000
  H   H5        1.0  0.30808  0.94021  0.00985  1.0000
  H   H6        1.0  0.19192  0.55980  0.50985  1.0000
  H   H7        1.0  0.69192  0.05979  0.99015  1.0000
  H   H8        1.0  0.80808  0.44021  0.49015  1.0000
  H   H9        1.0  0.24215  0.84942  0.81442  1.0000
  H   H10       1.0  0.25784  0.65057  0.31442  1.0000
  H   H11       1.0  0.75785  0.15058  0.18558  1.0000
  H   H12       1.0  0.74216  0.34943  0.68558  1.0000
  H   H13       1.0  0.47467  0.95223  0.85418  1.0000
  H   H14       1.0  0.02533  0.54776  0.35418  1.0000
  H   H15       1.0  0.52533  0.04776  0.14582  1.0000
  H   H16       1.0  0.97467  0.45223  0.64582  1.0000
  H   H17       1.0  0.92788  0.97526  0.84790  1.0000
  H   H18       1.0  0.57213  0.52474  0.34790  1.0000
  H   H19       1.0  0.07212  0.02474  0.15210  1.0000
  H   H20       1.0  0.42787  0.47525  0.65210  1.0000
  H   H21       1.0  0.16881  0.08133  0.87778  1.0000
  H   H22       1.0  0.33121  0.41867  0.37778  1.0000
  H   H23       1.0  0.83120  0.91867  0.12222  1.0000
  H   H24       1.0  0.66879  0.58133  0.62222  1.0000
  H   H25       1.0  0.11813  0.96429  0.69747  1.0000
  H   H26       1.0  0.38186  0.53571  0.19747  1.0000
  H   H27       1.0  0.88186  0.03571  0.30253  1.0000
  H   H28       1.0  0.61813  0.46429  0.80253  1.0000
  H   H29       1.0  0.32895  0.07191  0.72329  1.0000
  H   H30       1.0  0.17105  0.42809  0.22329  1.0000
  H   H31       1.0  0.67105  0.92809  0.27671  1.0000
  H   H32       1.0  0.82895  0.57191  0.77671  1.0000
  H   H33       1.0  0.03634  0.09040  0.71812  1.0000
  H   H34       1.0  0.46365  0.40960  0.21812  1.0000
  H   H35       1.0  0.96366  0.90960  0.28188  1.0000
  H   H36       1.0  0.53634  0.59040  0.78188  1.0000
  H   H37       1.0  0.27226  0.83147  0.22531  1.0000
  H   H38       1.0  0.22774  0.66853  0.72531  1.0000
  H   H39       1.0  0.72774  0.16853  0.77469  1.0000
  H   H40       1.0  0.77227  0.33147  0.27469  1.0000
  H   H41       1.0  0.63784  0.77451  0.90509  1.0000
  H   H42       1.0  0.86216  0.72549  0.40509  1.0000
  H   H43       1.0  0.36215  0.22548  0.09491  1.0000
  H   H44       1.0  0.13785  0.27451  0.59491  1.0000
  C   C1        1.0  0.34219  0.77110  0.98270  1.0000
  C   C2        1.0  0.15782  0.72890  0.48270  1.0000
  C   C3        1.0  0.65782  0.22889  0.01731  1.0000
  C   C4        1.0  0.84219  0.27110  0.51730  1.0000
  C   C5        1.0  0.23356  0.87632  0.96064  1.0000
  C   C6        1.0  0.26645  0.62368  0.46064  1.0000
  C   C7        1.0  0.76645  0.12368  0.03936  1.0000
  C   C8        1.0  0.73355  0.37632  0.53936  1.0000
  C   C9        1.0  0.28035  0.91804  0.86278  1.0000
  C   C10       1.0  0.21965  0.58197  0.36278  1.0000
  C   C11       1.0  0.71965  0.08197  0.13722  1.0000
  C   C12       1.0  0.78035  0.41803  0.63722  1.0000
  C   C13       1.0  0.12333  0.00570  0.83760  1.0000
  C   C14       1.0  0.37667  0.49430  0.33760  1.0000
  C   C15       1.0  0.87667  0.99430  0.16240  1.0000
  C   C16       1.0  0.62332  0.50570  0.66240  1.0000
  N   N1        1.0  0.15485  0.03472  0.73917  1.0000
  N   N2        1.0  0.34515  0.46528  0.23917  1.0000
  N   N3        1.0  0.84516  0.96528  0.26083  1.0000
  N   N4        1.0  0.65484  0.53472  0.76083  1.0000
  O   O1        1.0  0.46937  0.65215  0.13020  1.0000
  O   O2        1.0  0.03063  0.84785  0.63020  1.0000
  O   O3        1.0  0.53062  0.34784  0.86980  1.0000
  O   O4        1.0  0.96939  0.15216  0.36980  1.0000
  O   O5        1.0  0.01673  0.67886  0.11285  1.0000
  O   O6        1.0  0.48326  0.82114  0.61285  1.0000
  O   O7        1.0  0.98326  0.32114  0.88715  1.0000
  O   O8        1.0  0.51674  0.17886  0.38715  1.0000
  O   O9        1.0  0.33967  0.84025  0.15873  1.0000
  O   O10       1.0  0.16033  0.65975  0.65873  1.0000
  O   O11       1.0  0.66033  0.15975  0.84127  1.0000
  O   O12       1.0  0.83968  0.34026  0.34127  1.0000
  O   O13       1.0  0.33779  0.55549  0.95373  1.0000
  O   O14       1.0  0.16222  0.94451  0.45373  1.0000
  O   O15       1.0  0.66220  0.44451  0.04627  1.0000
  O   O16       1.0  0.83780  0.05549  0.54627  1.0000
  O   O17       1.0  0.94331  0.63549  0.90812  1.0000
  O   O18       1.0  0.55669  0.86452  0.40813  1.0000
  O   O19       1.0  0.05668  0.36451  0.09188  1.0000
  O   O20       1.0  0.44331  0.13549  0.59188  1.0000
  O   O21       1.0  0.34205  0.67654  0.81555  1.0000
  O   O22       1.0  0.15795  0.82346  0.31555  1.0000
  O   O23       1.0  0.65793  0.32346  0.18445  1.0000
  O   O24       1.0  0.84206  0.17654  0.68445  1.0000
  O   O25       1.0  0.60850  0.78586  0.97036  1.0000
  O   O26       1.0  0.89151  0.71413  0.47036  1.0000
  O   O27       1.0  0.39151  0.21413  0.02964  1.0000
  O   O28       1.0  0.10849  0.28587  0.52964  1.0000
