data_image0
_chemical_formula_structural       Cd2H52C44N12O8
_chemical_formula_sum              "Cd2 H52 C44 N12 O8"
_cell_length_a       6.58648
_cell_length_b       9.66423
_cell_length_c       18.167
_cell_angle_alpha    90
_cell_angle_beta     90
_cell_angle_gamma    96.9135

_space_group_name_H-M_alt    "P 1"
_space_group_IT_number       1

loop_
  _space_group_symop_operation_xyz
  'x, y, z'

loop_
  _atom_site_type_symbol
  _atom_site_label
  _atom_site_symmetry_multiplicity
  _atom_site_fract_x
  _atom_site_fract_y
  _atom_site_fract_z
  _atom_site_occupancy
  Cd  Cd1       1.0  0.66224  0.19461  0.73965  1.0000
  Cd  Cd2       1.0  0.33776  0.80539  0.23965  1.0000
  H   H1        1.0  0.11805  0.87554  0.78705  1.0000
  H   H2        1.0  0.88196  0.12446  0.28705  1.0000
  H   H3        1.0  0.03931  0.59108  0.63358  1.0000
  H   H4        1.0  0.96068  0.40891  0.13358  1.0000
  H   H5        1.0  0.26904  0.60657  0.68331  1.0000
  H   H6        1.0  0.73095  0.39342  0.18332  1.0000
  H   H7        1.0  0.05592  0.83280  0.62307  1.0000
  H   H8        1.0  0.94408  0.16719  0.12307  1.0000
  H   H9        1.0  0.28902  0.85438  0.67165  1.0000
  H   H10       1.0  0.71099  0.14562  0.17165  1.0000
  H   H11       1.0  0.06784  0.56870  0.86919  1.0000
  H   H12       1.0  0.93217  0.43129  0.36919  1.0000
  H   H13       1.0  0.24001  0.69925  0.82531  1.0000
  H   H14       1.0  0.76000  0.30075  0.32531  1.0000
  H   H15       1.0  0.25330  0.52170  0.80550  1.0000
  H   H16       1.0  0.74671  0.47829  0.30550  1.0000
  H   H17       1.0  0.58005  0.61151  0.71686  1.0000
  H   H18       1.0  0.41996  0.38848  0.21686  1.0000
  H   H19       1.0  0.73936  0.69811  0.64782  1.0000
  H   H20       1.0  0.26065  0.30189  0.14782  1.0000
  H   H21       1.0  0.59507  0.79572  0.70590  1.0000
  H   H22       1.0  0.40494  0.20427  0.20590  1.0000
  H   H23       1.0  0.67635  0.82663  0.83888  1.0000
  H   H24       1.0  0.32364  0.17337  0.33889  1.0000
  H   H25       1.0  0.88680  0.75664  0.87914  1.0000
  H   H26       1.0  0.11320  0.24336  0.37914  1.0000
  H   H27       1.0  0.66760  0.64196  0.85150  1.0000
  H   H28       1.0  0.33241  0.35804  0.35150  1.0000
  H   H29       1.0  0.33413  0.10415  0.47099  1.0000
  H   H30       1.0  0.66588  0.89586  0.97099  1.0000
  H   H31       1.0  0.19046  0.28631  0.67328  1.0000
  H   H32       1.0  0.80955  0.71369  0.17328  1.0000
  H   H33       1.0  0.97272  0.17651  0.48417  1.0000
  H   H34       1.0  0.02728  0.82349  0.98417  1.0000
  H   H35       1.0  0.88564  0.20312  0.57436  1.0000
  H   H36       1.0  0.11436  0.79688  0.07435  1.0000
  H   H37       1.0  0.32479  0.42334  0.48219  1.0000
  H   H38       1.0  0.67520  0.57666  0.98219  1.0000
  H   H39       1.0  0.31660  0.66862  0.44534  1.0000
  H   H40       1.0  0.68339  0.33139  0.94534  1.0000
  H   H41       1.0  0.68520  0.64204  0.51166  1.0000
  H   H42       1.0  0.31479  0.35795  0.01166  1.0000
  H   H43       1.0  0.69299  0.39577  0.54753  1.0000
  H   H44       1.0  0.30700  0.60422  0.04753  1.0000
  H   H45       1.0  0.01696  0.88968  0.50629  1.0000
  H   H46       1.0  0.98303  0.11032  0.00628  1.0000
  H   H47       1.0  0.13207  0.86060  0.42015  1.0000
  H   H48       1.0  0.86792  0.13940  0.92014  1.0000
  H   H49       1.0  0.66133  0.96069  0.50484  1.0000
  H   H50       1.0  0.33866  0.03931  0.00484  1.0000
  H   H51       1.0  0.84269  0.76232  0.31188  1.0000
  H   H52       1.0  0.15733  0.23769  0.81188  1.0000
  C   C1        1.0  0.90801  0.98160  0.72828  1.0000
  C   C2        1.0  0.09199  0.01840  0.22828  1.0000
  C   C3        1.0  0.01469  0.85294  0.73986  1.0000
  C   C4        1.0  0.98532  0.14706  0.23987  1.0000
  C   C5        1.0  0.85763  0.72429  0.76094  1.0000
  C   C6        1.0  0.14237  0.27570  0.26094  1.0000
  C   C7        1.0  0.99599  0.60372  0.75272  1.0000
  C   C8        1.0  0.00401  0.39628  0.25272  1.0000
  C   C9        1.0  0.11797  0.64302  0.68093  1.0000
  C   C10       1.0  0.88203  0.35697  0.18093  1.0000
  C   C11       1.0  0.13095  0.80320  0.67366  1.0000
  C   C12       1.0  0.86906  0.19679  0.17366  1.0000
  C   C13       1.0  0.87738  0.45758  0.74835  1.0000
  C   C14       1.0  0.12263  0.54242  0.24835  1.0000
  C   C15       1.0  0.14704  0.59815  0.81745  1.0000
  C   C16       1.0  0.85297  0.40185  0.31745  1.0000
  C   C17       1.0  0.68299  0.70621  0.70432  1.0000
  C   C18       1.0  0.31702  0.29379  0.20433  1.0000
  C   C19       1.0  0.76612  0.73796  0.83740  1.0000
  C   C20       1.0  0.23387  0.26204  0.33740  1.0000
  C   C21       1.0  0.34526  0.13955  0.52787  1.0000
  C   C22       1.0  0.65475  0.86047  0.02786  1.0000
  C   C23       1.0  0.27293  0.23233  0.63219  1.0000
  C   C24       1.0  0.72708  0.76767  0.13219  1.0000
  C   C25       1.0  0.00491  0.23923  0.53435  1.0000
  C   C26       1.0  0.99510  0.76077  0.03435  1.0000
  C   C27       1.0  0.00855  0.39222  0.51694  1.0000
  C   C28       1.0  0.99144  0.60779  0.01694  1.0000
  C   C29       1.0  0.18431  0.47099  0.48949  1.0000
  C   C30       1.0  0.81568  0.52902  0.98949  1.0000
  C   C31       1.0  0.18057  0.60958  0.46892  1.0000
  C   C32       1.0  0.81941  0.39042  0.96891  1.0000
  C   C33       1.0  0.00148  0.67270  0.47636  1.0000
  C   C34       1.0  0.99851  0.32729  0.97635  1.0000
  C   C35       1.0  0.82593  0.59433  0.50460  1.0000
  C   C36       1.0  0.17406  0.40567  0.00461  1.0000
  C   C37       1.0  0.82949  0.45551  0.52474  1.0000
  C   C38       1.0  0.17050  0.54448  0.02474  1.0000
  C   C39       1.0  0.00281  0.82461  0.45634  1.0000
  C   C40       1.0  0.99719  0.17539  0.95634  1.0000
  C   C41       1.0  0.66019  0.91874  0.44908  1.0000
  C   C42       1.0  0.33980  0.08127  0.94908  1.0000
  C   C43       1.0  0.75287  0.81583  0.35032  1.0000
  C   C44       1.0  0.24713  0.18417  0.85032  1.0000
  N   N1        1.0  0.45301  0.18543  0.63851  1.0000
  N   N2        1.0  0.54699  0.81457  0.13851  1.0000
  N   N3        1.0  0.19980  0.20473  0.56315  1.0000
  N   N4        1.0  0.80021  0.79528  0.06315  1.0000
  N   N5        1.0  0.50000  0.12605  0.57236  1.0000
  N   N6        1.0  0.50001  0.87396  0.07235  1.0000
  N   N7        1.0  0.81398  0.85257  0.41994  1.0000
  N   N8        1.0  0.18600  0.14744  0.91994  1.0000
  N   N9        1.0  0.57248  0.85832  0.33764  1.0000
  N   N10       1.0  0.42752  0.14168  0.83764  1.0000
  N   N11       1.0  0.51259  0.92415  0.40032  1.0000
  N   N12       1.0  0.48740  0.07586  0.90033  1.0000
  O   O1        1.0  0.86083  0.04409  0.78784  1.0000
  O   O2        1.0  0.13918  0.95592  0.28784  1.0000
  O   O3        1.0  0.85899  0.02016  0.66496  1.0000
  O   O4        1.0  0.14100  0.97984  0.16496  1.0000
  O   O5        1.0  0.70380  0.42910  0.77967  1.0000
  O   O6        1.0  0.29620  0.57091  0.27967  1.0000
  O   O7        1.0  0.96102  0.36320  0.71430  1.0000
  O   O8        1.0  0.03896  0.63679  0.21430  1.0000
