data_image0
_chemical_formula_structural       Cd2H56C52N8O10
_chemical_formula_sum              "Cd2 H56 C52 N8 O10"
_cell_length_a       9.85471
_cell_length_b       12.1934
_cell_length_c       13.126
_cell_angle_alpha    64.4374
_cell_angle_beta     68.7274
_cell_angle_gamma    73.0567

_space_group_name_H-M_alt    "P 1"
_space_group_IT_number       1

loop_
  _space_group_symop_operation_xyz
  'x, y, z'

loop_
  _atom_site_type_symbol
  _atom_site_label
  _atom_site_symmetry_multiplicity
  _atom_site_fract_x
  _atom_site_fract_y
  _atom_site_fract_z
  _atom_site_occupancy
  Cd  Cd1       1.0  0.18767  0.88354  0.02104  1.0000
  Cd  Cd2       1.0  0.81233  0.11646  0.97896  1.0000
  H   H1        1.0  0.60785  0.35947  0.63271  1.0000
  H   H2        1.0  0.39215  0.64053  0.36729  1.0000
  H   H3        1.0  0.06498  0.79455  0.82934  1.0000
  H   H4        1.0  0.93502  0.20545  0.17066  1.0000
  H   H5        1.0  0.07548  0.92554  0.70025  1.0000
  H   H6        1.0  0.92452  0.07446  0.29975  1.0000
  H   H7        1.0  0.83387  0.68342  0.91073  1.0000
  H   H8        1.0  0.16613  0.31658  0.08927  1.0000
  H   H9        1.0  0.70622  0.82278  0.89400  1.0000
  H   H10       1.0  0.29377  0.17722  0.10600  1.0000
  H   H11       1.0  0.98506  0.62787  0.59853  1.0000
  H   H12       1.0  0.01494  0.37213  0.40147  1.0000
  H   H13       1.0  0.84569  0.54452  0.80862  1.0000
  H   H14       1.0  0.15431  0.45548  0.19138  1.0000
  H   H15       1.0  0.72820  0.58807  0.71773  1.0000
  H   H16       1.0  0.27180  0.41193  0.28227  1.0000
  H   H17       1.0  0.08596  0.78824  0.60536  1.0000
  H   H18       1.0  0.91404  0.21176  0.39464  1.0000
  H   H19       1.0  0.05761  0.66404  0.74144  1.0000
  H   H20       1.0  0.94239  0.33596  0.25856  1.0000
  H   H21       1.0  0.54628  0.78806  0.69073  1.0000
  H   H22       1.0  0.45372  0.21194  0.30927  1.0000
  H   H23       1.0  0.53906  0.88480  0.76180  1.0000
  H   H24       1.0  0.46094  0.11520  0.23820  1.0000
  H   H25       1.0  0.67637  0.96793  0.55043  1.0000
  H   H26       1.0  0.32363  0.03206  0.44957  1.0000
  H   H27       1.0  0.91733  0.84838  0.47432  1.0000
  H   H28       1.0  0.08267  0.15162  0.52568  1.0000
  H   H29       1.0  0.77021  0.76590  0.52247  1.0000
  H   H30       1.0  0.22979  0.23410  0.47753  1.0000
  H   H31       1.0  0.74902  0.00348  0.69613  1.0000
  H   H32       1.0  0.25098  0.99652  0.30387  1.0000
  H   H33       1.0  0.90435  0.98861  0.57817  1.0000
  H   H34       1.0  0.09565  0.01139  0.42183  1.0000
  H   H35       1.0  0.53172  0.58600  0.88362  1.0000
  H   H36       1.0  0.46828  0.41400  0.11638  1.0000
  H   H37       1.0  0.62543  0.57343  0.98235  1.0000
  H   H38       1.0  0.37457  0.42657  0.01765  1.0000
  H   H39       1.0  0.23409  0.99675  0.75402  1.0000
  H   H40       1.0  0.76591  0.00325  0.24598  1.0000
  H   H41       1.0  0.38916  0.13319  0.56598  1.0000
  H   H42       1.0  0.61084  0.86681  0.43402  1.0000
  H   H43       1.0  0.55527  0.21687  0.78473  1.0000
  H   H44       1.0  0.44473  0.78313  0.21527  1.0000
  H   H45       1.0  0.39796  0.08098  0.95633  1.0000
  H   H46       1.0  0.60204  0.91902  0.04367  1.0000
  H   H47       1.0  0.75442  0.50543  0.55413  1.0000
  H   H48       1.0  0.24558  0.49457  0.44587  1.0000
  H   H49       1.0  0.95437  0.62321  0.46831  1.0000
  H   H50       1.0  0.04563  0.37679  0.53169  1.0000
  H   H51       1.0  0.11261  0.76585  0.29195  1.0000
  H   H52       1.0  0.88739  0.23415  0.70805  1.0000
  H   H53       1.0  0.95076  0.72007  0.06555  1.0000
  H   H54       1.0  0.04924  0.27993  0.93445  1.0000
  H   H55       1.0  0.78265  0.57702  0.23237  1.0000
  H   H56       1.0  0.21735  0.42298  0.76763  1.0000
  C   C1        1.0  0.92510  0.95753  0.85079  1.0000
  C   C2        1.0  0.07490  0.04247  0.14921  1.0000
  C   C3        1.0  0.99627  0.87430  0.78018  1.0000
  C   C4        1.0  0.00373  0.12570  0.21982  1.0000
  C   C5        1.0  0.89801  0.83083  0.74185  1.0000
  C   C6        1.0  0.10199  0.16917  0.25815  1.0000
  C   C7        1.0  0.77971  0.76154  0.84765  1.0000
  C   C8        1.0  0.22029  0.23846  0.15235  1.0000
  C   C9        1.0  0.90969  0.69260  0.64026  1.0000
  C   C10       1.0  0.09031  0.30740  0.35974  1.0000
  C   C11       1.0  0.68738  0.71204  0.80836  1.0000
  C   C12       1.0  0.31262  0.28796  0.19164  1.0000
  C   C13       1.0  0.79280  0.62437  0.74619  1.0000
  C   C14       1.0  0.20720  0.37563  0.25381  1.0000
  C   C15       1.0  0.99962  0.74113  0.68074  1.0000
  C   C16       1.0  0.00038  0.25887  0.31926  1.0000
  C   C17       1.0  0.61422  0.82126  0.71888  1.0000
  C   C18       1.0  0.38578  0.17873  0.28112  1.0000
  C   C19       1.0  0.73112  0.88966  0.61280  1.0000
  C   C20       1.0  0.26888  0.11034  0.38720  1.0000
  C   C21       1.0  0.83407  0.80063  0.55262  1.0000
  C   C22       1.0  0.16593  0.19937  0.44738  1.0000
  C   C23       1.0  0.82067  0.93834  0.65398  1.0000
  C   C24       1.0  0.17933  0.06166  0.34602  1.0000
  C   C25       1.0  0.57151  0.63895  0.91373  1.0000
  C   C26       1.0  0.42849  0.36105  0.08627  1.0000
  C   C27       1.0  0.43742  0.71859  0.96547  1.0000
  C   C28       1.0  0.56258  0.28141  0.03453  1.0000
  C   C29       1.0  0.30597  0.04949  0.75449  1.0000
  C   C30       1.0  0.69403  0.95051  0.24551  1.0000
  C   C31       1.0  0.39072  0.12448  0.65159  1.0000
  C   C32       1.0  0.60928  0.87552  0.34841  1.0000
  C   C33       1.0  0.48080  0.18963  0.65845  1.0000
  C   C34       1.0  0.51920  0.81037  0.34155  1.0000
  C   C35       1.0  0.48544  0.17393  0.76944  1.0000
  C   C36       1.0  0.51456  0.82607  0.23056  1.0000
  C   C37       1.0  0.39755  0.09581  0.86836  1.0000
  C   C38       1.0  0.60245  0.90419  0.13164  1.0000
  C   C39       1.0  0.56446  0.27218  0.54355  1.0000
  C   C40       1.0  0.43554  0.72782  0.45645  1.0000
  C   C41       1.0  0.76300  0.50730  0.46725  1.0000
  C   C42       1.0  0.23701  0.49270  0.53275  1.0000
  C   C43       1.0  0.85469  0.58950  0.36441  1.0000
  C   C44       1.0  0.14531  0.41050  0.63559  1.0000
  C   C45       1.0  0.95036  0.64230  0.38047  1.0000
  C   C46       1.0  0.04964  0.35770  0.61953  1.0000
  C   C47       1.0  0.03943  0.71997  0.28338  1.0000
  C   C48       1.0  0.96057  0.28003  0.71662  1.0000
  C   C49       1.0  0.94789  0.69488  0.15667  1.0000
  C   C50       1.0  0.05211  0.30512  0.84333  1.0000
  C   C51       1.0  0.85492  0.61644  0.24884  1.0000
  C   C52       1.0  0.14508  0.38356  0.75116  1.0000
  N   N1        1.0  0.30894  0.03610  0.86081  1.0000
  N   N2        1.0  0.69106  0.96390  0.13918  1.0000
  N   N3        1.0  0.62416  0.35688  0.55212  1.0000
  N   N4        1.0  0.37584  0.64312  0.44788  1.0000
  N   N5        1.0  0.70115  0.43573  0.45481  1.0000
  N   N6        1.0  0.29885  0.56427  0.54519  1.0000
  N   N7        1.0  0.03785  0.74634  0.17344  1.0000
  N   N8        1.0  0.96215  0.25366  0.82656  1.0000
  O   O1        1.0  0.99158  0.95065  0.92182  1.0000
  O   O2        1.0  0.00842  0.04935  0.07818  1.0000
  O   O3        1.0  0.80765  0.03403  0.83770  1.0000
  O   O4        1.0  0.19236  0.96597  0.16230  1.0000
  O   O5        1.0  0.44330  0.76003  0.03762  1.0000
  O   O6        1.0  0.55670  0.23997  0.96238  1.0000
  O   O7        1.0  0.32211  0.74369  0.93052  1.0000
  O   O8        1.0  0.67789  0.25631  0.06948  1.0000
  O   O9        1.0  0.57626  0.26736  0.44910  1.0000
  O   O10       1.0  0.42375  0.73264  0.55090  1.0000
