data_image0
_chemical_formula_structural       Ni2H44C54N8Cl4O10
_chemical_formula_sum              "Ni2 H44 C54 N8 Cl4 O10"
_cell_length_a       9.46095
_cell_length_b       11.823
_cell_length_c       12.798
_cell_angle_alpha    67.519
_cell_angle_beta     76.9106
_cell_angle_gamma    74.7735

_space_group_name_H-M_alt    "P 1"
_space_group_IT_number       1

loop_
  _space_group_symop_operation_xyz
  'x, y, z'

loop_
  _atom_site_type_symbol
  _atom_site_label
  _atom_site_symmetry_multiplicity
  _atom_site_fract_x
  _atom_site_fract_y
  _atom_site_fract_z
  _atom_site_occupancy
  Ni  Ni1       1.0  0.50913  0.61089  0.77640  1.0000
  Ni  Ni2       1.0  0.49093  0.38903  0.22365  1.0000
  H   H1        1.0  0.77759  0.03258  0.87780  1.0000
  H   H2        1.0  0.22241  0.96742  0.12220  1.0000
  H   H3        1.0  0.18276  0.78569  0.80895  1.0000
  H   H4        1.0  0.81725  0.21431  0.19104  1.0000
  H   H5        1.0  0.03818  0.63108  0.82180  1.0000
  H   H6        1.0  0.96182  0.36892  0.17820  1.0000
  H   H7        1.0  0.30681  0.06994  0.77955  1.0000
  H   H8        1.0  0.69319  0.93006  0.22045  1.0000
  H   H9        1.0  0.93304  0.28778  0.92445  1.0000
  H   H10       1.0  0.06696  0.71222  0.07555  1.0000
  H   H11       1.0  0.09218  0.43176  0.91196  1.0000
  H   H12       1.0  0.90783  0.56824  0.08804  1.0000
  H   H13       1.0  0.94265  0.29651  0.69794  1.0000
  H   H14       1.0  0.05734  0.70350  0.30206  1.0000
  H   H15       1.0  0.76017  0.41677  0.80725  1.0000
  H   H16       1.0  0.23983  0.58322  0.19275  1.0000
  H   H17       1.0  0.55902  0.64497  0.52173  1.0000
  H   H18       1.0  0.44097  0.35504  0.47826  1.0000
  H   H19       1.0  0.73396  0.53402  0.39958  1.0000
  H   H20       1.0  0.26603  0.46598  0.60043  1.0000
  H   H21       1.0  0.04240  0.40114  0.40729  1.0000
  H   H22       1.0  0.95759  0.59886  0.59271  1.0000
  H   H23       1.0  0.91081  0.32136  0.40811  1.0000
  H   H24       1.0  0.08919  0.67864  0.59189  1.0000
  H   H25       1.0  0.13041  0.23299  0.58084  1.0000
  H   H26       1.0  0.86959  0.76701  0.41916  1.0000
  H   H27       1.0  0.98957  0.15384  0.59648  1.0000
  H   H28       1.0  0.01042  0.84616  0.40352  1.0000
  H   H29       1.0  0.09512  0.12951  0.40317  1.0000
  H   H30       1.0  0.90488  0.87050  0.59683  1.0000
  H   H31       1.0  0.23827  0.20455  0.39262  1.0000
  H   H32       1.0  0.76173  0.79545  0.60738  1.0000
  H   H33       1.0  0.16860  0.90852  0.45817  1.0000
  H   H34       1.0  0.83139  0.09148  0.54183  1.0000
  H   H35       1.0  0.31132  0.70810  0.57762  1.0000
  H   H36       1.0  0.68868  0.29191  0.42238  1.0000
  H   H37       1.0  0.49978  0.89263  0.71005  1.0000
  H   H38       1.0  0.50022  0.10737  0.28995  1.0000
  H   H39       1.0  0.36573  0.10016  0.59693  1.0000
  H   H40       1.0  0.63426  0.89985  0.40307  1.0000
  H   H41       1.0  0.33390  0.56842  0.97189  1.0000
  H   H42       1.0  0.66612  0.43159  0.02809  1.0000
  H   H43       1.0  0.44497  0.64541  0.97267  1.0000
  H   H44       1.0  0.55503  0.35460  0.02730  1.0000
  C   C1        1.0  0.74387  0.64857  0.86167  1.0000
  C   C2        1.0  0.25614  0.35143  0.13832  1.0000
  C   C3        1.0  0.82632  0.74444  0.85528  1.0000
  C   C4        1.0  0.17369  0.25557  0.14472  1.0000
  C   C5        1.0  0.75390  0.85929  0.87010  1.0000
  C   C6        1.0  0.24610  0.14071  0.12990  1.0000
  C   C7        1.0  0.83353  0.94564  0.86344  1.0000
  C   C8        1.0  0.16647  0.05437  0.13656  1.0000
  C   C9        1.0  0.98874  0.91860  0.84036  1.0000
  C   C10       1.0  0.01125  0.08140  0.15964  1.0000
  C   C11       1.0  0.06245  0.80582  0.82391  1.0000
  C   C12       1.0  0.93755  0.19418  0.17609  1.0000
  C   C13       1.0  0.98119  0.71973  0.83243  1.0000
  C   C14       1.0  0.01881  0.28027  0.16757  1.0000
  C   C15       1.0  0.38638  0.41590  0.83574  1.0000
  C   C16       1.0  0.61362  0.58409  0.16427  1.0000
  C   C17       1.0  0.28875  0.33458  0.83602  1.0000
  C   C18       1.0  0.71125  0.66541  0.16399  1.0000
  C   C19       1.0  0.34742  0.23365  0.79611  1.0000
  C   C20       1.0  0.65258  0.76635  0.20389  1.0000
  C   C21       1.0  0.26173  0.15052  0.80646  1.0000
  C   C22       1.0  0.73827  0.84948  0.19354  1.0000
  C   C23       1.0  0.11153  0.17048  0.85295  1.0000
  C   C24       1.0  0.88847  0.82952  0.14705  1.0000
  C   C25       1.0  0.04945  0.27368  0.88831  1.0000
  C   C26       1.0  0.95055  0.72632  0.11169  1.0000
  C   C27       1.0  0.13829  0.35432  0.88036  1.0000
  C   C28       1.0  0.86171  0.64568  0.11964  1.0000
  C   C29       1.0  0.86084  0.37331  0.65378  1.0000
  C   C30       1.0  0.13914  0.62671  0.34622  1.0000
  C   C31       1.0  0.75856  0.43975  0.71663  1.0000
  C   C32       1.0  0.24143  0.56025  0.28338  1.0000
  C   C33       1.0  0.64620  0.56725  0.55755  1.0000
  C   C34       1.0  0.35378  0.43276  0.44246  1.0000
  C   C35       1.0  0.74520  0.50483  0.48962  1.0000
  C   C36       1.0  0.25479  0.49518  0.51040  1.0000
  C   C37       1.0  0.85736  0.40500  0.53716  1.0000
  C   C38       1.0  0.14263  0.59500  0.46285  1.0000
  C   C39       1.0  0.96873  0.33744  0.46527  1.0000
  C   C40       1.0  0.03127  0.66256  0.53474  1.0000
  C   C41       1.0  0.06199  0.21471  0.53221  1.0000
  C   C42       1.0  0.93801  0.78529  0.46779  1.0000
  C   C43       1.0  0.16232  0.14527  0.45430  1.0000
  C   C44       1.0  0.83768  0.85473  0.54570  1.0000
  C   C45       1.0  0.25077  0.02256  0.51983  1.0000
  C   C46       1.0  0.74922  0.97744  0.48017  1.0000
  C   C47       1.0  0.24001  0.90943  0.51367  1.0000
  C   C48       1.0  0.75997  0.09057  0.48632  1.0000
  C   C49       1.0  0.32046  0.79766  0.57898  1.0000
  C   C50       1.0  0.67953  0.20235  0.42101  1.0000
  C   C51       1.0  0.42469  0.90042  0.65329  1.0000
  C   C52       1.0  0.57530  0.09959  0.34670  1.0000
  C   C53       1.0  0.34813  0.01562  0.59071  1.0000
  C   C54       1.0  0.65186  0.98439  0.40928  1.0000
  N   N1        1.0  0.08064  0.99732  0.83477  1.0000
  N   N2        1.0  0.91936  0.00269  0.16523  1.0000
  N   N3        1.0  0.01562  0.09248  0.86243  1.0000
  N   N4        1.0  0.98438  0.90752  0.13757  1.0000
  N   N5        1.0  0.65228  0.53605  0.66982  1.0000
  N   N6        1.0  0.34771  0.46395  0.33019  1.0000
  N   N7        1.0  0.41099  0.79192  0.64888  1.0000
  N   N8        1.0  0.58902  0.20809  0.35110  1.0000
  Cl  Cl1       1.0  0.56338  0.89346  0.90454  1.0000
  Cl  Cl2       1.0  0.43663  0.10654  0.09546  1.0000
  Cl  Cl3       1.0  0.52859  0.21640  0.72715  1.0000
  Cl  Cl4       1.0  0.47141  0.78359  0.27285  1.0000
  O   O1        1.0  0.65096  0.69233  0.78940  1.0000
  O   O2        1.0  0.34906  0.30765  0.21060  1.0000
  O   O3        1.0  0.77302  0.53893  0.92999  1.0000
  O   O4        1.0  0.22699  0.46107  0.07001  1.0000
  O   O5        1.0  0.48658  0.37098  0.89779  1.0000
  O   O6        1.0  0.51342  0.62901  0.10222  1.0000
  O   O7        1.0  0.35952  0.53054  0.76813  1.0000
  O   O8        1.0  0.64049  0.46944  0.23188  1.0000
  O   O9        1.0  0.38752  0.63678  0.92144  1.0000
  O   O10       1.0  0.61250  0.36323  0.07854  1.0000
