data_image0
_chemical_formula_structural       Li2Al2H46C40N6O4
_chemical_formula_sum              "Li2 Al2 H46 C40 N6 O4"
_cell_length_a       9.41048
_cell_length_b       10.8978
_cell_length_c       13.7318
_cell_angle_alpha    104.042
_cell_angle_beta     100.506
_cell_angle_gamma    102.587

_space_group_name_H-M_alt    "P 1"
_space_group_IT_number       1

loop_
  _space_group_symop_operation_xyz
  'x, y, z'

loop_
  _atom_site_type_symbol
  _atom_site_label
  _atom_site_symmetry_multiplicity
  _atom_site_fract_x
  _atom_site_fract_y
  _atom_site_fract_z
  _atom_site_occupancy
  Li  Li1       1.0  0.43374  0.93504  0.73434  1.0000
  Li  Li2       1.0  0.56626  0.06496  0.26567  1.0000
  Al  Al1       1.0  0.25708  0.13859  0.77382  1.0000
  Al  Al2       1.0  0.74292  0.86140  0.22618  1.0000
  H   H1        1.0  0.97068  0.07717  0.76317  1.0000
  H   H2        1.0  0.02932  0.92282  0.23683  1.0000
  H   H3        1.0  0.06716  0.01220  0.85040  1.0000
  H   H4        1.0  0.93284  0.98780  0.14960  1.0000
  H   H5        1.0  0.16998  0.24021  0.98206  1.0000
  H   H6        1.0  0.83002  0.75979  0.01794  1.0000
  H   H7        1.0  0.97080  0.19463  0.94784  1.0000
  H   H8        1.0  0.02920  0.80536  0.05216  1.0000
  H   H9        1.0  0.07302  0.30681  0.89478  1.0000
  H   H10       1.0  0.92698  0.69319  0.10522  1.0000
  H   H11       1.0  0.07402  0.32421  0.72680  1.0000
  H   H12       1.0  0.92598  0.67579  0.27320  1.0000
  H   H13       1.0  0.10301  0.27859  0.60068  1.0000
  H   H14       1.0  0.89699  0.72140  0.39932  1.0000
  H   H15       1.0  0.01644  0.52109  0.67184  1.0000
  H   H16       1.0  0.98356  0.47891  0.32815  1.0000
  H   H17       1.0  0.13741  0.75784  0.69354  1.0000
  H   H18       1.0  0.86260  0.24215  0.30646  1.0000
  H   H19       1.0  0.56156  0.70063  0.73355  1.0000
  H   H20       1.0  0.43844  0.29937  0.26645  1.0000
  H   H21       1.0  0.45819  0.46096  0.71914  1.0000
  H   H22       1.0  0.54181  0.53904  0.28086  1.0000
  H   H23       1.0  0.07445  0.98579  0.57131  1.0000
  H   H24       1.0  0.92555  0.01421  0.42869  1.0000
  H   H25       1.0  0.13092  0.83911  0.55447  1.0000
  H   H26       1.0  0.86907  0.16089  0.44552  1.0000
  H   H27       1.0  0.15389  0.79466  0.37992  1.0000
  H   H28       1.0  0.84611  0.20534  0.62008  1.0000
  H   H29       1.0  0.29181  0.85860  0.25291  1.0000
  H   H30       1.0  0.70820  0.14140  0.74709  1.0000
  H   H31       1.0  0.37902  0.17980  0.59328  1.0000
  H   H32       1.0  0.62098  0.82020  0.40672  1.0000
  H   H33       1.0  0.51082  0.22745  0.45781  1.0000
  H   H34       1.0  0.48917  0.77256  0.54220  1.0000
  H   H35       1.0  0.46476  0.37508  0.96500  1.0000
  H   H36       1.0  0.53524  0.62493  0.03500  1.0000
  H   H37       1.0  0.70042  0.40037  0.09573  1.0000
  H   H38       1.0  0.29958  0.59963  0.90427  1.0000
  H   H39       1.0  0.81313  0.21057  0.08250  1.0000
  H   H40       1.0  0.18687  0.78944  0.91750  1.0000
  H   H41       1.0  0.62480  0.88474  0.93368  1.0000
  H   H42       1.0  0.37520  0.11526  0.06632  1.0000
  H   H43       1.0  0.81004  0.99023  0.99072  1.0000
  H   H44       1.0  0.18996  0.00978  0.00928  1.0000
  H   H45       1.0  0.73345  0.94754  0.85458  1.0000
  H   H46       1.0  0.26656  0.05246  0.14542  1.0000
  C   C1        1.0  0.07327  0.10238  0.82596  1.0000
  C   C2        1.0  0.92673  0.89761  0.17404  1.0000
  C   C3        1.0  0.07069  0.21585  0.91701  1.0000
  C   C4        1.0  0.92931  0.78414  0.08299  1.0000
  C   C5        1.0  0.16306  0.32881  0.68360  1.0000
  C   C6        1.0  0.83694  0.67118  0.31640  1.0000
  C   C7        1.0  0.22934  0.47164  0.69251  1.0000
  C   C8        1.0  0.77066  0.52836  0.30749  1.0000
  C   C9        1.0  0.13816  0.55644  0.68462  1.0000
  C   C10       1.0  0.86184  0.44356  0.31537  1.0000
  C   C11       1.0  0.20448  0.68796  0.69609  1.0000
  C   C12       1.0  0.79552  0.31204  0.30390  1.0000
  C   C13       1.0  0.44085  0.65659  0.71935  1.0000
  C   C14       1.0  0.55915  0.34341  0.28064  1.0000
  C   C15       1.0  0.38439  0.52404  0.71039  1.0000
  C   C16       1.0  0.61561  0.47596  0.28960  1.0000
  C   C17       1.0  0.17491  0.94754  0.57709  1.0000
  C   C18       1.0  0.82509  0.05246  0.42291  1.0000
  C   C19       1.0  0.25541  0.98262  0.49745  1.0000
  C   C20       1.0  0.74459  0.01738  0.50256  1.0000
  C   C21       1.0  0.23120  0.89256  0.40019  1.0000
  C   C22       1.0  0.76880  0.10745  0.59981  1.0000
  C   C23       1.0  0.30786  0.92769  0.32906  1.0000
  C   C24       1.0  0.69215  0.07231  0.67094  1.0000
  C   C25       1.0  0.35714  0.10618  0.51854  1.0000
  C   C26       1.0  0.64285  0.89382  0.48146  1.0000
  C   C27       1.0  0.42921  0.13258  0.44306  1.0000
  C   C28       1.0  0.57079  0.86742  0.55695  1.0000
  C   C29       1.0  0.45052  0.17596  0.87985  1.0000
  C   C30       1.0  0.54948  0.82404  0.12015  1.0000
  C   C31       1.0  0.51683  0.29421  0.96036  1.0000
  C   C32       1.0  0.48317  0.70579  0.03964  1.0000
  C   C33       1.0  0.64813  0.30875  0.03336  1.0000
  C   C34       1.0  0.35187  0.69125  0.96664  1.0000
  C   C35       1.0  0.71146  0.20349  0.02613  1.0000
  C   C36       1.0  0.28854  0.79651  0.97387  1.0000
  C   C37       1.0  0.64327  0.08765  0.94468  1.0000
  C   C38       1.0  0.35673  0.91235  0.05532  1.0000
  C   C39       1.0  0.70714  0.97155  0.93066  1.0000
  C   C40       1.0  0.29286  0.02846  0.06934  1.0000
  N   N1        1.0  0.35382  0.73855  0.71294  1.0000
  N   N2        1.0  0.64619  0.26145  0.28705  1.0000
  N   N3        1.0  0.40679  0.04565  0.34956  1.0000
  N   N4        1.0  0.59322  0.95435  0.65045  1.0000
  N   N5        1.0  0.51702  0.07549  0.87360  1.0000
  N   N6        1.0  0.48298  0.92451  0.12640  1.0000
  O   O1        1.0  0.27133  0.27014  0.71766  1.0000
  O   O2        1.0  0.72867  0.72986  0.28234  1.0000
  O   O3        1.0  0.26672  0.99521  0.67864  1.0000
  O   O4        1.0  0.73327  0.00479  0.32136  1.0000
