data_image0
_chemical_formula_structural       Cu2H46C46N10O8
_chemical_formula_sum              "Cu2 H46 C46 N10 O8"
_cell_length_a       8.51396
_cell_length_b       10.763
_cell_length_c       16.3381
_cell_angle_alpha    82.3898
_cell_angle_beta     74.908
_cell_angle_gamma    66.702

_space_group_name_H-M_alt    "P 1"
_space_group_IT_number       1

loop_
  _space_group_symop_operation_xyz
  'x, y, z'

loop_
  _atom_site_type_symbol
  _atom_site_label
  _atom_site_symmetry_multiplicity
  _atom_site_fract_x
  _atom_site_fract_y
  _atom_site_fract_z
  _atom_site_occupancy
  Cu  Cu1       1.0  1.00000  1.00000  0.50000  1.0000
  Cu  Cu2       1.0  0.50000  0.50000  0.00000  1.0000
  H   H1        1.0  0.13608  0.23884  0.54881  1.0000
  H   H2        1.0  0.92317  0.26145  0.95124  1.0000
  H   H3        1.0  0.86392  0.76116  0.45119  1.0000
  H   H4        1.0  0.07683  0.73855  0.04876  1.0000
  H   H5        1.0  0.73452  0.04380  0.66370  1.0000
  H   H6        1.0  0.44175  0.45617  0.83632  1.0000
  H   H7        1.0  0.26548  0.95620  0.33630  1.0000
  H   H8        1.0  0.55825  0.54383  0.16368  1.0000
  H   H9        1.0  0.40875  0.13701  0.71283  1.0000
  H   H10       1.0  0.25824  0.36298  0.78724  1.0000
  H   H11       1.0  0.59125  0.86299  0.28717  1.0000
  H   H12       1.0  0.74176  0.63701  0.21277  1.0000
  H   H13       1.0  0.38453  0.21277  0.44862  1.0000
  H   H14       1.0  0.04522  0.28775  0.05146  1.0000
  H   H15       1.0  0.61547  0.78723  0.55137  1.0000
  H   H16       1.0  0.95478  0.71225  0.94854  1.0000
  H   H17       1.0  0.71144  0.12275  0.41139  1.0000
  H   H18       1.0  0.24519  0.37749  0.08866  1.0000
  H   H19       1.0  0.28856  0.87725  0.58861  1.0000
  H   H20       1.0  0.75481  0.62251  0.91134  1.0000
  H   H21       1.0  0.87348  0.23815  0.61290  1.0000
  H   H22       1.0  0.72424  0.26195  0.88699  1.0000
  H   H23       1.0  0.12652  0.76185  0.38710  1.0000
  H   H24       1.0  0.27576  0.73805  0.11301  1.0000
  H   H25       1.0  0.64832  0.25002  0.74990  1.0000
  H   H26       1.0  0.35169  0.74998  0.25010  1.0000
  H   H27       1.0  0.11301  0.75478  0.74454  1.0000
  H   H28       1.0  0.61259  0.74495  0.75531  1.0000
  H   H29       1.0  0.88699  0.24522  0.25546  1.0000
  H   H30       1.0  0.38741  0.25505  0.24469  1.0000
  H   H31       1.0  0.01196  0.64306  0.80269  1.0000
  H   H32       1.0  0.45788  0.85666  0.69724  1.0000
  H   H33       1.0  0.98804  0.35694  0.19731  1.0000
  H   H34       1.0  0.54212  0.14334  0.30276  1.0000
  H   H35       1.0  0.88394  0.81590  0.78152  1.0000
  H   H36       1.0  0.48154  0.68382  0.71838  1.0000
  H   H37       1.0  0.11606  0.18410  0.21848  1.0000
  H   H38       1.0  0.51846  0.31618  0.28162  1.0000
  H   H39       1.0  0.94558  0.50404  0.72208  1.0000
  H   H40       1.0  0.17206  0.99579  0.77801  1.0000
  H   H41       1.0  0.05442  0.49596  0.27792  1.0000
  H   H42       1.0  0.82794  0.00420  0.22199  1.0000
  H   H43       1.0  0.94247  0.54914  0.60781  1.0000
  H   H44       1.0  0.10002  0.95058  0.89227  1.0000
  H   H45       1.0  0.05752  0.45086  0.39220  1.0000
  H   H46       1.0  0.89998  0.04941  0.10773  1.0000
  C   C1        1.0  0.65137  0.08460  0.61828  1.0000
  C   C2        1.0  0.35384  0.41552  0.88176  1.0000
  C   C3        1.0  0.34863  0.91540  0.38172  1.0000
  C   C4        1.0  0.64616  0.58447  0.11824  1.0000
  C   C5        1.0  0.47015  0.13585  0.64557  1.0000
  C   C6        1.0  0.25109  0.36430  0.85450  1.0000
  C   C7        1.0  0.52986  0.86415  0.35443  1.0000
  C   C8        1.0  0.74891  0.63570  0.14550  1.0000
  C   C9        1.0  0.36661  0.18320  0.58460  1.0000
  C   C10       1.0  0.13384  0.31709  0.91548  1.0000
  C   C11       1.0  0.63339  0.81681  0.41540  1.0000
  C   C12       1.0  0.86617  0.68291  0.08452  1.0000
  C   C13       1.0  0.45769  0.17815  0.49841  1.0000
  C   C14       1.0  0.13362  0.32226  0.00166  1.0000
  C   C15       1.0  0.54231  0.82185  0.50159  1.0000
  C   C16       1.0  0.86638  0.67774  0.99834  1.0000
  C   C17       1.0  0.63866  0.12724  0.47721  1.0000
  C   C18       1.0  0.24268  0.37301  0.02284  1.0000
  C   C19       1.0  0.36134  0.87276  0.52279  1.0000
  C   C20       1.0  0.75732  0.62699  0.97716  1.0000
  C   C21       1.0  0.06413  0.23995  0.67769  1.0000
  C   C22       1.0  0.98149  0.26013  0.82235  1.0000
  C   C23       1.0  0.93587  0.76005  0.32231  1.0000
  C   C24       1.0  0.01852  0.73987  0.17765  1.0000
  C   C25       1.0  0.89937  0.24309  0.67396  1.0000
  C   C26       1.0  0.81621  0.25703  0.82596  1.0000
  C   C27       1.0  0.10062  0.75691  0.32604  1.0000
  C   C28       1.0  0.18379  0.74298  0.17404  1.0000
  C   C29       1.0  0.77627  0.25006  0.74994  1.0000
  C   C30       1.0  0.22373  0.74994  0.25007  1.0000
  C   C31       1.0  0.98833  0.77962  0.59781  1.0000
  C   C32       1.0  0.36634  0.71995  0.90208  1.0000
  C   C33       1.0  0.01167  0.22038  0.40219  1.0000
  C   C34       1.0  0.63366  0.28005  0.09791  1.0000
  C   C35       1.0  0.98066  0.68661  0.67447  1.0000
  C   C36       1.0  0.34216  0.81309  0.82550  1.0000
  C   C37       1.0  0.01933  0.31340  0.32554  1.0000
  C   C38       1.0  0.65784  0.18691  0.17450  1.0000
  C   C39       1.0  0.99862  0.72647  0.75509  1.0000
  C   C40       1.0  0.48039  0.77323  0.74482  1.0000
  C   C41       1.0  0.00138  0.27353  0.24491  1.0000
  C   C42       1.0  0.51961  0.22676  0.25518  1.0000
  C   C43       1.0  0.95460  0.57366  0.66791  1.0000
  C   C44       1.0  0.19667  0.92610  0.83214  1.0000
  C   C45       1.0  0.04539  0.42633  0.33209  1.0000
  C   C46       1.0  0.80334  0.07389  0.16786  1.0000
  N   N1        1.0  0.73738  0.07958  0.53585  1.0000
  N   N2        1.0  0.35249  0.42054  0.96419  1.0000
  N   N3        1.0  0.26262  0.92042  0.46415  1.0000
  N   N4        1.0  0.64751  0.57946  0.03581  1.0000
  N   N5        1.0  0.18765  0.22783  0.60123  1.0000
  N   N6        1.0  0.01621  0.27238  0.89885  1.0000
  N   N7        1.0  0.81235  0.77218  0.39877  1.0000
  N   N8        1.0  0.98379  0.72762  0.10115  1.0000
  N   N9        1.0  0.10474  0.25000  0.75006  1.0000
  N   N10       1.0  0.89527  0.75000  0.24994  1.0000
  O   O1        1.0  0.00893  0.88913  0.60828  1.0000
  O   O2        1.0  0.50690  0.61046  0.89160  1.0000
  O   O3        1.0  0.99107  0.11087  0.39172  1.0000
  O   O4        1.0  0.49310  0.38954  0.10840  1.0000
  O   O5        1.0  0.97414  0.75164  0.52835  1.0000
  O   O6        1.0  0.25476  0.74785  0.97157  1.0000
  O   O7        1.0  0.02587  0.24836  0.47165  1.0000
  O   O8        1.0  0.74524  0.25215  0.02843  1.0000
