data_image0
_chemical_formula_structural       K4H28C28N32O16
_chemical_formula_sum              "K4 H28 C28 N32 O16"
_cell_length_a       9.33906
_cell_length_b       9.38415
_cell_length_c       13.8834
_cell_angle_alpha    90
_cell_angle_beta     90
_cell_angle_gamma    111.216

_space_group_name_H-M_alt    "P 1"
_space_group_IT_number       1

loop_
  _space_group_symop_operation_xyz
  'x, y, z'

loop_
  _atom_site_type_symbol
  _atom_site_label
  _atom_site_symmetry_multiplicity
  _atom_site_fract_x
  _atom_site_fract_y
  _atom_site_fract_z
  _atom_site_occupancy
  K   K1        1.0  0.42362  0.26762  0.01498  1.0000
  K   K2        1.0  0.07638  0.73239  0.51499  1.0000
  K   K3        1.0  0.57638  0.73239  0.98501  1.0000
  K   K4        1.0  0.92361  0.26761  0.48501  1.0000
  H   H1        1.0  0.18026  0.58783  0.11994  1.0000
  H   H2        1.0  0.31974  0.41217  0.61994  1.0000
  H   H3        1.0  0.81974  0.41217  0.88006  1.0000
  H   H4        1.0  0.68026  0.58783  0.38006  1.0000
  H   H5        1.0  0.06363  0.26415  0.06152  1.0000
  H   H6        1.0  0.43637  0.73585  0.56152  1.0000
  H   H7        1.0  0.93637  0.73585  0.93848  1.0000
  H   H8        1.0  0.56363  0.26414  0.43848  1.0000
  H   H9        1.0  0.02901  0.31057  0.18121  1.0000
  H   H10       1.0  0.47099  0.68943  0.68121  1.0000
  H   H11       1.0  0.97099  0.68943  0.81879  1.0000
  H   H12       1.0  0.52901  0.31057  0.31879  1.0000
  H   H13       1.0  0.88894  0.29391  0.08911  1.0000
  H   H14       1.0  0.61106  0.70609  0.58911  1.0000
  H   H15       1.0  0.11106  0.70609  0.91089  1.0000
  H   H16       1.0  0.38894  0.29391  0.41089  1.0000
  H   H17       1.0  0.69411  0.92503  0.19418  1.0000
  H   H18       1.0  0.80589  0.07497  0.69418  1.0000
  H   H19       1.0  0.30589  0.07497  0.80582  1.0000
  H   H20       1.0  0.19411  0.92503  0.30582  1.0000
  H   H21       1.0  0.66450  0.05860  0.11225  1.0000
  H   H22       1.0  0.83550  0.94140  0.61225  1.0000
  H   H23       1.0  0.33550  0.94140  0.88775  1.0000
  H   H24       1.0  0.16450  0.05860  0.38775  1.0000
  H   H25       1.0  0.73346  0.11954  0.23057  1.0000
  H   H26       1.0  0.76654  0.88046  0.73057  1.0000
  H   H27       1.0  0.26654  0.88046  0.76943  1.0000
  H   H28       1.0  0.23346  0.11954  0.26943  1.0000
  C   C1        1.0  0.20564  0.70882  0.10852  1.0000
  C   C2        1.0  0.29436  0.29118  0.60852  1.0000
  C   C3        1.0  0.79436  0.29118  0.89148  1.0000
  C   C4        1.0  0.70564  0.70882  0.39148  1.0000
  C   C5        1.0  0.18145  0.93384  0.09686  1.0000
  C   C6        1.0  0.31855  0.06616  0.59686  1.0000
  C   C7        1.0  0.81855  0.06616  0.90314  1.0000
  C   C8        1.0  0.68145  0.93384  0.40314  1.0000
  C   C9        1.0  0.97000  0.98898  0.13114  1.0000
  C   C10       1.0  0.53000  0.01102  0.63114  1.0000
  C   C11       1.0  0.03000  0.01102  0.86886  1.0000
  C   C12       1.0  0.47000  0.98898  0.36886  1.0000
  C   C13       1.0  0.95289  0.73894  0.15514  1.0000
  C   C14       1.0  0.54711  0.26106  0.65514  1.0000
  C   C15       1.0  0.04711  0.26106  0.84486  1.0000
  C   C16       1.0  0.45289  0.73894  0.34486  1.0000
  C   C17       1.0  0.86861  0.57985  0.18532  1.0000
  C   C18       1.0  0.63139  0.42015  0.68532  1.0000
  C   C19       1.0  0.13139  0.42015  0.81468  1.0000
  C   C20       1.0  0.36861  0.57985  0.31468  1.0000
  C   C21       1.0  0.97436  0.24857  0.11572  1.0000
  C   C22       1.0  0.52564  0.75143  0.61572  1.0000
  C   C23       1.0  0.02564  0.75143  0.88428  1.0000
  C   C24       1.0  0.47436  0.24857  0.38428  1.0000
  C   C25       1.0  0.73724  0.04424  0.17089  1.0000
  C   C26       1.0  0.76276  0.95576  0.67089  1.0000
  C   C27       1.0  0.26276  0.95576  0.82911  1.0000
  C   C28       1.0  0.23724  0.04424  0.32911  1.0000
  N   N1        1.0  0.10237  0.78073  0.12297  1.0000
  N   N2        1.0  0.39763  0.21928  0.62297  1.0000
  N   N3        1.0  0.89763  0.21928  0.87703  1.0000
  N   N4        1.0  0.60237  0.78072  0.37703  1.0000
  N   N5        1.0  0.11648  0.03944  0.10027  1.0000
  N   N6        1.0  0.38352  0.96055  0.60027  1.0000
  N   N7        1.0  0.88352  0.96055  0.89973  1.0000
  N   N8        1.0  0.61648  0.03944  0.39973  1.0000
  N   N9        1.0  0.32339  0.95102  0.06965  1.0000
  N   N10       1.0  0.17661  0.04898  0.56965  1.0000
  N   N11       1.0  0.67661  0.04898  0.93035  1.0000
  N   N12       1.0  0.82339  0.95102  0.43035  1.0000
  N   N13       1.0  0.88737  0.83959  0.15872  1.0000
  N   N14       1.0  0.61263  0.16041  0.65872  1.0000
  N   N15       1.0  0.11263  0.16041  0.84128  1.0000
  N   N16       1.0  0.38737  0.83959  0.34128  1.0000
  N   N17       1.0  0.33576  0.80873  0.07652  1.0000
  N   N18       1.0  0.16424  0.19127  0.57652  1.0000
  N   N19       1.0  0.66424  0.19127  0.92348  1.0000
  N   N20       1.0  0.83576  0.80873  0.42348  1.0000
  N   N21       1.0  0.74717  0.48920  0.12916  1.0000
  N   N22       1.0  0.75283  0.51081  0.62916  1.0000
  N   N23       1.0  0.25283  0.51080  0.87084  1.0000
  N   N24       1.0  0.24717  0.48919  0.37084  1.0000
  N   N25       1.0  0.90745  0.53508  0.27411  1.0000
  N   N26       1.0  0.59255  0.46492  0.77411  1.0000
  N   N27       1.0  0.09255  0.46492  0.72589  1.0000
  N   N28       1.0  0.40745  0.53508  0.22589  1.0000
  N   N29       1.0  0.89518  0.08730  0.13717  1.0000
  N   N30       1.0  0.60482  0.91270  0.63717  1.0000
  N   N31       1.0  0.10482  0.91270  0.86283  1.0000
  N   N32       1.0  0.39518  0.08730  0.36283  1.0000
  O   O1        1.0  0.73630  0.54107  0.04569  1.0000
  O   O2        1.0  0.76370  0.45893  0.54569  1.0000
  O   O3        1.0  0.26369  0.45893  0.95431  1.0000
  O   O4        1.0  0.23630  0.54107  0.45431  1.0000
  O   O5        1.0  0.65483  0.36255  0.15732  1.0000
  O   O6        1.0  0.84517  0.63745  0.65732  1.0000
  O   O7        1.0  0.34517  0.63745  0.84268  1.0000
  O   O8        1.0  0.15483  0.36255  0.34268  1.0000
  O   O9        1.0  0.83591  0.40770  0.31144  1.0000
  O   O10       1.0  0.66409  0.59230  0.81144  1.0000
  O   O11       1.0  0.16409  0.59230  0.68856  1.0000
  O   O12       1.0  0.33591  0.40770  0.18856  1.0000
  O   O13       1.0  0.02273  0.63441  0.31445  1.0000
  O   O14       1.0  0.47727  0.36560  0.81445  1.0000
  O   O15       1.0  0.97727  0.36560  0.68555  1.0000
  O   O16       1.0  0.52273  0.63440  0.18555  1.0000
