data_image0
_chemical_formula_structural       Zn2H36C44N8O8
_chemical_formula_sum              "Zn2 H36 C44 N8 O8"
_cell_length_a       9.65083
_cell_length_b       9.66064
_cell_length_c       11.858
_cell_angle_alpha    108.472
_cell_angle_beta     103.392
_cell_angle_gamma    92.3569

_space_group_name_H-M_alt    "P 1"
_space_group_IT_number       1

loop_
  _space_group_symop_operation_xyz
  'x, y, z'

loop_
  _atom_site_type_symbol
  _atom_site_label
  _atom_site_symmetry_multiplicity
  _atom_site_fract_x
  _atom_site_fract_y
  _atom_site_fract_z
  _atom_site_occupancy
  Zn  Zn1       1.0  0.47588  0.09951  0.24641  1.0000
  Zn  Zn2       1.0  0.52412  0.90049  0.75359  1.0000
  H   H1        1.0  0.02434  0.98934  0.29360  1.0000
  H   H2        1.0  0.97566  0.01066  0.70640  1.0000
  H   H3        1.0  0.75807  0.00292  0.53931  1.0000
  H   H4        1.0  0.24193  0.99708  0.46069  1.0000
  H   H5        1.0  0.69113  0.37386  0.09221  1.0000
  H   H6        1.0  0.30887  0.62614  0.90779  1.0000
  H   H7        1.0  0.24971  0.44870  0.00995  1.0000
  H   H8        1.0  0.75029  0.55130  0.99006  1.0000
  H   H9        1.0  0.27107  0.35398  0.32169  1.0000
  H   H10       1.0  0.72893  0.64602  0.67831  1.0000
  H   H11       1.0  0.54832  0.16141  0.54240  1.0000
  H   H12       1.0  0.45168  0.83859  0.45760  1.0000
  H   H13       1.0  0.43305  0.38498  0.69473  1.0000
  H   H14       1.0  0.56695  0.61502  0.30527  1.0000
  H   H15       1.0  0.18978  0.54481  0.46959  1.0000
  H   H16       1.0  0.81022  0.45520  0.53041  1.0000
  H   H17       1.0  0.33089  0.62941  0.60367  1.0000
  H   H18       1.0  0.66911  0.37058  0.39633  1.0000
  H   H19       1.0  0.18019  0.75889  0.71785  1.0000
  H   H20       1.0  0.81981  0.24111  0.28215  1.0000
  H   H21       1.0  0.89005  0.52717  0.84129  1.0000
  H   H22       1.0  0.10995  0.47283  0.15870  1.0000
  H   H23       1.0  0.94177  0.28871  0.70540  1.0000
  H   H24       1.0  0.05823  0.71129  0.29459  1.0000
  H   H25       1.0  0.10611  0.28544  0.57426  1.0000
  H   H26       1.0  0.89389  0.71456  0.42574  1.0000
  H   H27       1.0  0.02770  0.89275  0.83700  1.0000
  H   H28       1.0  0.97230  0.10725  0.16300  1.0000
  H   H29       1.0  0.90458  0.80120  0.89060  1.0000
  H   H30       1.0  0.09542  0.19880  0.10940  1.0000
  H   H31       1.0  0.27265  0.99255  0.97010  1.0000
  H   H32       1.0  0.72735  0.00745  0.02990  1.0000
  H   H33       1.0  0.02387  0.71212  0.07958  1.0000
  H   H34       1.0  0.97613  0.28788  0.92042  1.0000
  H   H35       1.0  0.27523  0.83445  0.26536  1.0000
  H   H36       1.0  0.72477  0.16555  0.73464  1.0000
  C   C1        1.0  0.75023  0.99885  0.30698  1.0000
  C   C2        1.0  0.24978  0.00115  0.69302  1.0000
  C   C3        1.0  0.87840  0.99722  0.40678  1.0000
  C   C4        1.0  0.12160  0.00278  0.59322  1.0000
  C   C5        1.0  0.01490  0.99494  0.38470  1.0000
  C   C6        1.0  0.98511  0.00506  0.61530  1.0000
  C   C7        1.0  0.86467  0.00231  0.52313  1.0000
  C   C8        1.0  0.13533  0.99769  0.47687  1.0000
  C   C9        1.0  0.42935  0.29809  0.12066  1.0000
  C   C10       1.0  0.57065  0.70192  0.87934  1.0000
  C   C11       1.0  0.46681  0.40080  0.05727  1.0000
  C   C12       1.0  0.53319  0.59920  0.94273  1.0000
  C   C13       1.0  0.60813  0.42934  0.05138  1.0000
  C   C14       1.0  0.39188  0.57066  0.94862  1.0000
  C   C15       1.0  0.35919  0.47223  0.00531  1.0000
  C   C16       1.0  0.64080  0.52777  0.99469  1.0000
  C   C17       1.0  0.32925  0.32971  0.40172  1.0000
  C   C18       1.0  0.67075  0.67029  0.59828  1.0000
  C   C19       1.0  0.47341  0.23507  0.52010  1.0000
  C   C20       1.0  0.52659  0.76492  0.47990  1.0000
  C   C21       1.0  0.41805  0.34512  0.59585  1.0000
  C   C22       1.0  0.58195  0.65488  0.40415  1.0000
  C   C23       1.0  0.25116  0.53165  0.55531  1.0000
  C   C24       1.0  0.74884  0.46835  0.44469  1.0000
  C   C25       1.0  0.15248  0.52270  0.63512  1.0000
  C   C26       1.0  0.84752  0.47730  0.36488  1.0000
  C   C27       1.0  0.12483  0.65550  0.71247  1.0000
  C   C28       1.0  0.87517  0.34450  0.28753  1.0000
  C   C29       1.0  0.03164  0.65863  0.78716  1.0000
  C   C30       1.0  0.96836  0.34137  0.21283  1.0000
  C   C31       1.0  0.96477  0.52567  0.78458  1.0000
  C   C32       1.0  0.03523  0.47433  0.21542  1.0000
  C   C33       1.0  0.99274  0.39276  0.70811  1.0000
  C   C34       1.0  0.00726  0.60724  0.29189  1.0000
  C   C35       1.0  0.08582  0.39052  0.63321  1.0000
  C   C36       1.0  0.91418  0.60948  0.36679  1.0000
  C   C37       1.0  0.01166  0.80452  0.87407  1.0000
  C   C38       1.0  0.98834  0.19548  0.12593  1.0000
  C   C39       1.0  0.24223  0.93520  0.02785  1.0000
  C   C40       1.0  0.75778  0.06480  0.97215  1.0000
  C   C41       1.0  0.11396  0.78739  0.08608  1.0000
  C   C42       1.0  0.88604  0.21261  0.91392  1.0000
  C   C43       1.0  0.23782  0.84921  0.17696  1.0000
  C   C44       1.0  0.76218  0.15078  0.82304  1.0000
  N   N1        1.0  0.41735  0.22665  0.39915  1.0000
  N   N2        1.0  0.58265  0.77335  0.60085  1.0000
  N   N3        1.0  0.32690  0.40370  0.51911  1.0000
  N   N4        1.0  0.67310  0.59630  0.48089  1.0000
  N   N5        1.0  0.11861  0.84357  0.99319  1.0000
  N   N6        1.0  0.88139  0.15643  0.00681  1.0000
  N   N7        1.0  0.31627  0.94170  0.13992  1.0000
  N   N8        1.0  0.68373  0.05830  0.86008  1.0000
  O   O1        1.0  0.63665  0.03515  0.34508  1.0000
  O   O2        1.0  0.36336  0.96485  0.65492  1.0000
  O   O3        1.0  0.76078  0.97213  0.19935  1.0000
  O   O4        1.0  0.23923  0.02788  0.80065  1.0000
  O   O5        1.0  0.53184  0.22791  0.15950  1.0000
  O   O6        1.0  0.46817  0.77209  0.84050  1.0000
  O   O7        1.0  0.30526  0.28653  0.13527  1.0000
  O   O8        1.0  0.69474  0.71347  0.86474  1.0000
