data_image0
_chemical_formula_structural       Nd2H12C10O14
_chemical_formula_sum              "Nd2 H12 C10 O14"
_cell_length_a       6.81971
_cell_length_b       7.64382
_cell_length_c       8.08055
_cell_angle_alpha    101.069
_cell_angle_beta     103.531
_cell_angle_gamma    102.483

_space_group_name_H-M_alt    "P 1"
_space_group_IT_number       1

loop_
  _space_group_symop_operation_xyz
  'x, y, z'

loop_
  _atom_site_type_symbol
  _atom_site_label
  _atom_site_symmetry_multiplicity
  _atom_site_fract_x
  _atom_site_fract_y
  _atom_site_fract_z
  _atom_site_occupancy
  Nd  Nd1       1.0  0.04643  0.11560  0.28862  1.0000
  Nd  Nd2       1.0  0.95357  0.88440  0.71137  1.0000
  H   H1        1.0  0.52902  0.22927  0.28609  1.0000
  H   H2        1.0  0.47098  0.77073  0.71391  1.0000
  H   H3        1.0  0.37548  0.16122  0.08938  1.0000
  H   H4        1.0  0.62452  0.83878  0.91062  1.0000
  H   H5        1.0  0.45532  0.46030  0.78954  1.0000
  H   H6        1.0  0.54468  0.53970  0.21047  1.0000
  H   H7        1.0  0.56010  0.33566  0.64644  1.0000
  H   H8        1.0  0.43990  0.66435  0.35356  1.0000
  H   H9        1.0  0.81214  0.50751  0.94814  1.0000
  H   H10       1.0  0.18786  0.49248  0.05186  1.0000
  H   H11       1.0  0.67133  0.35435  0.04459  1.0000
  H   H12       1.0  0.32867  0.64564  0.95541  1.0000
  C   C1        1.0  0.33991  0.17248  0.74326  1.0000
  C   C2        1.0  0.66009  0.82752  0.25675  1.0000
  C   C3        1.0  0.51818  0.33944  0.76965  1.0000
  C   C4        1.0  0.48182  0.66057  0.23035  1.0000
  C   C5        1.0  0.71046  0.36631  0.92239  1.0000
  C   C6        1.0  0.28955  0.63369  0.07762  1.0000
  C   C7        1.0  0.16114  0.76684  0.11572  1.0000
  C   C8        1.0  0.83886  0.23316  0.88427  1.0000
  C   C9        1.0  0.87964  0.45994  0.47690  1.0000
  C   C10       1.0  0.12035  0.54006  0.52310  1.0000
  O   O1        1.0  0.19969  0.10750  0.59337  1.0000
  O   O2        1.0  0.80031  0.89250  0.40664  1.0000
  O   O3        1.0  0.68152  0.90376  0.13240  1.0000
  O   O4        1.0  0.31848  0.09624  0.86759  1.0000
  O   O5        1.0  0.16256  0.82951  0.27280  1.0000
  O   O6        1.0  0.83744  0.17049  0.72719  1.0000
  O   O7        1.0  0.05086  0.81199  0.98680  1.0000
  O   O8        1.0  0.94915  0.18800  0.01320  1.0000
  O   O9        1.0  0.80137  0.29940  0.37046  1.0000
  O   O10       1.0  0.19863  0.70059  0.62954  1.0000
  O   O11       1.0  0.21968  0.44094  0.45370  1.0000
  O   O12       1.0  0.78031  0.55906  0.54630  1.0000
  O   O13       1.0  0.37913  0.19402  0.21555  1.0000
  O   O14       1.0  0.62087  0.80598  0.78444  1.0000
