data_image0
_chemical_formula_structural       NiAg2H6C14N2O10
_chemical_formula_sum              "Ni1 Ag2 H6 C14 N2 O10"
_cell_length_a       5.0418
_cell_length_b       8.92076
_cell_length_c       9.02309
_cell_angle_alpha    96.0555
_cell_angle_beta     95.7828
_cell_angle_gamma    102.705

_space_group_name_H-M_alt    "P 1"
_space_group_IT_number       1

loop_
  _space_group_symop_operation_xyz
  'x, y, z'

loop_
  _atom_site_type_symbol
  _atom_site_label
  _atom_site_symmetry_multiplicity
  _atom_site_fract_x
  _atom_site_fract_y
  _atom_site_fract_z
  _atom_site_occupancy
  Ni  Ni1       1.0  0.50000  0.50000  0.50000  1.0000
  Ag  Ag1       1.0  0.09879  0.46922  0.85506  1.0000
  Ag  Ag2       1.0  0.90120  0.53077  0.14494  1.0000
  H   H1        1.0  0.78370  0.05374  0.95336  1.0000
  H   H2        1.0  0.21631  0.94626  0.04665  1.0000
  H   H3        1.0  0.49070  0.17811  0.78788  1.0000
  H   H4        1.0  0.50931  0.82190  0.21212  1.0000
  H   H5        1.0  0.19843  0.01901  0.56191  1.0000
  H   H6        1.0  0.80158  0.98099  0.43809  1.0000
  C   C1        1.0  0.64201  0.83023  0.82257  1.0000
  C   C2        1.0  0.35799  0.16976  0.17743  1.0000
  C   C3        1.0  0.65326  0.98720  0.85432  1.0000
  C   C4        1.0  0.34674  0.01280  0.14568  1.0000
  C   C5        1.0  0.49166  0.05636  0.76130  1.0000
  C   C6        1.0  0.50834  0.94364  0.23870  1.0000
  C   C7        1.0  0.32596  0.96705  0.63567  1.0000
  C   C8        1.0  0.67404  0.03295  0.36433  1.0000
  C   C9        1.0  0.32114  0.81074  0.60283  1.0000
  C   C10       1.0  0.67886  0.18926  0.39717  1.0000
  C   C11       1.0  0.79657  0.73434  0.91102  1.0000
  C   C12       1.0  0.20343  0.26565  0.08898  1.0000
  C   C13       1.0  0.16189  0.71461  0.46199  1.0000
  C   C14       1.0  0.83811  0.28539  0.53800  1.0000
  N   N1        1.0  0.47653  0.74719  0.69952  1.0000
  N   N2        1.0  0.52347  0.25281  0.30048  1.0000
  O   O1        1.0  0.45556  0.59265  0.68738  1.0000
  O   O2        1.0  0.54444  0.40735  0.31262  1.0000
  O   O3        1.0  0.00511  0.70674  0.85685  1.0000
  O   O4        1.0  0.99489  0.29326  0.14315  1.0000
  O   O5        1.0  0.70001  0.69224  0.02791  1.0000
  O   O6        1.0  0.29998  0.30775  0.97209  1.0000
  O   O7        1.0  0.24511  0.59576  0.40377  1.0000
  O   O8        1.0  0.75489  0.40424  0.59623  1.0000
  O   O9        1.0  0.96478  0.75741  0.39951  1.0000
  O   O10       1.0  0.03522  0.24259  0.60049  1.0000
