data_image0
_chemical_formula_structural       Nd2H54C44N4O20
_chemical_formula_sum              "Nd2 H54 C44 N4 O20"
_cell_length_a       9.30319
_cell_length_b       11.9081
_cell_length_c       12.8534
_cell_angle_alpha    84.448
_cell_angle_beta     70.4342
_cell_angle_gamma    68.5467

_space_group_name_H-M_alt    "P 1"
_space_group_IT_number       1

loop_
  _space_group_symop_operation_xyz
  'x, y, z'

loop_
  _atom_site_type_symbol
  _atom_site_label
  _atom_site_symmetry_multiplicity
  _atom_site_fract_x
  _atom_site_fract_y
  _atom_site_fract_z
  _atom_site_occupancy
  Nd  Nd1       1.0  0.84818  0.89293  0.52200  1.0000
  Nd  Nd2       1.0  0.15182  0.10707  0.47800  1.0000
  H   H1        1.0  0.88085  0.27266  0.32580  1.0000
  H   H2        1.0  0.11914  0.72734  0.67421  1.0000
  H   H3        1.0  0.64337  0.19783  0.25262  1.0000
  H   H4        1.0  0.35663  0.80216  0.74738  1.0000
  H   H5        1.0  0.78326  0.40387  0.18233  1.0000
  H   H6        1.0  0.21674  0.59613  0.81767  1.0000
  H   H7        1.0  0.59117  0.40610  0.17858  1.0000
  H   H8        1.0  0.40882  0.59390  0.82142  1.0000
  H   H9        1.0  0.77399  0.30985  0.08640  1.0000
  H   H10       1.0  0.22601  0.69015  0.91360  1.0000
  H   H11       1.0  0.28697  0.57770  0.24632  1.0000
  H   H12       1.0  0.71304  0.42230  0.75368  1.0000
  H   H13       1.0  0.28119  0.82244  0.14112  1.0000
  H   H14       1.0  0.71881  0.17756  0.85888  1.0000
  H   H15       1.0  0.57557  0.68012  0.06194  1.0000
  H   H16       1.0  0.42443  0.31988  0.93806  1.0000
  H   H17       1.0  0.46360  0.68827  0.97429  1.0000
  H   H18       1.0  0.53640  0.31173  0.02571  1.0000
  H   H19       1.0  0.50450  0.55941  0.06023  1.0000
  H   H20       1.0  0.49550  0.44059  0.93977  1.0000
  H   H21       1.0  0.75233  0.60682  0.89568  1.0000
  H   H22       1.0  0.24767  0.39318  0.10432  1.0000
  H   H23       1.0  0.05456  0.53741  0.68809  1.0000
  H   H24       1.0  0.94544  0.46259  0.31191  1.0000
  H   H25       1.0  0.96777  0.41765  0.91653  1.0000
  H   H26       1.0  0.03222  0.58235  0.08347  1.0000
  H   H27       1.0  0.16928  0.40997  0.83520  1.0000
  H   H28       1.0  0.83072  0.59003  0.16480  1.0000
  H   H29       1.0  0.06974  0.33550  0.78782  1.0000
  H   H30       1.0  0.93026  0.66450  0.21218  1.0000
  H   H31       1.0  0.50142  0.18135  0.64082  1.0000
  H   H32       1.0  0.49858  0.81865  0.35919  1.0000
  H   H33       1.0  0.63127  0.33665  0.59722  1.0000
  H   H34       1.0  0.36873  0.66335  0.40279  1.0000
  H   H35       1.0  0.74064  0.45781  0.55118  1.0000
  H   H36       1.0  0.25936  0.54219  0.44882  1.0000
  H   H37       1.0  0.84931  0.62366  0.50420  1.0000
  H   H38       1.0  0.15069  0.37634  0.49580  1.0000
  H   H39       1.0  0.46784  0.92492  0.61057  1.0000
  H   H40       1.0  0.53216  0.07508  0.38943  1.0000
  H   H41       1.0  0.56846  0.87518  0.69799  1.0000
  H   H42       1.0  0.43154  0.12482  0.30201  1.0000
  H   H43       1.0  0.82549  0.06191  0.69625  1.0000
  H   H44       1.0  0.17451  0.93809  0.30375  1.0000
  H   H45       1.0  0.64999  0.04527  0.74941  1.0000
  H   H46       1.0  0.35001  0.95473  0.25059  1.0000
  H   H47       1.0  0.68947  0.90068  0.26123  1.0000
  H   H48       1.0  0.31053  0.09932  0.73877  1.0000
  H   H49       1.0  0.93006  0.95920  0.19306  1.0000
  H   H50       1.0  0.06994  0.04081  0.80693  1.0000
  H   H51       1.0  0.88716  0.97426  0.86500  1.0000
  H   H52       1.0  0.11284  0.02574  0.13500  1.0000
  H   H53       1.0  0.64676  0.91268  0.94786  1.0000
  H   H54       1.0  0.35324  0.08732  0.05214  1.0000
  C   C1        1.0  0.80044  0.12546  0.40250  1.0000
  C   C2        1.0  0.19956  0.87453  0.59750  1.0000
  C   C3        1.0  0.80224  0.22392  0.32427  1.0000
  C   C4        1.0  0.19777  0.77608  0.67573  1.0000
  C   C5        1.0  0.71788  0.25051  0.25278  1.0000
  C   C6        1.0  0.28212  0.74948  0.74722  1.0000
  C   C7        1.0  0.71751  0.34827  0.17147  1.0000
  C   C8        1.0  0.28248  0.65172  0.82853  1.0000
  C   C9        1.0  0.11364  0.74876  0.33022  1.0000
  C   C10       1.0  0.88636  0.25124  0.66977  1.0000
  C   C11       1.0  0.24773  0.67536  0.23629  1.0000
  C   C12       1.0  0.75227  0.32464  0.76371  1.0000
  C   C13       1.0  0.32519  0.72426  0.14673  1.0000
  C   C14       1.0  0.67481  0.27574  0.85327  1.0000
  C   C15       1.0  0.47369  0.65749  0.05594  1.0000
  C   C16       1.0  0.52631  0.34251  0.94405  1.0000
  C   C17       1.0  0.76393  0.71813  0.74898  1.0000
  C   C18       1.0  0.23607  0.28187  0.25102  1.0000
  C   C19       1.0  0.83239  0.61309  0.81280  1.0000
  C   C20       1.0  0.16761  0.38691  0.18720  1.0000
  C   C21       1.0  0.98020  0.52740  0.77228  1.0000
  C   C22       1.0  0.01979  0.47260  0.22772  1.0000
  C   C23       1.0  0.04911  0.41781  0.83184  1.0000
  C   C24       1.0  0.95089  0.58219  0.16816  1.0000
  C   C25       1.0  0.45644  0.26319  0.59794  1.0000
  C   C26       1.0  0.54356  0.73681  0.40207  1.0000
  C   C27       1.0  0.52500  0.35119  0.57266  1.0000
  C   C28       1.0  0.47500  0.64882  0.42735  1.0000
  C   C29       1.0  0.46214  0.45401  0.51512  1.0000
  C   C30       1.0  0.53786  0.54599  0.48488  1.0000
  C   C31       1.0  0.67652  0.53647  0.51181  1.0000
  C   C32       1.0  0.32348  0.46353  0.48819  1.0000
  C   C33       1.0  0.74223  0.62623  0.48583  1.0000
  C   C34       1.0  0.25777  0.37377  0.51418  1.0000
  C   C35       1.0  0.73695  0.92057  0.17490  1.0000
  C   C36       1.0  0.26305  0.07943  0.82510  1.0000
  C   C37       1.0  0.87122  0.95497  0.13401  1.0000
  C   C38       1.0  0.12878  0.04503  0.86599  1.0000
  C   C39       1.0  0.93013  0.97978  0.02167  1.0000
  C   C40       1.0  0.06987  0.02022  0.97832  1.0000
  C   C41       1.0  0.84788  0.96213  0.95382  1.0000
  C   C42       1.0  0.15212  0.03787  0.04617  1.0000
  C   C43       1.0  0.71360  0.92757  0.99707  1.0000
  C   C44       1.0  0.28640  0.07243  0.00293  1.0000
  N   N1        1.0  0.32530  0.27384  0.56733  1.0000
  N   N2        1.0  0.67470  0.72616  0.43267  1.0000
  N   N3        1.0  0.65594  0.90929  0.10773  1.0000
  N   N4        1.0  0.34406  0.09071  0.89227  1.0000
  O   O1        1.0  0.70662  0.06538  0.41577  1.0000
  O   O2        1.0  0.29339  0.93462  0.58423  1.0000
  O   O3        1.0  0.89894  0.09769  0.45936  1.0000
  O   O4        1.0  0.10106  0.90231  0.54065  1.0000
  O   O5        1.0  0.04747  0.86422  0.32323  1.0000
  O   O6        1.0  0.95253  0.13578  0.67677  1.0000
  O   O7        1.0  0.06758  0.69694  0.42038  1.0000
  O   O8        1.0  0.93242  0.30306  0.57962  1.0000
  O   O9        1.0  0.85754  0.73471  0.65392  1.0000
  O   O10       1.0  0.14246  0.26529  0.34608  1.0000
  O   O11       1.0  0.61500  0.78476  0.79179  1.0000
  O   O12       1.0  0.38499  0.21524  0.20821  1.0000
  O   O13       1.0  0.26414  0.18766  0.59141  1.0000
  O   O14       1.0  0.73586  0.81234  0.40859  1.0000
  O   O15       1.0  0.56194  0.92594  0.62993  1.0000
  O   O16       1.0  0.43805  0.07407  0.37007  1.0000
  O   O17       1.0  0.76170  0.01079  0.69493  1.0000
  O   O18       1.0  0.23830  0.98921  0.30507  1.0000
  O   O19       1.0  0.52715  0.87800  0.14779  1.0000
  O   O20       1.0  0.47285  0.12201  0.85221  1.0000
