data_image0
_chemical_formula_structural       Y2H54C44N4O20
_chemical_formula_sum              "Y2 H54 C44 N4 O20"
_cell_length_a       9.17057
_cell_length_b       11.8311
_cell_length_c       12.7275
_cell_angle_alpha    85.638
_cell_angle_beta     71.0449
_cell_angle_gamma    68.8512

_space_group_name_H-M_alt    "P 1"
_space_group_IT_number       1

loop_
  _space_group_symop_operation_xyz
  'x, y, z'

loop_
  _atom_site_type_symbol
  _atom_site_label
  _atom_site_symmetry_multiplicity
  _atom_site_fract_x
  _atom_site_fract_y
  _atom_site_fract_z
  _atom_site_occupancy
  Y   Y1        1.0  0.84554  0.89618  0.52347  1.0000
  Y   Y2        1.0  0.15446  0.10382  0.47653  1.0000
  H   H1        1.0  0.89329  0.26386  0.32212  1.0000
  H   H2        1.0  0.10671  0.73613  0.67788  1.0000
  H   H3        1.0  0.63202  0.20004  0.25997  1.0000
  H   H4        1.0  0.36798  0.79996  0.74003  1.0000
  H   H5        1.0  0.80708  0.38578  0.17278  1.0000
  H   H6        1.0  0.19292  0.61422  0.82722  1.0000
  H   H7        1.0  0.59528  0.41318  0.18962  1.0000
  H   H8        1.0  0.40473  0.58682  0.81038  1.0000
  H   H9        1.0  0.75203  0.30413  0.08871  1.0000
  H   H10       1.0  0.24797  0.69587  0.91129  1.0000
  H   H11       1.0  0.28104  0.57766  0.24959  1.0000
  H   H12       1.0  0.71896  0.42233  0.75041  1.0000
  H   H13       1.0  0.27464  0.82233  0.14516  1.0000
  H   H14       1.0  0.72536  0.17766  0.85485  1.0000
  H   H15       1.0  0.57272  0.67751  0.06870  1.0000
  H   H16       1.0  0.42728  0.32249  0.93130  1.0000
  H   H17       1.0  0.46209  0.68535  0.97763  1.0000
  H   H18       1.0  0.53792  0.31465  0.02237  1.0000
  H   H19       1.0  0.49966  0.55695  0.06383  1.0000
  H   H20       1.0  0.50034  0.44305  0.93617  1.0000
  H   H21       1.0  0.74732  0.62268  0.89461  1.0000
  H   H22       1.0  0.25267  0.37731  0.10539  1.0000
  H   H23       1.0  0.04854  0.54587  0.68330  1.0000
  H   H24       1.0  0.95145  0.45413  0.31670  1.0000
  H   H25       1.0  0.96154  0.42847  0.91250  1.0000
  H   H26       1.0  0.03845  0.57153  0.08750  1.0000
  H   H27       1.0  0.16584  0.41882  0.83042  1.0000
  H   H28       1.0  0.83416  0.58118  0.16958  1.0000
  H   H29       1.0  0.06267  0.34498  0.78216  1.0000
  H   H30       1.0  0.93732  0.65502  0.21784  1.0000
  H   H31       1.0  0.49877  0.81897  0.36097  1.0000
  H   H32       1.0  0.50124  0.18103  0.63902  1.0000
  H   H33       1.0  0.36833  0.66238  0.40164  1.0000
  H   H34       1.0  0.63168  0.33762  0.59835  1.0000
  H   H35       1.0  0.74306  0.45856  0.55231  1.0000
  H   H36       1.0  0.25692  0.54145  0.44771  1.0000
  H   H37       1.0  0.85139  0.62633  0.50878  1.0000
  H   H38       1.0  0.14860  0.37368  0.49123  1.0000
  H   H39       1.0  0.47094  0.93262  0.60415  1.0000
  H   H40       1.0  0.52906  0.06738  0.39585  1.0000
  H   H41       1.0  0.56600  0.88935  0.69621  1.0000
  H   H42       1.0  0.43400  0.11066  0.30379  1.0000
  H   H43       1.0  0.83298  0.06260  0.69002  1.0000
  H   H44       1.0  0.16702  0.93740  0.30998  1.0000
  H   H45       1.0  0.65324  0.04826  0.74405  1.0000
  H   H46       1.0  0.34676  0.95174  0.25595  1.0000
  H   H47       1.0  0.69607  0.89626  0.26293  1.0000
  H   H48       1.0  0.30392  0.10375  0.73707  1.0000
  H   H49       1.0  0.93590  0.95831  0.19341  1.0000
  H   H50       1.0  0.06410  0.04169  0.80660  1.0000
  H   H51       1.0  0.88267  0.97118  0.86512  1.0000
  H   H52       1.0  0.11735  0.02881  0.13488  1.0000
  H   H53       1.0  0.64178  0.90772  0.94957  1.0000
  H   H54       1.0  0.35823  0.09227  0.05042  1.0000
  C   C1        1.0  0.80450  0.12304  0.40495  1.0000
  C   C2        1.0  0.19550  0.87696  0.59505  1.0000
  C   C3        1.0  0.80713  0.21887  0.32456  1.0000
  C   C4        1.0  0.19287  0.78112  0.67544  1.0000
  C   C5        1.0  0.71560  0.24784  0.25607  1.0000
  C   C6        1.0  0.28440  0.75215  0.74394  1.0000
  C   C7        1.0  0.71912  0.34294  0.17285  1.0000
  C   C8        1.0  0.28089  0.65706  0.82715  1.0000
  C   C9        1.0  0.10598  0.75005  0.33544  1.0000
  C   C10       1.0  0.89402  0.24994  0.66456  1.0000
  C   C11       1.0  0.24077  0.67571  0.24026  1.0000
  C   C12       1.0  0.75923  0.32429  0.75974  1.0000
  C   C13       1.0  0.31900  0.72384  0.15064  1.0000
  C   C14       1.0  0.68100  0.27615  0.84936  1.0000
  C   C15       1.0  0.47011  0.65528  0.06016  1.0000
  C   C16       1.0  0.52989  0.34472  0.93984  1.0000
  C   C17       1.0  0.75916  0.73234  0.74756  1.0000
  C   C18       1.0  0.24083  0.26766  0.25244  1.0000
  C   C19       1.0  0.82740  0.62648  0.81065  1.0000
  C   C20       1.0  0.17258  0.37351  0.18935  1.0000
  C   C21       1.0  0.97445  0.53781  0.76842  1.0000
  C   C22       1.0  0.02554  0.46219  0.23158  1.0000
  C   C23       1.0  0.04343  0.42769  0.82732  1.0000
  C   C24       1.0  0.95657  0.57231  0.17268  1.0000
  C   C25       1.0  0.54404  0.73711  0.40359  1.0000
  C   C26       1.0  0.45597  0.26290  0.59641  1.0000
  C   C27       1.0  0.47522  0.64847  0.42742  1.0000
  C   C28       1.0  0.52479  0.35153  0.57258  1.0000
  C   C29       1.0  0.53823  0.54614  0.48531  1.0000
  C   C30       1.0  0.46177  0.45387  0.51470  1.0000
  C   C31       1.0  0.67798  0.53741  0.51350  1.0000
  C   C32       1.0  0.32201  0.46261  0.48651  1.0000
  C   C33       1.0  0.74378  0.62789  0.48922  1.0000
  C   C34       1.0  0.25621  0.37212  0.51079  1.0000
  C   C35       1.0  0.74093  0.91674  0.17626  1.0000
  C   C36       1.0  0.25907  0.08326  0.82374  1.0000
  C   C37       1.0  0.87488  0.95302  0.13453  1.0000
  C   C38       1.0  0.12512  0.04698  0.86547  1.0000
  C   C39       1.0  0.93046  0.97864  0.02188  1.0000
  C   C40       1.0  0.06955  0.02135  0.97812  1.0000
  C   C41       1.0  0.84540  0.95936  0.95439  1.0000
  C   C42       1.0  0.15461  0.04063  0.04561  1.0000
  C   C43       1.0  0.71092  0.92352  0.99854  1.0000
  C   C44       1.0  0.28908  0.07648  0.00146  1.0000
  N   N1        1.0  0.67540  0.72763  0.43624  1.0000
  N   N2        1.0  0.32460  0.27238  0.56376  1.0000
  N   N3        1.0  0.65624  0.90497  0.10972  1.0000
  N   N4        1.0  0.34376  0.09503  0.89028  1.0000
  O   O1        1.0  0.70777  0.06331  0.42134  1.0000
  O   O2        1.0  0.29222  0.93668  0.57866  1.0000
  O   O3        1.0  0.90650  0.09606  0.46048  1.0000
  O   O4        1.0  0.09351  0.90394  0.53951  1.0000
  O   O5        1.0  0.03768  0.86588  0.32957  1.0000
  O   O6        1.0  0.96232  0.13412  0.67043  1.0000
  O   O7        1.0  0.06092  0.69966  0.42617  1.0000
  O   O8        1.0  0.93908  0.30033  0.57383  1.0000
  O   O9        1.0  0.85295  0.74642  0.65123  1.0000
  O   O10       1.0  0.14704  0.25358  0.34877  1.0000
  O   O11       1.0  0.61030  0.80193  0.79225  1.0000
  O   O12       1.0  0.38969  0.19807  0.20775  1.0000
  O   O13       1.0  0.73603  0.81489  0.41367  1.0000
  O   O14       1.0  0.26397  0.18512  0.58632  1.0000
  O   O15       1.0  0.56373  0.93612  0.62577  1.0000
  O   O16       1.0  0.43627  0.06388  0.37423  1.0000
  O   O17       1.0  0.76569  0.01271  0.68908  1.0000
  O   O18       1.0  0.23432  0.98729  0.31092  1.0000
  O   O19       1.0  0.52664  0.87325  0.15098  1.0000
  O   O20       1.0  0.47336  0.12675  0.84902  1.0000
