data_image0
_chemical_formula_structural       Er2H54C44N4O20
_chemical_formula_sum              "Er2 H54 C44 N4 O20"
_cell_length_a       9.12522
_cell_length_b       11.8684
_cell_length_c       12.7221
_cell_angle_alpha    85.6676
_cell_angle_beta     71.0785
_cell_angle_gamma    68.9156

_space_group_name_H-M_alt    "P 1"
_space_group_IT_number       1

loop_
  _space_group_symop_operation_xyz
  'x, y, z'

loop_
  _atom_site_type_symbol
  _atom_site_label
  _atom_site_symmetry_multiplicity
  _atom_site_fract_x
  _atom_site_fract_y
  _atom_site_fract_z
  _atom_site_occupancy
  Er  Er1       1.0  0.84622  0.89649  0.52272  1.0000
  Er  Er2       1.0  0.15378  0.10351  0.47728  1.0000
  H   H1        1.0  0.88183  0.26926  0.32985  1.0000
  H   H2        1.0  0.11816  0.73075  0.67015  1.0000
  H   H3        1.0  0.63899  0.19158  0.25691  1.0000
  H   H4        1.0  0.36102  0.80843  0.74308  1.0000
  H   H5        1.0  0.78461  0.39555  0.18559  1.0000
  H   H6        1.0  0.21539  0.60445  0.81440  1.0000
  H   H7        1.0  0.58542  0.40186  0.18557  1.0000
  H   H8        1.0  0.41459  0.59814  0.81443  1.0000
  H   H9        1.0  0.76617  0.30256  0.09027  1.0000
  H   H10       1.0  0.23383  0.69744  0.90973  1.0000
  H   H11       1.0  0.27867  0.57956  0.25197  1.0000
  H   H12       1.0  0.72133  0.42044  0.74803  1.0000
  H   H13       1.0  0.27321  0.82253  0.14608  1.0000
  H   H14       1.0  0.72678  0.17747  0.85391  1.0000
  H   H15       1.0  0.57164  0.67745  0.06687  1.0000
  H   H16       1.0  0.42835  0.32255  0.93313  1.0000
  H   H17       1.0  0.45616  0.68437  0.97866  1.0000
  H   H18       1.0  0.54383  0.31563  0.02134  1.0000
  H   H19       1.0  0.49661  0.55740  0.06548  1.0000
  H   H20       1.0  0.50339  0.44260  0.93451  1.0000
  H   H21       1.0  0.74270  0.62443  0.89210  1.0000
  H   H22       1.0  0.25729  0.37557  0.10790  1.0000
  H   H23       1.0  0.04794  0.54929  0.68254  1.0000
  H   H24       1.0  0.95205  0.45071  0.31746  1.0000
  H   H25       1.0  0.95544  0.43027  0.91024  1.0000
  H   H26       1.0  0.04456  0.56974  0.08976  1.0000
  H   H27       1.0  0.16088  0.42327  0.83275  1.0000
  H   H28       1.0  0.83912  0.57674  0.16724  1.0000
  H   H29       1.0  0.06331  0.34817  0.77967  1.0000
  H   H30       1.0  0.93669  0.65184  0.22032  1.0000
  H   H31       1.0  0.49829  0.81889  0.36300  1.0000
  H   H32       1.0  0.50171  0.18111  0.63700  1.0000
  H   H33       1.0  0.36741  0.66274  0.40277  1.0000
  H   H34       1.0  0.63259  0.33726  0.59723  1.0000
  H   H35       1.0  0.74461  0.45836  0.55227  1.0000
  H   H36       1.0  0.25538  0.54164  0.44775  1.0000
  H   H37       1.0  0.85308  0.62595  0.51006  1.0000
  H   H38       1.0  0.14692  0.37406  0.48995  1.0000
  H   H39       1.0  0.47177  0.93476  0.60137  1.0000
  H   H40       1.0  0.52823  0.06524  0.39863  1.0000
  H   H41       1.0  0.56571  0.89162  0.69397  1.0000
  H   H42       1.0  0.43428  0.10838  0.30603  1.0000
  H   H43       1.0  0.83521  0.06125  0.68773  1.0000
  H   H44       1.0  0.16479  0.93874  0.31227  1.0000
  H   H45       1.0  0.65465  0.04748  0.74165  1.0000
  H   H46       1.0  0.34534  0.95252  0.25835  1.0000
  H   H47       1.0  0.69667  0.89569  0.26363  1.0000
  H   H48       1.0  0.30334  0.10431  0.73637  1.0000
  H   H49       1.0  0.93720  0.95767  0.19350  1.0000
  H   H50       1.0  0.06281  0.04232  0.80650  1.0000
  H   H51       1.0  0.87995  0.97189  0.86580  1.0000
  H   H52       1.0  0.12006  0.02810  0.13420  1.0000
  H   H53       1.0  0.63878  0.90806  0.95110  1.0000
  H   H54       1.0  0.36123  0.09193  0.04890  1.0000
  C   C1        1.0  0.80378  0.12195  0.40683  1.0000
  C   C2        1.0  0.19622  0.87805  0.59317  1.0000
  C   C3        1.0  0.80194  0.21976  0.32863  1.0000
  C   C4        1.0  0.19806  0.78024  0.67136  1.0000
  C   C5        1.0  0.71468  0.24482  0.25731  1.0000
  C   C6        1.0  0.28532  0.75518  0.74268  1.0000
  C   C7        1.0  0.71358  0.34179  0.17608  1.0000
  C   C8        1.0  0.28643  0.65821  0.82392  1.0000
  C   C9        1.0  0.10469  0.75183  0.33749  1.0000
  C   C10       1.0  0.89531  0.24817  0.66252  1.0000
  C   C11       1.0  0.23886  0.67716  0.24221  1.0000
  C   C12       1.0  0.76114  0.32284  0.75779  1.0000
  C   C13       1.0  0.31708  0.72445  0.15192  1.0000
  C   C14       1.0  0.68292  0.27555  0.84808  1.0000
  C   C15       1.0  0.46713  0.65530  0.06076  1.0000
  C   C16       1.0  0.53286  0.34470  0.93924  1.0000
  C   C17       1.0  0.75709  0.73493  0.74590  1.0000
  C   C18       1.0  0.24290  0.26507  0.25410  1.0000
  C   C19       1.0  0.82436  0.62871  0.80871  1.0000
  C   C20       1.0  0.17563  0.37129  0.19130  1.0000
  C   C21       1.0  0.97229  0.54053  0.76710  1.0000
  C   C22       1.0  0.02771  0.45948  0.23290  1.0000
  C   C23       1.0  0.04020  0.43065  0.82627  1.0000
  C   C24       1.0  0.95980  0.56935  0.17372  1.0000
  C   C25       1.0  0.54412  0.73697  0.40513  1.0000
  C   C26       1.0  0.45588  0.26303  0.59488  1.0000
  C   C27       1.0  0.47501  0.64854  0.42843  1.0000
  C   C28       1.0  0.52499  0.35146  0.57158  1.0000
  C   C29       1.0  0.53840  0.54605  0.48569  1.0000
  C   C30       1.0  0.46159  0.45395  0.51431  1.0000
  C   C31       1.0  0.67889  0.53719  0.51396  1.0000
  C   C32       1.0  0.32110  0.46281  0.48605  1.0000
  C   C33       1.0  0.74506  0.62746  0.49027  1.0000
  C   C34       1.0  0.25494  0.37255  0.50974  1.0000
  C   C35       1.0  0.74105  0.91621  0.17690  1.0000
  C   C36       1.0  0.25896  0.08378  0.82310  1.0000
  C   C37       1.0  0.87552  0.95251  0.13472  1.0000
  C   C38       1.0  0.12450  0.04748  0.86528  1.0000
  C   C39       1.0  0.93024  0.97858  0.02209  1.0000
  C   C40       1.0  0.06977  0.02142  0.97791  1.0000
  C   C41       1.0  0.84383  0.95964  0.95507  1.0000
  C   C42       1.0  0.15618  0.04035  0.04493  1.0000
  C   C43       1.0  0.70898  0.92363  0.99964  1.0000
  C   C44       1.0  0.29103  0.07637  0.00036  1.0000
  N   N1        1.0  0.67630  0.72723  0.43774  1.0000
  N   N2        1.0  0.32371  0.27277  0.56226  1.0000
  N   N3        1.0  0.65497  0.90475  0.11083  1.0000
  N   N4        1.0  0.34504  0.09525  0.88917  1.0000
  O   O1        1.0  0.70915  0.06040  0.42214  1.0000
  O   O2        1.0  0.29085  0.93960  0.57786  1.0000
  O   O3        1.0  0.90692  0.09533  0.46171  1.0000
  O   O4        1.0  0.09308  0.90467  0.53829  1.0000
  O   O5        1.0  0.03549  0.86703  0.33115  1.0000
  O   O6        1.0  0.96451  0.13297  0.66885  1.0000
  O   O7        1.0  0.06053  0.70248  0.42896  1.0000
  O   O8        1.0  0.93946  0.29752  0.57104  1.0000
  O   O9        1.0  0.85172  0.74909  0.64982  1.0000
  O   O10       1.0  0.14826  0.25092  0.35018  1.0000
  O   O11       1.0  0.60790  0.80472  0.79079  1.0000
  O   O12       1.0  0.39209  0.19528  0.20921  1.0000
  O   O13       1.0  0.73733  0.81416  0.41538  1.0000
  O   O14       1.0  0.26267  0.18584  0.58462  1.0000
  O   O15       1.0  0.56473  0.93813  0.62342  1.0000
  O   O16       1.0  0.43526  0.06187  0.37658  1.0000
  O   O17       1.0  0.76744  0.01168  0.68669  1.0000
  O   O18       1.0  0.23256  0.98833  0.31331  1.0000
  O   O19       1.0  0.52469  0.87327  0.15252  1.0000
  O   O20       1.0  0.47532  0.12673  0.84748  1.0000
