data_image0
_chemical_formula_structural       Zn4H32C48O20
_chemical_formula_sum              "Zn4 H32 C48 O20"
_cell_length_a       7.01883
_cell_length_b       9.64194
_cell_length_c       15.693
_cell_angle_alpha    99.0732
_cell_angle_beta     90
_cell_angle_gamma    90

_space_group_name_H-M_alt    "P 1"
_space_group_IT_number       1

loop_
  _space_group_symop_operation_xyz
  'x, y, z'

loop_
  _atom_site_type_symbol
  _atom_site_label
  _atom_site_symmetry_multiplicity
  _atom_site_fract_x
  _atom_site_fract_y
  _atom_site_fract_z
  _atom_site_occupancy
  Zn  Zn1       1.0  0.40121  0.23939  0.50041  1.0000
  Zn  Zn2       1.0  0.90121  0.26061  0.49959  1.0000
  Zn  Zn3       1.0  0.59879  0.76061  0.49959  1.0000
  Zn  Zn4       1.0  0.09879  0.73939  0.50041  1.0000
  H   H1        1.0  0.17225  0.43071  0.45005  1.0000
  H   H2        1.0  0.67225  0.06929  0.54995  1.0000
  H   H3        1.0  0.82775  0.56929  0.54994  1.0000
  H   H4        1.0  0.32775  0.93071  0.45005  1.0000
  H   H5        1.0  0.17137  0.45706  0.55002  1.0000
  H   H6        1.0  0.67137  0.04294  0.44998  1.0000
  H   H7        1.0  0.82863  0.54294  0.44998  1.0000
  H   H8        1.0  0.32863  0.95706  0.55002  1.0000
  H   H9        1.0  0.91180  0.25750  0.25742  1.0000
  H   H10       1.0  0.41180  0.24250  0.74258  1.0000
  H   H11       1.0  0.08820  0.74250  0.74258  1.0000
  H   H12       1.0  0.58820  0.75750  0.25742  1.0000
  H   H13       1.0  0.91960  0.22442  0.09705  1.0000
  H   H14       1.0  0.41960  0.27558  0.90295  1.0000
  H   H15       1.0  0.08041  0.77558  0.90295  1.0000
  H   H16       1.0  0.58040  0.72442  0.09706  1.0000
  H   H17       1.0  0.64766  0.30759  0.01636  1.0000
  H   H18       1.0  0.14766  0.19241  0.98364  1.0000
  H   H19       1.0  0.35235  0.69241  0.98364  1.0000
  H   H20       1.0  0.85234  0.80759  0.01636  1.0000
  H   H21       1.0  0.34506  0.43429  0.01597  1.0000
  H   H22       1.0  0.84506  0.06572  0.98403  1.0000
  H   H23       1.0  0.65494  0.56572  0.98402  1.0000
  H   H24       1.0  0.15494  0.93428  0.01597  1.0000
  H   H25       1.0  0.07683  0.56537  0.09467  1.0000
  H   H26       1.0  0.57682  0.93464  0.90533  1.0000
  H   H27       1.0  0.92318  0.43463  0.90533  1.0000
  H   H28       1.0  0.42318  0.06536  0.09467  1.0000
  H   H29       1.0  0.08544  0.62038  0.25555  1.0000
  H   H30       1.0  0.58544  0.87962  0.74445  1.0000
  H   H31       1.0  0.91456  0.37962  0.74445  1.0000
  H   H32       1.0  0.41456  0.12038  0.25555  1.0000
  C   C1        1.0  0.79872  0.30092  0.22204  1.0000
  C   C2        1.0  0.29872  0.19908  0.77795  1.0000
  C   C3        1.0  0.20128  0.69908  0.77796  1.0000
  C   C4        1.0  0.70128  0.80092  0.22205  1.0000
  C   C5        1.0  0.80035  0.28044  0.13114  1.0000
  C   C6        1.0  0.30036  0.21956  0.86885  1.0000
  C   C7        1.0  0.19965  0.71956  0.86886  1.0000
  C   C8        1.0  0.69964  0.78044  0.13115  1.0000
  C   C9        1.0  0.65038  0.32754  0.08678  1.0000
  C   C10       1.0  0.15038  0.17246  0.91322  1.0000
  C   C11       1.0  0.34962  0.67246  0.91322  1.0000
  C   C12       1.0  0.84962  0.82754  0.08678  1.0000
  C   C13       1.0  0.49713  0.40320  0.13169  1.0000
  C   C14       1.0  0.99713  0.09681  0.86831  1.0000
  C   C15       1.0  0.50288  0.59681  0.86831  1.0000
  C   C16       1.0  0.00287  0.90319  0.13170  1.0000
  C   C17       1.0  0.49782  0.42915  0.22442  1.0000
  C   C18       1.0  0.99782  0.07085  0.77558  1.0000
  C   C19       1.0  0.50218  0.57085  0.77557  1.0000
  C   C20       1.0  0.00218  0.92915  0.22443  1.0000
  C   C21       1.0  0.64876  0.36978  0.26816  1.0000
  C   C22       1.0  0.14876  0.13022  0.73184  1.0000
  C   C23       1.0  0.35124  0.63022  0.73184  1.0000
  C   C24       1.0  0.85124  0.86978  0.26817  1.0000
  C   C25       1.0  0.64230  0.35801  0.36213  1.0000
  C   C26       1.0  0.14230  0.14199  0.63787  1.0000
  C   C27       1.0  0.35769  0.64199  0.63787  1.0000
  C   C28       1.0  0.85770  0.85801  0.36213  1.0000
  C   C29       1.0  0.34336  0.45393  0.08631  1.0000
  C   C30       1.0  0.84336  0.04608  0.91368  1.0000
  C   C31       1.0  0.65664  0.54607  0.91368  1.0000
  C   C32       1.0  0.15664  0.95392  0.08632  1.0000
  C   C33       1.0  0.19493  0.52733  0.12981  1.0000
  C   C34       1.0  0.69493  0.97267  0.87019  1.0000
  C   C35       1.0  0.80507  0.47267  0.87019  1.0000
  C   C36       1.0  0.30507  0.02733  0.12981  1.0000
  C   C37       1.0  0.19777  0.55714  0.22071  1.0000
  C   C38       1.0  0.69777  0.94286  0.77929  1.0000
  C   C39       1.0  0.80223  0.44286  0.77929  1.0000
  C   C40       1.0  0.30223  0.05714  0.22071  1.0000
  C   C41       1.0  0.34751  0.51269  0.26738  1.0000
  C   C42       1.0  0.84751  0.98731  0.73262  1.0000
  C   C43       1.0  0.65249  0.48731  0.73262  1.0000
  C   C44       1.0  0.15249  0.01269  0.26738  1.0000
  C   C45       1.0  0.35508  0.57357  0.36127  1.0000
  C   C46       1.0  0.85509  0.92643  0.63873  1.0000
  C   C47       1.0  0.64491  0.42643  0.63873  1.0000
  C   C48       1.0  0.14491  0.07358  0.36127  1.0000
  O   O1        1.0  0.48548  0.31990  0.39120  1.0000
  O   O2        1.0  0.98548  0.18010  0.60880  1.0000
  O   O3        1.0  0.51452  0.68010  0.60880  1.0000
  O   O4        1.0  0.01452  0.81991  0.39120  1.0000
  O   O5        1.0  0.79804  0.37770  0.40495  1.0000
  O   O6        1.0  0.29804  0.12230  0.59505  1.0000
  O   O7        1.0  0.20196  0.62230  0.59505  1.0000
  O   O8        1.0  0.70196  0.87770  0.40495  1.0000
  O   O9        1.0  0.51218  0.62720  0.38963  1.0000
  O   O10       1.0  0.01218  0.87280  0.61037  1.0000
  O   O11       1.0  0.48782  0.37280  0.61037  1.0000
  O   O12       1.0  0.98782  0.12720  0.38963  1.0000
  O   O13       1.0  0.20046  0.57501  0.40476  1.0000
  O   O14       1.0  0.70046  0.92499  0.59524  1.0000
  O   O15       1.0  0.79953  0.42499  0.59524  1.0000
  O   O16       1.0  0.29954  0.07501  0.40476  1.0000
  O   O17       1.0  0.16014  0.37758  0.50013  1.0000
  O   O18       1.0  0.66014  0.12242  0.49987  1.0000
  O   O19       1.0  0.83986  0.62242  0.49987  1.0000
  O   O20       1.0  0.33986  0.87758  0.50013  1.0000
