data_image0
_chemical_formula_structural       Cd2H56C64N8O8
_chemical_formula_sum              "Cd2 H56 C64 N8 O8"
_cell_length_a       10.2921
_cell_length_b       12.477
_cell_length_c       12.5531
_cell_angle_alpha    118.349
_cell_angle_beta     95.267
_cell_angle_gamma    94.3638

_space_group_name_H-M_alt    "P 1"
_space_group_IT_number       1

loop_
  _space_group_symop_operation_xyz
  'x, y, z'

loop_
  _atom_site_type_symbol
  _atom_site_label
  _atom_site_symmetry_multiplicity
  _atom_site_fract_x
  _atom_site_fract_y
  _atom_site_fract_z
  _atom_site_occupancy
  Cd  Cd1       1.0  0.23669  0.67113  0.79535  1.0000
  Cd  Cd2       1.0  0.76331  0.32887  0.20465  1.0000
  H   H1        1.0  0.55159  0.95261  0.61169  1.0000
  H   H2        1.0  0.44841  0.04739  0.38831  1.0000
  H   H3        1.0  0.26253  0.97254  0.00229  1.0000
  H   H4        1.0  0.73747  0.02746  0.99771  1.0000
  H   H5        1.0  0.00659  0.68418  0.58947  1.0000
  H   H6        1.0  0.99340  0.31582  0.41053  1.0000
  H   H7        1.0  0.83873  0.76120  0.49704  1.0000
  H   H8        1.0  0.16127  0.23880  0.50296  1.0000
  H   H9        1.0  0.79433  0.97693  0.60702  1.0000
  H   H10       1.0  0.20567  0.02307  0.39298  1.0000
  H   H11       1.0  0.91583  0.12519  0.81292  1.0000
  H   H12       1.0  0.08417  0.87481  0.18708  1.0000
  H   H13       1.0  0.15117  0.22578  0.97132  1.0000
  H   H14       1.0  0.84883  0.77422  0.02868  1.0000
  H   H15       1.0  0.03080  0.19267  0.04726  1.0000
  H   H16       1.0  0.96920  0.80733  0.95274  1.0000
  H   H17       1.0  0.32821  0.18773  0.09381  1.0000
  H   H18       1.0  0.67179  0.81227  0.90619  1.0000
  H   H19       1.0  0.20984  0.15027  0.16927  1.0000
  H   H20       1.0  0.79016  0.84973  0.83073  1.0000
  H   H21       1.0  0.25221  0.40024  0.17675  1.0000
  H   H22       1.0  0.74779  0.59977  0.82325  1.0000
  H   H23       1.0  0.14675  0.35810  0.25814  1.0000
  H   H24       1.0  0.85325  0.64190  0.74186  1.0000
  H   H25       1.0  0.44811  0.37996  0.28792  1.0000
  H   H26       1.0  0.55189  0.62004  0.71208  1.0000
  H   H27       1.0  0.35157  0.30713  0.35170  1.0000
  H   H28       1.0  0.64843  0.69287  0.64830  1.0000
  H   H29       1.0  0.22658  0.43496  0.52532  1.0000
  H   H30       1.0  0.77343  0.56504  0.47469  1.0000
  H   H31       1.0  0.40194  0.88030  0.71816  1.0000
  H   H32       1.0  0.59806  0.11970  0.28184  1.0000
  H   H33       1.0  0.61095  0.80599  0.41094  1.0000
  H   H34       1.0  0.38905  0.19401  0.58906  1.0000
  H   H35       1.0  0.52368  0.58320  0.30772  1.0000
  H   H36       1.0  0.47632  0.41680  0.69229  1.0000
  H   H37       1.0  0.91162  0.51243  0.94919  1.0000
  H   H38       1.0  0.08838  0.48757  0.05081  1.0000
  H   H39       1.0  0.73225  0.36478  0.94590  1.0000
  H   H40       1.0  0.26775  0.63522  0.05410  1.0000
  H   H41       1.0  0.64156  0.17622  0.75083  1.0000
  H   H42       1.0  0.35844  0.82378  0.24917  1.0000
  H   H43       1.0  0.73483  0.13335  0.55942  1.0000
  H   H44       1.0  0.26517  0.86665  0.44058  1.0000
  H   H45       1.0  0.91894  0.27881  0.56609  1.0000
  H   H46       1.0  0.08106  0.72119  0.43391  1.0000
  H   H47       1.0  0.59301  0.54609  0.97529  1.0000
  H   H48       1.0  0.40699  0.45391  0.02471  1.0000
  H   H49       1.0  0.77609  0.57818  0.13633  1.0000
  H   H50       1.0  0.22390  0.42181  0.86367  1.0000
  H   H51       1.0  0.85398  0.78853  0.30959  1.0000
  H   H52       1.0  0.14602  0.21146  0.69041  1.0000
  H   H53       1.0  0.74264  0.96571  0.32557  1.0000
  H   H54       1.0  0.25736  0.03429  0.67443  1.0000
  H   H55       1.0  0.55437  0.92932  0.16467  1.0000
  H   H56       1.0  0.44563  0.07068  0.83533  1.0000
  C   C1        1.0  0.51146  0.85567  0.56934  1.0000
  C   C2        1.0  0.48854  0.14433  0.43066  1.0000
  C   C3        1.0  0.18696  0.95554  0.92785  1.0000
  C   C4        1.0  0.81304  0.04446  0.07215  1.0000
  C   C5        1.0  0.02951  0.98555  0.81629  1.0000
  C   C6        1.0  0.97049  0.01445  0.18371  1.0000
  C   C7        1.0  0.05551  0.86217  0.75446  1.0000
  C   C8        1.0  0.94449  0.13783  0.24554  1.0000
  C   C9        1.0  0.98656  0.77901  0.63867  1.0000
  C   C10       1.0  0.01344  0.22099  0.36133  1.0000
  C   C11       1.0  0.89271  0.82315  0.58799  1.0000
  C   C12       1.0  0.10729  0.17685  0.41201  1.0000
  C   C13       1.0  0.86783  0.94616  0.65048  1.0000
  C   C14       1.0  0.13217  0.05384  0.34952  1.0000
  C   C15       1.0  0.93549  0.03019  0.76590  1.0000
  C   C16       1.0  0.06451  0.96981  0.23410  1.0000
  C   C17       1.0  0.12715  0.17190  0.01704  1.0000
  C   C18       1.0  0.87285  0.82810  0.98296  1.0000
  C   C19       1.0  0.23192  0.20653  0.12537  1.0000
  C   C20       1.0  0.76808  0.79347  0.87463  1.0000
  C   C21       1.0  0.23952  0.34180  0.21954  1.0000
  C   C22       1.0  0.76048  0.65821  0.78046  1.0000
  C   C23       1.0  0.35371  0.37631  0.32107  1.0000
  C   C24       1.0  0.64629  0.62369  0.67893  1.0000
  C   C25       1.0  0.28371  0.50991  0.52223  1.0000
  C   C26       1.0  0.71629  0.49009  0.47777  1.0000
  C   C27       1.0  0.41246  0.60933  0.45632  1.0000
  C   C28       1.0  0.58754  0.39067  0.54368  1.0000
  C   C29       1.0  0.37805  0.69220  0.57152  1.0000
  C   C30       1.0  0.62195  0.30780  0.42848  1.0000
  C   C31       1.0  0.42762  0.81713  0.62924  1.0000
  C   C32       1.0  0.57238  0.18287  0.37076  1.0000
  C   C33       1.0  0.54571  0.77214  0.45525  1.0000
  C   C34       1.0  0.45429  0.22786  0.54475  1.0000
  C   C35       1.0  0.49712  0.64722  0.39613  1.0000
  C   C36       1.0  0.50288  0.35278  0.60387  1.0000
  C   C37       1.0  0.03606  0.49213  0.76094  1.0000
  C   C38       1.0  0.96394  0.50787  0.23906  1.0000
  C   C39       1.0  0.92666  0.40421  0.75815  1.0000
  C   C40       1.0  0.07334  0.59580  0.24185  1.0000
  C   C41       1.0  0.87288  0.42844  0.86471  1.0000
  C   C42       1.0  0.12712  0.57156  0.13529  1.0000
  C   C43       1.0  0.77163  0.34599  0.86207  1.0000
  C   C44       1.0  0.22837  0.65401  0.13793  1.0000
  C   C45       1.0  0.72203  0.23941  0.75245  1.0000
  C   C46       1.0  0.27797  0.76060  0.24754  1.0000
  C   C47       1.0  0.77490  0.21507  0.64576  1.0000
  C   C48       1.0  0.22510  0.78493  0.35424  1.0000
  C   C49       1.0  0.87705  0.29669  0.64855  1.0000
  C   C50       1.0  0.12295  0.70331  0.35145  1.0000
  C   C51       1.0  0.45215  0.71753  0.96535  1.0000
  C   C52       1.0  0.54785  0.28247  0.03465  1.0000
  C   C53       1.0  0.56353  0.73633  0.06094  1.0000
  C   C54       1.0  0.43647  0.26366  0.93905  1.0000
  C   C55       1.0  0.62610  0.63733  0.05274  1.0000
  C   C56       1.0  0.37390  0.36267  0.94726  1.0000
  C   C57       1.0  0.72914  0.65599  0.14278  1.0000
  C   C58       1.0  0.27086  0.34401  0.85722  1.0000
  C   C59       1.0  0.77178  0.77407  0.24066  1.0000
  C   C60       1.0  0.22822  0.22593  0.75934  1.0000
  C   C61       1.0  0.70945  0.87339  0.24947  1.0000
  C   C62       1.0  0.29055  0.12661  0.75053  1.0000
  C   C63       1.0  0.60530  0.85423  0.16037  1.0000
  C   C64       1.0  0.39470  0.14577  0.83962  1.0000
  N   N1        1.0  0.15418  0.84700  0.82729  1.0000
  N   N2        1.0  0.84582  0.15300  0.17271  1.0000
  N   N3        1.0  0.11473  0.04177  0.92613  1.0000
  N   N4        1.0  0.88527  0.95822  0.07387  1.0000
  N   N5        1.0  0.35034  0.49442  0.42857  1.0000
  N   N6        1.0  0.64966  0.50558  0.57143  1.0000
  N   N7        1.0  0.29785  0.62639  0.60988  1.0000
  N   N8        1.0  0.70215  0.37361  0.39013  1.0000
  O   O1        1.0  0.07387  0.59244  0.86217  1.0000
  O   O2        1.0  0.92613  0.40756  0.13783  1.0000
  O   O3        1.0  0.08846  0.46587  0.66513  1.0000
  O   O4        1.0  0.91154  0.53413  0.33487  1.0000
  O   O5        1.0  0.42276  0.61122  0.87020  1.0000
  O   O6        1.0  0.57723  0.38878  0.12980  1.0000
  O   O7        1.0  0.38954  0.80736  0.98218  1.0000
  O   O8        1.0  0.61047  0.19264  0.01782  1.0000
