data_image0
_chemical_formula_structural       Cd2H48C64N8Cl4O8
_chemical_formula_sum              "Cd2 H48 C64 N8 Cl4 O8"
_cell_length_a       9.98826
_cell_length_b       11.259
_cell_length_c       13.1604
_cell_angle_alpha    90.1298
_cell_angle_beta     105.221
_cell_angle_gamma    90.1246

_space_group_name_H-M_alt    "P 1"
_space_group_IT_number       1

loop_
  _space_group_symop_operation_xyz
  'x, y, z'

loop_
  _atom_site_type_symbol
  _atom_site_label
  _atom_site_symmetry_multiplicity
  _atom_site_fract_x
  _atom_site_fract_y
  _atom_site_fract_z
  _atom_site_occupancy
  Cd  Cd1       1.0  0.64165  0.32902  0.73482  1.0000
  Cd  Cd2       1.0  0.35835  0.67098  0.26518  1.0000
  H   H1        1.0  0.90047  0.64336  0.06904  1.0000
  H   H2        1.0  0.09953  0.35663  0.93096  1.0000
  H   H3        1.0  0.82948  0.50426  0.91454  1.0000
  H   H4        1.0  0.17052  0.49574  0.08546  1.0000
  H   H5        1.0  0.25406  0.17450  0.22800  1.0000
  H   H6        1.0  0.74594  0.82550  0.77200  1.0000
  H   H7        1.0  0.07188  0.11748  0.86443  1.0000
  H   H8        1.0  0.92812  0.88252  0.13557  1.0000
  H   H9        1.0  0.35119  0.36945  0.29673  1.0000
  H   H10       1.0  0.64881  0.63056  0.70328  1.0000
  H   H11       1.0  0.25617  0.00326  0.34766  1.0000
  H   H12       1.0  0.74383  0.99674  0.65234  1.0000
  H   H13       1.0  0.53633  0.11719  0.82383  1.0000
  H   H14       1.0  0.46367  0.88281  0.17617  1.0000
  H   H15       1.0  0.54118  0.97076  0.77381  1.0000
  H   H16       1.0  0.45882  0.02924  0.22619  1.0000
  H   H17       1.0  0.38451  0.02600  0.79376  1.0000
  H   H18       1.0  0.61549  0.97400  0.20624  1.0000
  H   H19       1.0  0.47312  0.74906  0.03198  1.0000
  H   H20       1.0  0.52688  0.25094  0.96802  1.0000
  H   H21       1.0  0.72537  0.76390  0.12498  1.0000
  H   H22       1.0  0.27462  0.23610  0.87502  1.0000
  H   H23       1.0  0.25584  0.66726  0.93553  1.0000
  H   H24       1.0  0.74415  0.33274  0.06447  1.0000
  H   H25       1.0  0.17234  0.56814  0.83466  1.0000
  H   H26       1.0  0.82766  0.43186  0.16534  1.0000
  H   H27       1.0  0.12815  0.34381  0.43006  1.0000
  H   H28       1.0  0.87184  0.65619  0.56994  1.0000
  H   H29       1.0  0.33568  0.40273  0.64557  1.0000
  H   H30       1.0  0.66431  0.59727  0.35443  1.0000
  H   H31       1.0  0.23111  0.52791  0.65487  1.0000
  H   H32       1.0  0.76889  0.47209  0.34513  1.0000
  H   H33       1.0  0.22448  0.39940  0.73107  1.0000
  H   H34       1.0  0.77551  0.60060  0.26893  1.0000
  H   H35       1.0  0.95994  0.95427  0.71927  1.0000
  H   H36       1.0  0.04006  0.04573  0.28072  1.0000
  H   H37       1.0  0.09842  0.01512  0.59647  1.0000
  H   H38       1.0  0.90158  0.98487  0.40353  1.0000
  H   H39       1.0  0.46031  0.40026  0.48825  1.0000
  H   H40       1.0  0.53970  0.59975  0.51176  1.0000
  H   H41       1.0  0.38437  0.73132  0.71065  1.0000
  H   H42       1.0  0.61563  0.26868  0.28935  1.0000
  H   H43       1.0  0.02862  0.77806  0.83416  1.0000
  H   H44       1.0  0.97138  0.22194  0.16583  1.0000
  H   H45       1.0  0.43009  0.85737  0.58845  1.0000
  H   H46       1.0  0.56992  0.14263  0.41155  1.0000
  H   H47       1.0  0.27741  0.88869  0.48923  1.0000
  H   H48       1.0  0.72259  0.11132  0.51077  1.0000
  C   C1        1.0  0.92494  0.47019  0.57341  1.0000
  C   C2        1.0  0.07506  0.52981  0.42659  1.0000
  C   C3        1.0  0.79141  0.63528  0.02600  1.0000
  C   C4        1.0  0.20859  0.36472  0.97400  1.0000
  C   C5        1.0  0.99805  0.38386  0.53308  1.0000
  C   C6        1.0  0.00195  0.61614  0.46692  1.0000
  C   C7        1.0  0.75335  0.55667  0.94107  1.0000
  C   C8        1.0  0.24664  0.44333  0.05892  1.0000
  C   C9        1.0  0.29793  0.18561  0.31262  1.0000
  C   C10       1.0  0.70208  0.81439  0.68738  1.0000
  C   C11       1.0  0.35291  0.10978  0.48679  1.0000
  C   C12       1.0  0.64710  0.89022  0.51321  1.0000
  C   C13       1.0  0.04085  0.06632  0.92453  1.0000
  C   C14       1.0  0.95915  0.93368  0.07547  1.0000
  C   C15       1.0  0.35403  0.29671  0.35157  1.0000
  C   C16       1.0  0.64597  0.70329  0.64844  1.0000
  C   C17       1.0  0.43946  0.09956  0.66094  1.0000
  C   C18       1.0  0.56054  0.90044  0.33906  1.0000
  C   C19       1.0  0.29684  0.08957  0.37938  1.0000
  C   C20       1.0  0.70317  0.91043  0.62062  1.0000
  C   C21       1.0  0.41309  0.22007  0.52672  1.0000
  C   C22       1.0  0.58692  0.77993  0.47328  1.0000
  C   C23       1.0  0.47742  0.05097  0.76896  1.0000
  C   C24       1.0  0.52259  0.94903  0.23104  1.0000
  C   C25       1.0  0.55049  0.69641  0.00724  1.0000
  C   C26       1.0  0.44950  0.30358  0.99276  1.0000
  C   C27       1.0  0.69163  0.70341  0.05833  1.0000
  C   C28       1.0  0.30837  0.29659  0.94167  1.0000
  C   C29       1.0  0.40769  0.50466  0.78526  1.0000
  C   C30       1.0  0.59231  0.49533  0.21474  1.0000
  C   C31       1.0  0.13475  0.98987  0.98966  1.0000
  C   C32       1.0  0.86525  0.01013  0.01034  1.0000
  C   C33       1.0  0.61198  0.54774  0.88986  1.0000
  C   C34       1.0  0.38802  0.45226  0.11014  1.0000
  C   C35       1.0  0.51305  0.61732  0.92276  1.0000
  C   C36       1.0  0.48695  0.38267  0.07724  1.0000
  C   C37       1.0  0.83779  0.43553  0.64632  1.0000
  C   C38       1.0  0.16220  0.56447  0.35368  1.0000
  C   C39       1.0  0.25158  0.63857  0.85477  1.0000
  C   C40       1.0  0.74842  0.36143  0.14523  1.0000
  C   C41       1.0  0.07149  0.41231  0.45985  1.0000
  C   C42       1.0  0.92851  0.58769  0.54015  1.0000
  C   C43       1.0  0.29392  0.45597  0.69955  1.0000
  C   C44       1.0  0.70608  0.54403  0.30045  1.0000
  C   C45       1.0  0.81036  0.16192  0.85980  1.0000
  C   C46       1.0  0.18965  0.83808  0.14020  1.0000
  C   C47       1.0  0.05115  0.90351  0.71590  1.0000
  C   C48       1.0  0.94885  0.09649  0.28409  1.0000
  C   C49       1.0  0.90507  0.07816  0.93381  1.0000
  C   C50       1.0  0.09493  0.92184  0.06619  1.0000
  C   C51       1.0  0.12948  0.93848  0.64769  1.0000
  C   C52       1.0  0.87052  0.06152  0.35231  1.0000
  C   C53       1.0  0.41354  0.31533  0.45875  1.0000
  C   C54       1.0  0.58646  0.68467  0.54125  1.0000
  C   C55       1.0  0.28904  0.77796  0.71176  1.0000
  C   C56       1.0  0.71097  0.22204  0.28824  1.0000
  C   C57       1.0  0.09017  0.80496  0.78072  1.0000
  C   C58       1.0  0.90983  0.19504  0.21928  1.0000
  C   C59       1.0  0.33419  0.90951  0.57082  1.0000
  C   C60       1.0  0.66581  0.09049  0.42918  1.0000
  C   C61       1.0  0.21049  0.74202  0.77988  1.0000
  C   C62       1.0  0.78951  0.25798  0.22012  1.0000
  C   C63       1.0  0.24867  0.87534  0.64504  1.0000
  C   C64       1.0  0.75134  0.12466  0.35496  1.0000
  N   N1        1.0  0.37032  0.03598  0.57387  1.0000
  N   N2        1.0  0.62969  0.96402  0.42613  1.0000
  N   N3        1.0  0.54243  0.47846  0.80418  1.0000
  N   N4        1.0  0.45756  0.52153  0.19582  1.0000
  N   N5        1.0  0.38522  0.58701  0.85551  1.0000
  N   N6        1.0  0.61478  0.41299  0.14448  1.0000
  N   N7        1.0  0.46675  0.21017  0.63527  1.0000
  N   N8        1.0  0.53325  0.78983  0.36473  1.0000
  Cl  Cl1       1.0  0.30158  0.98282  0.97458  1.0000
  Cl  Cl2       1.0  0.69842  0.01718  0.02542  1.0000
  Cl  Cl3       1.0  0.00451  0.23956  0.58040  1.0000
  Cl  Cl4       1.0  0.99549  0.76044  0.41961  1.0000
  O   O1        1.0  0.71679  0.39531  0.59850  1.0000
  O   O2        1.0  0.28320  0.60469  0.40149  1.0000
  O   O3        1.0  0.80197  0.15193  0.76253  1.0000
  O   O4        1.0  0.19803  0.84807  0.23747  1.0000
  O   O5        1.0  0.74434  0.24019  0.89819  1.0000
  O   O6        1.0  0.25566  0.75981  0.10181  1.0000
  O   O7        1.0  0.88420  0.44538  0.74427  1.0000
  O   O8        1.0  0.11580  0.55461  0.25573  1.0000
