data_image0
_chemical_formula_structural       Cd2H40C46N8O14
_chemical_formula_sum              "Cd2 H40 C46 N8 O14"
_cell_length_a       10.4537
_cell_length_b       10.7887
_cell_length_c       11.624
_cell_angle_alpha    76.574
_cell_angle_beta     86.2093
_cell_angle_gamma    69.538

_space_group_name_H-M_alt    "P 1"
_space_group_IT_number       1

loop_
  _space_group_symop_operation_xyz
  'x, y, z'

loop_
  _atom_site_type_symbol
  _atom_site_label
  _atom_site_symmetry_multiplicity
  _atom_site_fract_x
  _atom_site_fract_y
  _atom_site_fract_z
  _atom_site_occupancy
  Cd  Cd1       1.0  0.35116  0.85720  0.37025  1.0000
  Cd  Cd2       1.0  0.64884  0.14280  0.62975  1.0000
  H   H1        1.0  0.29707  0.05539  0.53027  1.0000
  H   H2        1.0  0.70293  0.94461  0.46973  1.0000
  H   H3        1.0  0.21473  0.12250  0.40732  1.0000
  H   H4        1.0  0.78527  0.87750  0.59268  1.0000
  H   H5        1.0  0.96300  0.19201  0.37708  1.0000
  H   H6        1.0  0.03700  0.80799  0.62292  1.0000
  H   H7        1.0  0.19114  0.48351  0.33846  1.0000
  H   H8        1.0  0.80886  0.51650  0.66154  1.0000
  H   H9        1.0  0.88351  0.87020  0.34314  1.0000
  H   H10       1.0  0.11649  0.12980  0.65686  1.0000
  H   H11       1.0  0.76406  0.52924  0.33476  1.0000
  H   H12       1.0  0.23593  0.47076  0.66524  1.0000
  H   H13       1.0  0.37522  0.56738  0.57982  1.0000
  H   H14       1.0  0.62478  0.43262  0.42018  1.0000
  H   H15       1.0  0.54236  0.86659  0.59582  1.0000
  H   H16       1.0  0.45765  0.13341  0.40418  1.0000
  H   H17       1.0  0.61768  0.66050  0.80092  1.0000
  H   H18       1.0  0.38232  0.33950  0.19907  1.0000
  H   H19       1.0  0.58677  0.42994  0.86373  1.0000
  H   H20       1.0  0.41323  0.57006  0.13627  1.0000
  H   H21       1.0  0.49389  0.38561  0.76791  1.0000
  H   H22       1.0  0.50612  0.61439  0.23208  1.0000
  H   H23       1.0  0.31030  0.71944  0.82142  1.0000
  H   H24       1.0  0.68971  0.28056  0.17858  1.0000
  H   H25       1.0  0.10444  0.77585  0.94481  1.0000
  H   H26       1.0  0.89556  0.22416  0.05519  1.0000
  H   H27       1.0  0.04251  0.58936  0.08040  1.0000
  H   H28       1.0  0.95748  0.41064  0.91960  1.0000
  H   H29       1.0  0.18577  0.35097  0.09066  1.0000
  H   H30       1.0  0.81423  0.64903  0.90933  1.0000
  H   H31       1.0  0.43868  0.23527  0.87655  1.0000
  H   H32       1.0  0.56132  0.76473  0.12344  1.0000
  H   H33       1.0  0.52296  0.22986  0.00577  1.0000
  H   H34       1.0  0.47704  0.77014  0.99422  1.0000
  H   H35       1.0  0.20167  0.17642  0.91969  1.0000
  H   H36       1.0  0.79834  0.82358  0.08030  1.0000
  H   H37       1.0  0.15364  0.98580  0.11138  1.0000
  H   H38       1.0  0.84636  0.01420  0.88862  1.0000
  H   H39       1.0  0.49577  0.07193  0.19263  1.0000
  H   H40       1.0  0.50423  0.92807  0.80737  1.0000
  C   C1        1.0  0.65827  0.79400  0.33881  1.0000
  C   C2        1.0  0.34173  0.20600  0.66118  1.0000
  C   C3        1.0  0.15585  0.74512  0.34435  1.0000
  C   C4        1.0  0.84415  0.25488  0.65564  1.0000
  C   C5        1.0  0.02339  0.34399  0.33779  1.0000
  C   C6        1.0  0.97661  0.65601  0.66221  1.0000
  C   C7        1.0  0.98159  0.49028  0.33638  1.0000
  C   C8        1.0  0.01841  0.50971  0.66363  1.0000
  C   C9        1.0  0.08379  0.54667  0.33714  1.0000
  C   C10       1.0  0.91621  0.45333  0.66286  1.0000
  C   C11       1.0  0.04785  0.68369  0.33910  1.0000
  C   C12       1.0  0.95215  0.31630  0.66091  1.0000
  C   C13       1.0  0.90977  0.76412  0.33975  1.0000
  C   C14       1.0  0.09022  0.23588  0.66025  1.0000
  C   C15       1.0  0.80731  0.70895  0.33782  1.0000
  C   C16       1.0  0.19268  0.29104  0.66219  1.0000
  C   C17       1.0  0.84397  0.57161  0.33636  1.0000
  C   C18       1.0  0.15603  0.42839  0.66365  1.0000
  C   C19       1.0  0.42867  0.62305  0.61164  1.0000
  C   C20       1.0  0.57132  0.37696  0.38836  1.0000
  C   C21       1.0  0.51810  0.77453  0.62329  1.0000
  C   C22       1.0  0.48189  0.22547  0.37671  1.0000
  C   C23       1.0  0.55385  0.67567  0.72577  1.0000
  C   C24       1.0  0.44615  0.32433  0.27424  1.0000
  C   C25       1.0  0.49218  0.46693  0.81037  1.0000
  C   C26       1.0  0.50782  0.53308  0.18963  1.0000
  C   C27       1.0  0.36701  0.50300  0.88657  1.0000
  C   C28       1.0  0.63299  0.49700  0.11342  1.0000
  C   C29       1.0  0.28437  0.63805  0.88162  1.0000
  C   C30       1.0  0.71563  0.36195  0.11837  1.0000
  C   C31       1.0  0.16810  0.67001  0.95092  1.0000
  C   C32       1.0  0.83190  0.32999  0.04908  1.0000
  C   C33       1.0  0.13311  0.56622  0.02608  1.0000
  C   C34       1.0  0.86688  0.43378  0.97392  1.0000
  C   C35       1.0  0.21458  0.43105  0.03154  1.0000
  C   C36       1.0  0.78542  0.56895  0.96847  1.0000
  C   C37       1.0  0.33164  0.39790  0.96287  1.0000
  C   C38       1.0  0.66837  0.60210  0.03713  1.0000
  C   C39       1.0  0.42185  0.25190  0.96710  1.0000
  C   C40       1.0  0.57815  0.74809  0.03289  1.0000
  C   C41       1.0  0.25386  0.12592  0.00428  1.0000
  C   C42       1.0  0.74613  0.87408  0.99572  1.0000
  C   C43       1.0  0.23207  0.03190  0.09853  1.0000
  C   C44       1.0  0.76793  0.96811  0.90147  1.0000
  C   C45       1.0  0.40840  0.07408  0.14546  1.0000
  C   C46       1.0  0.59160  0.92592  0.85454  1.0000
  N   N1        1.0  0.44003  0.74027  0.55328  1.0000
  N   N2        1.0  0.55997  0.25974  0.44672  1.0000
  N   N3        1.0  0.49637  0.58083  0.71701  1.0000
  N   N4        1.0  0.50363  0.41917  0.28298  1.0000
  N   N5        1.0  0.36586  0.15197  0.03576  1.0000
  N   N6        1.0  0.63414  0.84803  0.96424  1.0000
  N   N7        1.0  0.32934  0.00043  0.18545  1.0000
  N   N8        1.0  0.67065  0.99958  0.81455  1.0000
  O   O1        1.0  0.62326  0.90736  0.36818  1.0000
  O   O2        1.0  0.37674  0.09263  0.63183  1.0000
  O   O3        1.0  0.25192  0.03612  0.46639  1.0000
  O   O4        1.0  0.74807  0.96388  0.53361  1.0000
  O   O5        1.0  0.57437  0.74426  0.30902  1.0000
  O   O6        1.0  0.42563  0.25574  0.69098  1.0000
  O   O7        1.0  0.11725  0.87223  0.33938  1.0000
  O   O8        1.0  0.88275  0.12777  0.66063  1.0000
  O   O9        1.0  0.28047  0.66730  0.35483  1.0000
  O   O10       1.0  0.71953  0.33270  0.64517  1.0000
  O   O11       1.0  0.13859  0.27617  0.31084  1.0000
  O   O12       1.0  0.86141  0.72383  0.68916  1.0000
  O   O13       1.0  0.92497  0.28996  0.37377  1.0000
  O   O14       1.0  0.07504  0.71003  0.62623  1.0000
