data_image0
_chemical_formula_structural       Cu4H56C24N32
_chemical_formula_sum              "Cu4 H56 C24 N32"
_cell_length_a       6.8219
_cell_length_b       11.9211
_cell_length_c       13.295
_cell_angle_alpha    94.0571
_cell_angle_beta     90
_cell_angle_gamma    90

_space_group_name_H-M_alt    "P 1"
_space_group_IT_number       1

loop_
  _space_group_symop_operation_xyz
  'x, y, z'

loop_
  _atom_site_type_symbol
  _atom_site_label
  _atom_site_symmetry_multiplicity
  _atom_site_fract_x
  _atom_site_fract_y
  _atom_site_fract_z
  _atom_site_occupancy
  Cu  Cu1       1.0  0.84990  0.02539  0.09950  1.0000
  Cu  Cu2       1.0  0.34990  0.97460  0.40050  1.0000
  Cu  Cu3       1.0  0.15010  0.97459  0.90050  1.0000
  Cu  Cu4       1.0  0.65010  0.02541  0.59950  1.0000
  H   H1        1.0  0.69609  0.24494  0.21853  1.0000
  H   H2        1.0  0.19608  0.75505  0.28147  1.0000
  H   H3        1.0  0.30391  0.75504  0.78147  1.0000
  H   H4        1.0  0.80391  0.24496  0.71853  1.0000
  H   H5        1.0  0.84099  0.25459  0.00246  1.0000
  H   H6        1.0  0.34099  0.74540  0.49754  1.0000
  H   H7        1.0  0.15901  0.74540  0.99755  1.0000
  H   H8        1.0  0.65901  0.25460  0.50245  1.0000
  H   H9        1.0  0.08031  0.39536  0.07556  1.0000
  H   H10       1.0  0.58031  0.60465  0.42443  1.0000
  H   H11       1.0  0.91969  0.60464  0.92445  1.0000
  H   H12       1.0  0.41969  0.39536  0.57556  1.0000
  H   H13       1.0  0.97749  0.38536  0.19664  1.0000
  H   H14       1.0  0.47749  0.61465  0.30336  1.0000
  H   H15       1.0  0.02250  0.61465  0.80337  1.0000
  H   H16       1.0  0.52249  0.38535  0.69663  1.0000
  H   H17       1.0  0.76740  0.47175  0.01258  1.0000
  H   H18       1.0  0.26741  0.52825  0.48742  1.0000
  H   H19       1.0  0.23260  0.52825  0.98742  1.0000
  H   H20       1.0  0.73259  0.47175  0.51258  1.0000
  H   H21       1.0  0.84472  0.55544  0.12049  1.0000
  H   H22       1.0  0.34472  0.44457  0.37950  1.0000
  H   H23       1.0  0.15529  0.44456  0.87951  1.0000
  H   H24       1.0  0.65528  0.55543  0.62049  1.0000
  H   H25       1.0  0.48697  0.51303  0.12848  1.0000
  H   H26       1.0  0.98698  0.48697  0.37151  1.0000
  H   H27       1.0  0.51303  0.48697  0.87151  1.0000
  H   H28       1.0  0.01301  0.51303  0.62849  1.0000
  H   H29       1.0  0.61539  0.45649  0.22835  1.0000
  H   H30       1.0  0.11539  0.54352  0.27165  1.0000
  H   H31       1.0  0.38461  0.54352  0.77165  1.0000
  H   H32       1.0  0.88461  0.45648  0.72835  1.0000
  H   H33       1.0  0.38062  0.31431  0.15460  1.0000
  H   H34       1.0  0.88061  0.68568  0.34539  1.0000
  H   H35       1.0  0.61939  0.68569  0.84539  1.0000
  H   H36       1.0  0.11938  0.31431  0.65461  1.0000
  H   H37       1.0  0.48433  0.32434  0.03296  1.0000
  H   H38       1.0  0.98432  0.67566  0.46704  1.0000
  H   H39       1.0  0.51568  0.67566  0.96704  1.0000
  H   H40       1.0  0.01568  0.32434  0.53296  1.0000
  H   H41       1.0  0.53539  0.12122  0.03729  1.0000
  H   H42       1.0  0.03541  0.87879  0.46271  1.0000
  H   H43       1.0  0.46458  0.87879  0.96270  1.0000
  H   H44       1.0  0.96455  0.12121  0.53729  1.0000
  H   H45       1.0  0.51434  0.09267  0.15628  1.0000
  H   H46       1.0  0.01434  0.90733  0.34372  1.0000
  H   H47       1.0  0.48565  0.90733  0.84371  1.0000
  H   H48       1.0  0.98565  0.09267  0.65628  1.0000
  H   H49       1.0  0.05979  0.18933  0.17938  1.0000
  H   H50       1.0  0.55978  0.81067  0.32063  1.0000
  H   H51       1.0  0.94022  0.81066  0.82062  1.0000
  H   H52       1.0  0.44023  0.18933  0.67937  1.0000
  H   H53       1.0  0.11473  0.16550  0.05665  1.0000
  H   H54       1.0  0.61471  0.83451  0.44335  1.0000
  H   H55       1.0  0.88528  0.83450  0.94335  1.0000
  H   H56       1.0  0.38529  0.16549  0.55665  1.0000
  C   C1        1.0  0.66967  0.24161  0.13641  1.0000
  C   C2        1.0  0.16966  0.75838  0.36360  1.0000
  C   C3        1.0  0.33034  0.75838  0.86360  1.0000
  C   C4        1.0  0.83035  0.24163  0.63640  1.0000
  C   C5        1.0  0.86500  0.26363  0.08468  1.0000
  C   C6        1.0  0.36501  0.73636  0.41532  1.0000
  C   C7        1.0  0.13500  0.73636  0.91532  1.0000
  C   C8        1.0  0.63498  0.26365  0.58468  1.0000
  C   C9        1.0  0.94238  0.38127  0.11561  1.0000
  C   C10       1.0  0.44238  0.61873  0.38439  1.0000
  C   C11       1.0  0.05761  0.61872  0.88439  1.0000
  C   C12       1.0  0.55762  0.38129  0.61561  1.0000
  C   C13       1.0  0.79064  0.47131  0.09471  1.0000
  C   C14       1.0  0.29064  0.52868  0.40528  1.0000
  C   C15       1.0  0.20937  0.52869  0.90529  1.0000
  C   C16       1.0  0.70936  0.47132  0.59471  1.0000
  C   C17       1.0  0.59513  0.44867  0.14585  1.0000
  C   C18       1.0  0.09514  0.55133  0.35415  1.0000
  C   C19       1.0  0.40486  0.55133  0.85416  1.0000
  C   C20       1.0  0.90486  0.44867  0.64585  1.0000
  C   C21       1.0  0.51738  0.33082  0.11447  1.0000
  C   C22       1.0  0.01737  0.66916  0.38552  1.0000
  C   C23       1.0  0.48263  0.66917  0.88553  1.0000
  C   C24       1.0  0.98263  0.33084  0.61447  1.0000
  N   N1        1.0  0.60929  0.12527  0.10536  1.0000
  N   N2        1.0  0.10928  0.87473  0.39464  1.0000
  N   N3        1.0  0.39071  0.87473  0.89463  1.0000
  N   N4        1.0  0.89072  0.12527  0.60537  1.0000
  N   N5        1.0  0.00166  0.17276  0.10811  1.0000
  N   N6        1.0  0.50166  0.82724  0.39189  1.0000
  N   N7        1.0  0.99833  0.82723  0.89189  1.0000
  N   N8        1.0  0.49832  0.17276  0.60812  1.0000
  N   N9        1.0  0.09643  0.93187  0.09936  1.0000
  N   N10       1.0  0.59644  0.06810  0.40065  1.0000
  N   N11       1.0  0.90357  0.06811  0.90066  1.0000
  N   N12       1.0  0.40356  0.93191  0.59933  1.0000
  N   N13       1.0  0.21816  0.95985  0.16086  1.0000
  N   N14       1.0  0.71817  0.04014  0.33914  1.0000
  N   N15       1.0  0.78183  0.04014  0.83915  1.0000
  N   N16       1.0  0.28183  0.95987  0.66085  1.0000
  N   N17       1.0  0.34092  0.98624  0.22015  1.0000
  N   N18       1.0  0.84090  0.01376  0.27984  1.0000
  N   N19       1.0  0.65909  0.01375  0.77986  1.0000
  N   N20       1.0  0.15911  0.98624  0.72015  1.0000
  N   N21       1.0  0.69133  0.88608  0.06128  1.0000
  N   N22       1.0  0.19130  0.11389  0.43872  1.0000
  N   N23       1.0  0.30869  0.11389  0.93872  1.0000
  N   N24       1.0  0.80872  0.88613  0.56128  1.0000
  N   N25       1.0  0.68026  0.81793  0.12375  1.0000
  N   N26       1.0  0.18025  0.18206  0.37625  1.0000
  N   N27       1.0  0.31976  0.18206  0.87625  1.0000
  N   N28       1.0  0.81977  0.81795  0.62374  1.0000
  N   N29       1.0  0.66640  0.75027  0.18299  1.0000
  N   N30       1.0  0.16641  0.24971  0.31702  1.0000
  N   N31       1.0  0.33360  0.24972  0.81701  1.0000
  N   N32       1.0  0.83359  0.75029  0.68297  1.0000
