data_image0
_chemical_formula_structural       Cd2H44C40N8O8
_chemical_formula_sum              "Cd2 H44 C40 N8 O8"
_cell_length_a       8.66702
_cell_length_b       8.68401
_cell_length_c       13.4106
_cell_angle_alpha    94.4413
_cell_angle_beta     94.4501
_cell_angle_gamma    95.8171

_space_group_name_H-M_alt    "P 1"
_space_group_IT_number       1

loop_
  _space_group_symop_operation_xyz
  'x, y, z'

loop_
  _atom_site_type_symbol
  _atom_site_label
  _atom_site_symmetry_multiplicity
  _atom_site_fract_x
  _atom_site_fract_y
  _atom_site_fract_z
  _atom_site_occupancy
  Cd  Cd1       1.0  0.76691  0.23312  0.74986  1.0000
  Cd  Cd2       1.0  0.23309  0.76688  0.25014  1.0000
  H   H1        1.0  0.36007  0.02564  0.94285  1.0000
  H   H2        1.0  0.97419  0.63986  0.55710  1.0000
  H   H3        1.0  0.63993  0.97436  0.05715  1.0000
  H   H4        1.0  0.02581  0.36014  0.44291  1.0000
  H   H5        1.0  0.24944  0.11091  0.84744  1.0000
  H   H6        1.0  0.88846  0.75015  0.65242  1.0000
  H   H7        1.0  0.75056  0.88909  0.15256  1.0000
  H   H8        1.0  0.11154  0.24985  0.34758  1.0000
  H   H9        1.0  0.52546  0.79981  0.84598  1.0000
  H   H10       1.0  0.20027  0.47508  0.65420  1.0000
  H   H11       1.0  0.47454  0.20019  0.15402  1.0000
  H   H12       1.0  0.79973  0.52492  0.34580  1.0000
  H   H13       1.0  0.46004  0.54044  0.75013  1.0000
  H   H14       1.0  0.53996  0.45956  0.24987  1.0000
  H   H15       1.0  0.07364  0.92603  0.74989  1.0000
  H   H16       1.0  0.92636  0.07397  0.25011  1.0000
  H   H17       1.0  0.90720  0.12632  0.52277  1.0000
  H   H18       1.0  0.87366  0.09276  0.97709  1.0000
  H   H19       1.0  0.09280  0.87368  0.47723  1.0000
  H   H20       1.0  0.12634  0.90724  0.02291  1.0000
  H   H21       1.0  0.74895  0.88444  0.39047  1.0000
  H   H22       1.0  0.11557  0.25117  0.10952  1.0000
  H   H23       1.0  0.25105  0.11556  0.60953  1.0000
  H   H24       1.0  0.88443  0.74883  0.89048  1.0000
  H   H25       1.0  0.54664  0.89577  0.66732  1.0000
  H   H26       1.0  0.10409  0.45322  0.83274  1.0000
  H   H27       1.0  0.45336  0.10423  0.33268  1.0000
  H   H28       1.0  0.89591  0.54678  0.16726  1.0000
  H   H29       1.0  0.49670  0.71508  0.39913  1.0000
  H   H30       1.0  0.28485  0.50334  0.10093  1.0000
  H   H31       1.0  0.50330  0.28492  0.60087  1.0000
  H   H32       1.0  0.71515  0.49666  0.89907  1.0000
  H   H33       1.0  0.39378  0.73816  0.50800  1.0000
  H   H34       1.0  0.26155  0.60598  0.99200  1.0000
  H   H35       1.0  0.60622  0.26184  0.49200  1.0000
  H   H36       1.0  0.73845  0.39402  0.00800  1.0000
  H   H37       1.0  0.58092  0.58033  0.59938  1.0000
  H   H38       1.0  0.41958  0.41916  0.90064  1.0000
  H   H39       1.0  0.41908  0.41967  0.40062  1.0000
  H   H40       1.0  0.58042  0.58084  0.09936  1.0000
  H   H41       1.0  0.67233  0.54869  0.48744  1.0000
  H   H42       1.0  0.45140  0.32801  0.01259  1.0000
  H   H43       1.0  0.32768  0.45131  0.51256  1.0000
  H   H44       1.0  0.54859  0.67199  0.98741  1.0000
  C   C1        1.0  0.49567  0.11627  0.82913  1.0000
  C   C2        1.0  0.88351  0.50437  0.67085  1.0000
  C   C3        1.0  0.50433  0.88373  0.17087  1.0000
  C   C4        1.0  0.11649  0.49563  0.32915  1.0000
  C   C5        1.0  0.34390  0.03835  0.86171  1.0000
  C   C6        1.0  0.96133  0.65598  0.63822  1.0000
  C   C7        1.0  0.65610  0.96165  0.13829  1.0000
  C   C8        1.0  0.03867  0.34402  0.36178  1.0000
  C   C9        1.0  0.30371  0.87972  0.80478  1.0000
  C   C10       1.0  0.12019  0.69638  0.69520  1.0000
  C   C11       1.0  0.69629  0.12027  0.19522  1.0000
  C   C12       1.0  0.87981  0.30362  0.30479  1.0000
  C   C13       1.0  0.41159  0.76955  0.80470  1.0000
  C   C14       1.0  0.23059  0.58876  0.69544  1.0000
  C   C15       1.0  0.58841  0.23045  0.19530  1.0000
  C   C16       1.0  0.76941  0.41124  0.30456  1.0000
  C   C17       1.0  0.37520  0.62516  0.75009  1.0000
  C   C18       1.0  0.62480  0.37484  0.24991  1.0000
  C   C19       1.0  0.15870  0.84121  0.74994  1.0000
  C   C20       1.0  0.84130  0.15879  0.25006  1.0000
  C   C21       1.0  0.81086  0.04123  0.53332  1.0000
  C   C22       1.0  0.95873  0.18902  0.96657  1.0000
  C   C23       1.0  0.18914  0.95877  0.46668  1.0000
  C   C24       1.0  0.04127  0.81098  0.03343  1.0000
  C   C25       1.0  0.73451  0.92339  0.46765  1.0000
  C   C26       1.0  0.07654  0.26558  0.03237  1.0000
  C   C27       1.0  0.26549  0.07661  0.53235  1.0000
  C   C28       1.0  0.92346  0.73442  0.96763  1.0000
  C   C29       1.0  0.62560  0.92737  0.61154  1.0000
  C   C30       1.0  0.07246  0.37432  0.88847  1.0000
  C   C31       1.0  0.37440  0.07263  0.38846  1.0000
  C   C32       1.0  0.92754  0.62568  0.11153  1.0000
  C   C33       1.0  0.50749  0.71853  0.48133  1.0000
  C   C34       1.0  0.28125  0.49251  0.01873  1.0000
  C   C35       1.0  0.49251  0.28147  0.51867  1.0000
  C   C36       1.0  0.71875  0.50749  0.98127  1.0000
  C   C37       1.0  0.56040  0.56867  0.51705  1.0000
  C   C38       1.0  0.43128  0.43969  0.98296  1.0000
  C   C39       1.0  0.43960  0.43133  0.48295  1.0000
  C   C40       1.0  0.56872  0.56031  0.01704  1.0000
  N   N1        1.0  0.74173  0.04209  0.62291  1.0000
  N   N2        1.0  0.95786  0.25811  0.87700  1.0000
  N   N3        1.0  0.25827  0.95792  0.37709  1.0000
  N   N4        1.0  0.04214  0.74189  0.12300  1.0000
  N   N5        1.0  0.61731  0.85338  0.51839  1.0000
  N   N6        1.0  0.14634  0.38279  0.98169  1.0000
  N   N7        1.0  0.38269  0.14662  0.48161  1.0000
  N   N8        1.0  0.85366  0.61721  0.01831  1.0000
  O   O1        1.0  0.62326  0.07489  0.86583  1.0000
  O   O2        1.0  0.92501  0.37706  0.63409  1.0000
  O   O3        1.0  0.37674  0.92511  0.13417  1.0000
  O   O4        1.0  0.07499  0.62294  0.36592  1.0000
  O   O5        1.0  0.48915  0.21500  0.76315  1.0000
  O   O6        1.0  0.78478  0.51073  0.73692  1.0000
  O   O7        1.0  0.51085  0.78500  0.23685  1.0000
  O   O8        1.0  0.21522  0.48928  0.26308  1.0000
