data_image0
_chemical_formula_structural       Ag4H32C44N12O16
_chemical_formula_sum              "Ag4 H32 C44 N12 O16"
_cell_length_a       7.7268
_cell_length_b       11.7019
_cell_length_c       12.5082
_cell_angle_alpha    90
_cell_angle_beta     93.2977
_cell_angle_gamma    90

_space_group_name_H-M_alt    "P 1"
_space_group_IT_number       1

loop_
  _space_group_symop_operation_xyz
  'x, y, z'

loop_
  _atom_site_type_symbol
  _atom_site_label
  _atom_site_symmetry_multiplicity
  _atom_site_fract_x
  _atom_site_fract_y
  _atom_site_fract_z
  _atom_site_occupancy
  Ag  Ag1       1.0  0.00278  0.79842  0.32148  1.0000
  Ag  Ag2       1.0  0.49722  0.79841  0.17852  1.0000
  Ag  Ag3       1.0  0.99722  0.20158  0.67852  1.0000
  Ag  Ag4       1.0  0.50278  0.20159  0.82148  1.0000
  H   H1        1.0  0.21207  0.30680  0.40743  1.0000
  H   H2        1.0  0.28793  0.30680  0.09257  1.0000
  H   H3        1.0  0.78793  0.69320  0.59257  1.0000
  H   H4        1.0  0.71207  0.69320  0.90743  1.0000
  H   H5        1.0  0.43490  0.46183  0.40750  1.0000
  H   H6        1.0  0.06510  0.46183  0.09250  1.0000
  H   H7        1.0  0.56510  0.53817  0.59250  1.0000
  H   H8        1.0  0.93490  0.53817  0.90750  1.0000
  H   H9        1.0  0.33697  0.66367  0.37385  1.0000
  H   H10       1.0  0.16303  0.66367  0.12615  1.0000
  H   H11       1.0  0.66303  0.33633  0.62615  1.0000
  H   H12       1.0  0.83697  0.33633  0.87385  1.0000
  H   H13       1.0  0.82105  0.56605  0.33995  1.0000
  H   H14       1.0  0.67895  0.56605  0.16005  1.0000
  H   H15       1.0  0.17895  0.43395  0.66005  1.0000
  H   H16       1.0  0.32105  0.43395  0.83995  1.0000
  H   H17       1.0  0.09837  0.02131  0.20035  1.0000
  H   H18       1.0  0.40163  0.02131  0.29965  1.0000
  H   H19       1.0  0.90163  0.97869  0.79965  1.0000
  H   H20       1.0  0.59837  0.97869  0.70035  1.0000
  H   H21       1.0  0.06243  0.23101  0.21952  1.0000
  H   H22       1.0  0.43757  0.23101  0.28047  1.0000
  H   H23       1.0  0.93757  0.76899  0.78048  1.0000
  H   H24       1.0  0.56243  0.76899  0.71953  1.0000
  H   H25       1.0  0.73570  0.16180  0.48261  1.0000
  H   H26       1.0  0.76430  0.16180  0.01738  1.0000
  H   H27       1.0  0.26430  0.83820  0.51739  1.0000
  H   H28       1.0  0.23570  0.83821  0.98262  1.0000
  H   H29       1.0  0.80349  0.95720  0.46158  1.0000
  H   H30       1.0  0.69651  0.95720  0.03842  1.0000
  H   H31       1.0  0.19651  0.04280  0.53842  1.0000
  H   H32       1.0  0.30349  0.04280  0.96158  1.0000
  C   C1        1.0  0.99912  0.42448  0.36806  1.0000
  C   C2        1.0  0.50088  0.42448  0.13194  1.0000
  C   C3        1.0  0.00089  0.57552  0.63194  1.0000
  C   C4        1.0  0.49911  0.57552  0.86806  1.0000
  C   C5        1.0  0.17358  0.39486  0.38942  1.0000
  C   C6        1.0  0.32642  0.39486  0.11058  1.0000
  C   C7        1.0  0.82643  0.60514  0.61058  1.0000
  C   C8        1.0  0.67358  0.60514  0.88942  1.0000
  C   C9        1.0  0.29780  0.48113  0.39204  1.0000
  C   C10       1.0  0.20220  0.48113  0.10796  1.0000
  C   C11       1.0  0.70221  0.51887  0.60796  1.0000
  C   C12       1.0  0.79779  0.51887  0.89203  1.0000
  C   C13       1.0  0.24470  0.59331  0.37375  1.0000
  C   C14       1.0  0.25530  0.59331  0.12625  1.0000
  C   C15       1.0  0.75531  0.40668  0.62625  1.0000
  C   C16       1.0  0.74470  0.40669  0.87375  1.0000
  C   C17       1.0  0.95593  0.53982  0.35279  1.0000
  C   C18       1.0  0.54407  0.53981  0.14721  1.0000
  C   C19       1.0  0.04407  0.46018  0.64721  1.0000
  C   C20       1.0  0.45593  0.46019  0.85279  1.0000
  C   C21       1.0  0.02691  0.05646  0.26533  1.0000
  C   C22       1.0  0.47309  0.05646  0.23467  1.0000
  C   C23       1.0  0.97309  0.94354  0.73466  1.0000
  C   C24       1.0  0.52691  0.94355  0.76534  1.0000
  C   C25       1.0  0.00537  0.17394  0.27647  1.0000
  C   C26       1.0  0.49463  0.17394  0.22353  1.0000
  C   C27       1.0  0.99463  0.82607  0.72353  1.0000
  C   C28       1.0  0.50536  0.82607  0.77647  1.0000
  C   C29       1.0  0.90095  0.21472  0.35590  1.0000
  C   C30       1.0  0.59905  0.21472  0.14410  1.0000
  C   C31       1.0  0.09905  0.78528  0.64410  1.0000
  C   C32       1.0  0.40095  0.78528  0.85590  1.0000
  C   C33       1.0  0.82326  0.13568  0.42183  1.0000
  C   C34       1.0  0.67674  0.13568  0.07817  1.0000
  C   C35       1.0  0.17674  0.86432  0.57817  1.0000
  C   C36       1.0  0.32326  0.86432  0.92183  1.0000
  C   C37       1.0  0.85798  0.02025  0.40895  1.0000
  C   C38       1.0  0.64202  0.02025  0.09104  1.0000
  C   C39       1.0  0.14202  0.97975  0.59105  1.0000
  C   C40       1.0  0.35798  0.97975  0.90896  1.0000
  C   C41       1.0  0.85759  0.33874  0.36739  1.0000
  C   C42       1.0  0.64240  0.33874  0.13261  1.0000
  C   C43       1.0  0.14241  0.66126  0.63261  1.0000
  C   C44       1.0  0.35761  0.66126  0.86739  1.0000
  N   N1        1.0  0.07610  0.62277  0.35513  1.0000
  N   N2        1.0  0.42391  0.62277  0.14487  1.0000
  N   N3        1.0  0.92391  0.37723  0.64487  1.0000
  N   N4        1.0  0.57609  0.37723  0.85513  1.0000
  N   N5        1.0  0.92279  0.80135  0.06850  1.0000
  N   N6        1.0  0.57721  0.80135  0.43150  1.0000
  N   N7        1.0  0.07721  0.19865  0.93150  1.0000
  N   N8        1.0  0.42279  0.19865  0.56850  1.0000
  N   N9        1.0  0.95771  0.98049  0.33188  1.0000
  N   N10       1.0  0.54229  0.98048  0.16812  1.0000
  N   N11       1.0  0.04229  0.01951  0.66812  1.0000
  N   N12       1.0  0.45770  0.01952  0.83188  1.0000
  O   O1        1.0  0.87592  0.82963  0.97387  1.0000
  O   O2        1.0  0.62408  0.82963  0.52613  1.0000
  O   O3        1.0  0.12408  0.17037  0.02613  1.0000
  O   O4        1.0  0.37592  0.17037  0.47387  1.0000
  O   O5        1.0  0.06466  0.83957  0.11224  1.0000
  O   O6        1.0  0.43534  0.83957  0.38776  1.0000
  O   O7        1.0  0.93534  0.16043  0.88776  1.0000
  O   O8        1.0  0.56466  0.16043  0.61224  1.0000
  O   O9        1.0  0.82973  0.73496  0.12206  1.0000
  O   O10       1.0  0.67027  0.73496  0.37794  1.0000
  O   O11       1.0  0.17027  0.26503  0.87794  1.0000
  O   O12       1.0  0.32973  0.26503  0.62206  1.0000
  O   O13       1.0  0.70527  0.36715  0.37735  1.0000
  O   O14       1.0  0.79474  0.36716  0.12265  1.0000
  O   O15       1.0  0.29473  0.63285  0.62265  1.0000
  O   O16       1.0  0.20525  0.63284  0.87735  1.0000
