data_image0
_chemical_formula_structural       Ni3H60C48S6N18
_chemical_formula_sum              "Ni3 H60 C48 S6 N18"
_cell_length_a       8.57539
_cell_length_b       10.8521
_cell_length_c       16.4272
_cell_angle_alpha    71.8915
_cell_angle_beta     75.8443
_cell_angle_gamma    71.3586

_space_group_name_H-M_alt    "P 1"
_space_group_IT_number       1

loop_
  _space_group_symop_operation_xyz
  'x, y, z'

loop_
  _atom_site_type_symbol
  _atom_site_label
  _atom_site_symmetry_multiplicity
  _atom_site_fract_x
  _atom_site_fract_y
  _atom_site_fract_z
  _atom_site_occupancy
  Ni  Ni1       1.0  0.99980  0.50005  0.50000  1.0000
  Ni  Ni2       1.0  0.67537  0.49852  0.83521  1.0000
  Ni  Ni3       1.0  0.32469  0.50157  0.16474  1.0000
  H   H1        1.0  0.76928  0.71327  0.59163  1.0000
  H   H2        1.0  0.23079  0.28691  0.40849  1.0000
  H   H3        1.0  0.68025  0.95795  0.56750  1.0000
  H   H4        1.0  0.31992  0.04219  0.43254  1.0000
  H   H5        1.0  0.03824  0.97965  0.32775  1.0000
  H   H6        1.0  0.96201  0.02028  0.67230  1.0000
  H   H7        1.0  0.10487  0.73288  0.36256  1.0000
  H   H8        1.0  0.89526  0.26696  0.63757  1.0000
  H   H9        1.0  0.54914  0.17554  0.48511  1.0000
  H   H10       1.0  0.45105  0.82441  0.51492  1.0000
  H   H11       1.0  0.64678  0.30754  0.45993  1.0000
  H   H12       1.0  0.35326  0.69248  0.54001  1.0000
  H   H13       1.0  0.69226  0.16954  0.55041  1.0000
  H   H14       1.0  0.30793  0.83054  0.44958  1.0000
  H   H15       1.0  0.01721  0.18227  0.34339  1.0000
  H   H16       1.0  0.98289  0.81783  0.65658  1.0000
  H   H17       1.0  0.83789  0.31774  0.35154  1.0000
  H   H18       1.0  0.16206  0.68227  0.64836  1.0000
  H   H19       1.0  0.84821  0.20608  0.28969  1.0000
  H   H20       1.0  0.15195  0.79377  0.71030  1.0000
  H   H21       1.0  0.93261  0.26607  0.77225  1.0000
  H   H22       1.0  0.06736  0.73377  0.22764  1.0000
  H   H23       1.0  0.03115  0.01961  0.81851  1.0000
  H   H24       1.0  0.96876  0.98031  0.18147  1.0000
  H   H25       1.0  0.65093  0.03853  0.04839  1.0000
  H   H26       1.0  0.34897  0.96160  0.95157  1.0000
  H   H27       1.0  0.57672  0.28322  0.99246  1.0000
  H   H28       1.0  0.42301  0.71688  0.00736  1.0000
  H   H29       1.0  0.00145  0.80440  0.84883  1.0000
  H   H30       1.0  0.99844  0.19558  0.15121  1.0000
  H   H31       1.0  0.04339  0.67996  0.94656  1.0000
  H   H32       1.0  0.95649  0.32004  0.05349  1.0000
  H   H33       1.0  0.14764  0.80907  0.90809  1.0000
  H   H34       1.0  0.85227  0.19090  0.09194  1.0000
  H   H35       1.0  0.81271  0.82696  0.10175  1.0000
  H   H36       1.0  0.18718  0.17315  0.89827  1.0000
  H   H37       1.0  0.85759  0.68897  0.05653  1.0000
  H   H38       1.0  0.14238  0.31109  0.94356  1.0000
  H   H39       1.0  0.67109  0.81916  0.04048  1.0000
  H   H40       1.0  0.32884  0.18085  0.95956  1.0000
  H   H41       1.0  0.43482  0.71700  0.72286  1.0000
  H   H42       1.0  0.56505  0.28290  0.27728  1.0000
  H   H43       1.0  0.33772  0.96415  0.67828  1.0000
  H   H44       1.0  0.66222  0.03579  0.32181  1.0000
  H   H45       1.0  0.68771  0.97363  0.82698  1.0000
  H   H46       1.0  0.31235  0.02631  0.17302  1.0000
  H   H47       1.0  0.76207  0.72588  0.86653  1.0000
  H   H48       1.0  0.23803  0.27408  0.13346  1.0000
  H   H49       1.0  0.34889  0.16849  0.61312  1.0000
  H   H50       1.0  0.65121  0.83137  0.38688  1.0000
  H   H51       1.0  0.32130  0.31078  0.65128  1.0000
  H   H52       1.0  0.67867  0.68911  0.34870  1.0000
  H   H53       1.0  0.20442  0.19262  0.70878  1.0000
  H   H54       1.0  0.79568  0.80721  0.29122  1.0000
  H   H55       1.0  0.51471  0.18386  0.82600  1.0000
  H   H56       1.0  0.48533  0.81608  0.17398  1.0000
  H   H57       1.0  0.47691  0.31531  0.73116  1.0000
  H   H58       1.0  0.52310  0.68465  0.26883  1.0000
  H   H59       1.0  0.66855  0.18877  0.73097  1.0000
  H   H60       1.0  0.33148  0.81120  0.26901  1.0000
  C   C1        1.0  0.00749  0.49303  0.69087  1.0000
  C   C2        1.0  0.99217  0.50696  0.30906  1.0000
  C   C3        1.0  0.82441  0.77612  0.53321  1.0000
  C   C4        1.0  0.17579  0.22398  0.46690  1.0000
  C   C5        1.0  0.77518  0.91440  0.51938  1.0000
  C   C6        1.0  0.22500  0.08570  0.48068  1.0000
  C   C7        1.0  0.84967  0.99600  0.44398  1.0000
  C   C8        1.0  0.15054  0.00399  0.55605  1.0000
  C   C9        1.0  0.97332  0.92614  0.38696  1.0000
  C   C10       1.0  0.02694  0.07380  0.61311  1.0000
  C   C11       1.0  0.01159  0.78738  0.40630  1.0000
  C   C12       1.0  0.98858  0.21256  0.59380  1.0000
  C   C13       1.0  0.66600  0.19879  0.48371  1.0000
  C   C14       1.0  0.33417  0.80122  0.51628  1.0000
  C   C15       1.0  0.88075  0.21272  0.34886  1.0000
  C   C16       1.0  0.11935  0.78725  0.65112  1.0000
  C   C17       1.0  0.66947  0.49701  0.64509  1.0000
  C   C18       1.0  0.33159  0.50321  0.35468  1.0000
  C   C19       1.0  0.66599  0.50511  0.02517  1.0000
  C   C20       1.0  0.33312  0.49485  0.97499  1.0000
  C   C21       1.0  0.87373  0.21115  0.83322  1.0000
  C   C22       1.0  0.12610  0.78879  0.16666  1.0000
  C   C23       1.0  0.92822  0.07243  0.85941  1.0000
  C   C24       1.0  0.07162  0.92752  0.14053  1.0000
  C   C25       1.0  0.84904  0.00168  0.93848  1.0000
  C   C26       1.0  0.15083  0.99833  0.06150  1.0000
  C   C27       1.0  0.71832  0.08264  0.98654  1.0000
  C   C28       1.0  0.28154  0.91745  0.01339  1.0000
  C   C29       1.0  0.67535  0.22096  0.95511  1.0000
  C   C30       1.0  0.32441  0.77912  0.04474  1.0000
  C   C31       1.0  0.02825  0.78658  0.91442  1.0000
  C   C32       1.0  0.97164  0.21341  0.08562  1.0000
  C   C33       1.0  0.80371  0.79752  0.04506  1.0000
  C   C34       1.0  0.19620  0.20254  0.95498  1.0000
  C   C35       1.0  0.48698  0.77831  0.74459  1.0000
  C   C36       1.0  0.51293  0.22162  0.25550  1.0000
  C   C37       1.0  0.43347  0.91713  0.71951  1.0000
  C   C38       1.0  0.56649  0.08280  0.28056  1.0000
  C   C39       1.0  0.50465  0.99568  0.74737  1.0000
  C   C40       1.0  0.49538  0.00426  0.25265  1.0000
  C   C41       1.0  0.62711  0.92240  0.80182  1.0000
  C   C42       1.0  0.37292  0.07754  0.19819  1.0000
  C   C43       1.0  0.66990  0.78337  0.82401  1.0000
  C   C44       1.0  0.33013  0.21656  0.17602  1.0000
  C   C45       1.0  0.32693  0.20387  0.67178  1.0000
  C   C46       1.0  0.67314  0.79601  0.32821  1.0000
  C   C47       1.0  0.53363  0.20806  0.75468  1.0000
  C   C48       1.0  0.46639  0.79189  0.24530  1.0000
  S   S1        1.0  0.97498  0.50286  0.79079  1.0000
  S   S2        1.0  0.02286  0.49685  0.20932  1.0000
  S   S3        1.0  0.69796  0.50469  0.54209  1.0000
  S   S4        1.0  0.30496  0.49531  0.45760  1.0000
  S   S5        1.0  0.62306  0.50263  0.12769  1.0000
  S   S6        1.0  0.37636  0.49749  0.87246  1.0000
  N   N1        1.0  0.03190  0.48371  0.61863  1.0000
  N   N2        1.0  0.97181  0.51663  0.38097  1.0000
  N   N3        1.0  0.93975  0.71085  0.47782  1.0000
  N   N4        1.0  0.06038  0.28920  0.52231  1.0000
  N   N5        1.0  0.80386  0.13203  0.42728  1.0000
  N   N6        1.0  0.19631  0.86795  0.57273  1.0000
  N   N7        1.0  0.65201  0.49046  0.71995  1.0000
  N   N8        1.0  0.34460  0.51016  0.28006  1.0000
  N   N9        1.0  0.69750  0.50872  0.95026  1.0000
  N   N10       1.0  0.30162  0.49117  0.04991  1.0000
  N   N11       1.0  0.74904  0.28707  0.87900  1.0000
  N   N12       1.0  0.25072  0.71295  0.12081  1.0000
  N   N13       1.0  0.89392  0.86561  0.96576  1.0000
  N   N14       1.0  0.10598  0.13441  0.03427  1.0000
  N   N15       1.0  0.60322  0.70974  0.79632  1.0000
  N   N16       1.0  0.39671  0.29021  0.20375  1.0000
  N   N17       1.0  0.45906  0.13200  0.72353  1.0000
  N   N18       1.0  0.54099  0.86793  0.27646  1.0000
