data_image0
_chemical_formula_structural       Ni2H16C24S4N8
_chemical_formula_sum              "Ni2 H16 C24 S4 N8"
_cell_length_a       8.44443
_cell_length_b       8.4464
_cell_length_c       10.4145
_cell_angle_alpha    72.1582
_cell_angle_beta     72.1218
_cell_angle_gamma    69.8815

_space_group_name_H-M_alt    "P 1"
_space_group_IT_number       1

loop_
  _space_group_symop_operation_xyz
  'x, y, z'

loop_
  _atom_site_type_symbol
  _atom_site_label
  _atom_site_symmetry_multiplicity
  _atom_site_fract_x
  _atom_site_fract_y
  _atom_site_fract_z
  _atom_site_occupancy
  Ni  Ni1       1.0  0.62966  0.37014  0.25007  1.0000
  Ni  Ni2       1.0  0.37018  0.62994  0.74994  1.0000
  H   H1        1.0  0.80912  0.49090  0.39779  1.0000
  H   H2        1.0  0.50901  0.19073  0.10232  1.0000
  H   H3        1.0  0.19037  0.50875  0.60279  1.0000
  H   H4        1.0  0.49128  0.80953  0.89734  1.0000
  H   H5        1.0  0.09382  0.36511  0.46670  1.0000
  H   H6        1.0  0.63496  0.90611  0.03322  1.0000
  H   H7        1.0  0.90502  0.63390  0.53491  1.0000
  H   H8        1.0  0.36608  0.09487  0.96529  1.0000
  H   H9        1.0  0.28456  0.08024  0.41341  1.0000
  H   H10       1.0  0.91992  0.71548  0.08634  1.0000
  H   H11       1.0  0.71412  0.91846  0.58873  1.0000
  H   H12       1.0  0.08163  0.28588  0.91139  1.0000
  H   H13       1.0  0.18322  0.93186  0.29490  1.0000
  H   H14       1.0  0.06817  0.81681  0.20496  1.0000
  H   H15       1.0  0.81601  0.06727  0.70656  1.0000
  H   H16       1.0  0.93281  0.18410  0.79355  1.0000
  C   C1        1.0  0.45165  0.32561  0.62841  1.0000
  C   C2        1.0  0.67445  0.54836  0.87153  1.0000
  C   C3        1.0  0.54864  0.67461  0.37131  1.0000
  C   C4        1.0  0.32528  0.45120  0.12874  1.0000
  C   C5        1.0  0.89456  0.36759  0.37687  1.0000
  C   C6        1.0  0.63239  0.10535  0.12312  1.0000
  C   C7        1.0  0.10497  0.63198  0.62374  1.0000
  C   C8        1.0  0.36806  0.89501  0.87635  1.0000
  C   C9        1.0  0.05245  0.29640  0.41558  1.0000
  C   C10       1.0  0.70363  0.94751  0.08434  1.0000
  C   C11       1.0  0.94674  0.70285  0.58562  1.0000
  C   C12       1.0  0.29720  0.05323  0.91449  1.0000
  C   C13       1.0  0.15928  0.13882  0.38565  1.0000
  C   C14       1.0  0.86127  0.84070  0.11420  1.0000
  C   C15       1.0  0.83975  0.86023  0.61590  1.0000
  C   C16       1.0  0.13987  0.16027  0.88416  1.0000
  C   C17       1.0  0.10310  0.05590  0.31890  1.0000
  C   C18       1.0  0.94411  0.89687  0.18101  1.0000
  C   C19       1.0  0.89619  0.94345  0.68218  1.0000
  C   C20       1.0  0.05663  0.10391  0.81783  1.0000
  C   C21       1.0  0.94244  0.13204  0.28387  1.0000
  C   C22       1.0  0.86795  0.05757  0.21606  1.0000
  C   C23       1.0  0.05737  0.86782  0.71641  1.0000
  C   C24       1.0  0.13228  0.94275  0.78358  1.0000
  S   S1        1.0  0.46233  0.18916  0.54450  1.0000
  S   S2        1.0  0.81079  0.53761  0.95554  1.0000
  S   S3        1.0  0.53832  0.81117  0.45496  1.0000
  S   S4        1.0  0.18886  0.46168  0.04490  1.0000
  N   N1        1.0  0.43585  0.42747  0.69178  1.0000
  N   N2        1.0  0.57256  0.56428  0.80815  1.0000
  N   N3        1.0  0.56396  0.57269  0.30814  1.0000
  N   N4        1.0  0.42714  0.43578  0.19196  1.0000
  N   N5        1.0  0.83935  0.28789  0.31173  1.0000
  N   N6        1.0  0.71208  0.16056  0.18827  1.0000
  N   N7        1.0  0.16045  0.71198  0.68847  1.0000
  N   N8        1.0  0.28811  0.83962  0.81153  1.0000
