data_image0
_chemical_formula_structural       Mn2H36C54N8O10
_chemical_formula_sum              "Mn2 H36 C54 N8 O10"
_cell_length_a       10.1636
_cell_length_b       11.3508
_cell_length_c       11.908
_cell_angle_alpha    116.847
_cell_angle_beta     105.906
_cell_angle_gamma    100.442

_space_group_name_H-M_alt    "P 1"
_space_group_IT_number       1

loop_
  _space_group_symop_operation_xyz
  'x, y, z'

loop_
  _atom_site_type_symbol
  _atom_site_label
  _atom_site_symmetry_multiplicity
  _atom_site_fract_x
  _atom_site_fract_y
  _atom_site_fract_z
  _atom_site_occupancy
  Mn  Mn1       1.0  0.61554  0.15834  0.22192  1.0000
  Mn  Mn2       1.0  0.38447  0.84167  0.77808  1.0000
  H   H1        1.0  0.94129  0.35163  0.29880  1.0000
  H   H2        1.0  0.05872  0.64838  0.70120  1.0000
  H   H3        1.0  0.06808  0.59791  0.35644  1.0000
  H   H4        1.0  0.93192  0.40209  0.64356  1.0000
  H   H5        1.0  0.93110  0.76183  0.38626  1.0000
  H   H6        1.0  0.06890  0.23818  0.61375  1.0000
  H   H7        1.0  0.52680  0.94985  0.40155  1.0000
  H   H8        1.0  0.47320  0.05015  0.59845  1.0000
  H   H9        1.0  0.24733  0.53031  0.37353  1.0000
  H   H10       1.0  0.75266  0.46969  0.62647  1.0000
  H   H11       1.0  0.15155  0.27692  0.30837  1.0000
  H   H12       1.0  0.84845  0.72307  0.69162  1.0000
  H   H13       1.0  0.30685  0.12854  0.25109  1.0000
  H   H14       1.0  0.69315  0.87146  0.74890  1.0000
  H   H15       1.0  0.54335  0.37457  0.05485  1.0000
  H   H16       1.0  0.45666  0.62543  0.94515  1.0000
  H   H17       1.0  0.64389  0.60016  0.06884  1.0000
  H   H18       1.0  0.35613  0.39985  0.93117  1.0000
  H   H19       1.0  0.82571  0.62216  0.96752  1.0000
  H   H20       1.0  0.17432  0.37785  0.03249  1.0000
  H   H21       1.0  0.91185  0.42373  0.86613  1.0000
  H   H22       1.0  0.08816  0.57627  0.13387  1.0000
  H   H23       1.0  0.79621  0.17518  0.65911  1.0000
  H   H24       1.0  0.20379  0.82481  0.34089  1.0000
  H   H25       1.0  0.95409  0.03985  0.58502  1.0000
  H   H26       1.0  0.04590  0.96014  0.41498  1.0000
  H   H27       1.0  0.08592  0.03997  0.95969  1.0000
  H   H28       1.0  0.91409  0.96003  0.04031  1.0000
  H   H29       1.0  0.92152  0.16965  0.03185  1.0000
  H   H30       1.0  0.07848  0.83035  0.96815  1.0000
  H   H31       1.0  0.74354  0.88723  0.37426  1.0000
  H   H32       1.0  0.25646  0.11277  0.62574  1.0000
  H   H33       1.0  0.64958  0.21583  0.49904  1.0000
  H   H34       1.0  0.35041  0.78416  0.50096  1.0000
  H   H35       1.0  0.75546  0.14431  0.42996  1.0000
  H   H36       1.0  0.24453  0.85568  0.57004  1.0000
  C   C1        1.0  0.88686  0.42887  0.31638  1.0000
  C   C2        1.0  0.11315  0.57115  0.68363  1.0000
  C   C3        1.0  0.95564  0.56416  0.34523  1.0000
  C   C4        1.0  0.04436  0.43585  0.65477  1.0000
  C   C5        1.0  0.88000  0.65630  0.36367  1.0000
  C   C6        1.0  0.12000  0.34370  0.63633  1.0000
  C   C7        1.0  0.73676  0.61279  0.35458  1.0000
  C   C8        1.0  0.26324  0.38721  0.64543  1.0000
  C   C9        1.0  0.64518  0.69511  0.36941  1.0000
  C   C10       1.0  0.35482  0.30489  0.63060  1.0000
  C   C11       1.0  0.54312  0.85588  0.39625  1.0000
  C   C12       1.0  0.45687  0.14412  0.60376  1.0000
  C   C13       1.0  0.51039  0.65315  0.37577  1.0000
  C   C14       1.0  0.48961  0.34685  0.62423  1.0000
  C   C15       1.0  0.44835  0.51545  0.35083  1.0000
  C   C16       1.0  0.55164  0.48455  0.64918  1.0000
  C   C17       1.0  0.30999  0.46134  0.34721  1.0000
  C   C18       1.0  0.69001  0.53866  0.65279  1.0000
  C   C19       1.0  0.25783  0.32263  0.31214  1.0000
  C   C20       1.0  0.74217  0.67737  0.68786  1.0000
  C   C21       1.0  0.34429  0.23901  0.28124  1.0000
  C   C22       1.0  0.65570  0.76098  0.71875  1.0000
  C   C23       1.0  0.53049  0.42480  0.32181  1.0000
  C   C24       1.0  0.46951  0.57520  0.67819  1.0000
  C   C25       1.0  0.67667  0.47515  0.32902  1.0000
  C   C26       1.0  0.32333  0.52486  0.67100  1.0000
  C   C27       1.0  0.58794  0.13859  0.93893  1.0000
  C   C28       1.0  0.41205  0.86141  0.06106  1.0000
  C   C29       1.0  0.67076  0.27329  0.95497  1.0000
  C   C30       1.0  0.32924  0.72670  0.04503  1.0000
  C   C31       1.0  0.62524  0.38759  0.01451  1.0000
  C   C32       1.0  0.37477  0.61241  0.98549  1.0000
  C   C33       1.0  0.68048  0.51292  0.02073  1.0000
  C   C34       1.0  0.31954  0.48708  0.97928  1.0000
  C   C35       1.0  0.78172  0.52518  0.96430  1.0000
  C   C36       1.0  0.21829  0.47483  0.03571  1.0000
  C   C37       1.0  0.82909  0.41310  0.90631  1.0000
  C   C38       1.0  0.17092  0.58690  0.09369  1.0000
  C   C39       1.0  0.77805  0.28750  0.90314  1.0000
  C   C40       1.0  0.22195  0.71249  0.09686  1.0000
  C   C41       1.0  0.84961  0.18388  0.85121  1.0000
  C   C42       1.0  0.15039  0.81612  0.14878  1.0000
  C   C43       1.0  0.85851  0.14393  0.72422  1.0000
  C   C44       1.0  0.14149  0.85607  0.27578  1.0000
  C   C45       1.0  0.94778  0.06922  0.68343  1.0000
  C   C46       1.0  0.05221  0.93078  0.31656  1.0000
  C   C47       1.0  0.03292  0.03342  0.76875  1.0000
  C   C48       1.0  0.96708  0.96657  0.23124  1.0000
  C   C49       1.0  0.01946  0.06723  0.89294  1.0000
  C   C50       1.0  0.98054  0.93277  0.10705  1.0000
  C   C51       1.0  0.92792  0.14042  0.93319  1.0000
  C   C52       1.0  0.07208  0.85958  0.06681  1.0000
  C   C53       1.0  0.13891  0.96562  0.72673  1.0000
  C   C54       1.0  0.86109  0.03436  0.27326  1.0000
  N   N1        1.0  0.75212  0.38597  0.30899  1.0000
  N   N2        1.0  0.24789  0.61404  0.69103  1.0000
  N   N3        1.0  0.47655  0.28897  0.28667  1.0000
  N   N4        1.0  0.52345  0.71102  0.71332  1.0000
  N   N5        1.0  0.66239  0.82390  0.38127  1.0000
  N   N6        1.0  0.33760  0.17610  0.61873  1.0000
  N   N7        1.0  0.44990  0.75691  0.39599  1.0000
  N   N8        1.0  0.55010  0.24309  0.60401  1.0000
  O   O1        1.0  0.54536  0.14869  0.03280  1.0000
  O   O2        1.0  0.45462  0.85130  0.96720  1.0000
  O   O3        1.0  0.55367  0.02238  0.82651  1.0000
  O   O4        1.0  0.44632  0.97761  0.17347  1.0000
  O   O5        1.0  0.70792  0.21715  0.44403  1.0000
  O   O6        1.0  0.29208  0.78286  0.55598  1.0000
  O   O7        1.0  0.19515  0.90740  0.78722  1.0000
  O   O8        1.0  0.80484  0.09259  0.21278  1.0000
  O   O9        1.0  0.16630  0.97034  0.62936  1.0000
  O   O10       1.0  0.83370  0.02965  0.37063  1.0000
