data_image0
_chemical_formula_structural       Ni2H44C52S4N8
_chemical_formula_sum              "Ni2 H44 C52 S4 N8"
_cell_length_a       9.77278
_cell_length_b       10.8697
_cell_length_c       10.9332
_cell_angle_alpha    81.4138
_cell_angle_beta     88.8886
_cell_angle_gamma    88.9166

_space_group_name_H-M_alt    "P 1"
_space_group_IT_number       1

loop_
  _space_group_symop_operation_xyz
  'x, y, z'

loop_
  _atom_site_type_symbol
  _atom_site_label
  _atom_site_symmetry_multiplicity
  _atom_site_fract_x
  _atom_site_fract_y
  _atom_site_fract_z
  _atom_site_occupancy
  Ni  Ni1       1.0  0.74975  0.40735  0.59334  1.0000
  Ni  Ni2       1.0  0.25024  0.59265  0.40666  1.0000
  H   H1        1.0  0.47842  0.42945  0.73680  1.0000
  H   H2        1.0  0.02157  0.26371  0.57083  1.0000
  H   H3        1.0  0.52158  0.57055  0.26320  1.0000
  H   H4        1.0  0.97843  0.73629  0.42917  1.0000
  H   H5        1.0  0.39402  0.37885  0.95526  1.0000
  H   H6        1.0  0.10635  0.04418  0.62176  1.0000
  H   H7        1.0  0.60598  0.62115  0.04475  1.0000
  H   H8        1.0  0.89364  0.95582  0.37824  1.0000
  H   H9        1.0  0.80966  0.27547  0.05847  1.0000
  H   H10       1.0  0.69083  0.93964  0.72446  1.0000
  H   H11       1.0  0.19034  0.72453  0.94153  1.0000
  H   H12       1.0  0.30916  0.06036  0.27554  1.0000
  H   H13       1.0  0.87646  0.33159  0.83710  1.0000
  H   H14       1.0  0.62359  0.16211  0.66809  1.0000
  H   H15       1.0  0.12354  0.66842  0.16289  1.0000
  H   H16       1.0  0.37641  0.83789  0.33191  1.0000
  H   H17       1.0  0.60140  0.34372  0.21735  1.0000
  H   H18       1.0  0.90013  0.77991  0.65790  1.0000
  H   H19       1.0  0.39860  0.65628  0.78265  1.0000
  H   H20       1.0  0.09987  0.22008  0.34210  1.0000
  H   H21       1.0  0.43910  0.30506  0.16919  1.0000
  H   H22       1.0  0.06193  0.82946  0.69649  1.0000
  H   H23       1.0  0.56090  0.69494  0.83081  1.0000
  H   H24       1.0  0.93807  0.17054  0.30351  1.0000
  H   H25       1.0  0.60629  0.18198  0.39659  1.0000
  H   H26       1.0  0.89417  0.60082  0.81971  1.0000
  H   H27       1.0  0.39371  0.81802  0.60340  1.0000
  H   H28       1.0  0.10584  0.39918  0.18029  1.0000
  H   H29       1.0  0.64983  0.95961  0.47852  1.0000
  H   H30       1.0  0.85026  0.51963  0.04104  1.0000
  H   H31       1.0  0.35017  0.04040  0.52148  1.0000
  H   H32       1.0  0.14974  0.48036  0.95896  1.0000
  H   H33       1.0  0.65426  0.80044  0.33718  1.0000
  H   H34       1.0  0.84567  0.66279  0.19839  1.0000
  H   H35       1.0  0.34574  0.19956  0.66283  1.0000
  H   H36       1.0  0.15433  0.33721  0.80161  1.0000
  H   H37       1.0  0.60786  0.86476  0.11302  1.0000
  H   H38       1.0  0.89175  0.88814  0.13319  1.0000
  H   H39       1.0  0.39214  0.13524  0.88698  1.0000
  H   H40       1.0  0.10824  0.11187  0.86681  1.0000
  H   H41       1.0  0.56279  0.08605  0.03127  1.0000
  H   H42       1.0  0.93722  0.96915  0.91293  1.0000
  H   H43       1.0  0.43721  0.91394  0.96873  1.0000
  H   H44       1.0  0.06278  0.03085  0.08707  1.0000
  C   C1        1.0  0.53786  0.63766  0.51177  1.0000
  C   C2        1.0  0.96153  0.48836  0.36315  1.0000
  C   C3        1.0  0.46214  0.36235  0.48823  1.0000
  C   C4        1.0  0.03847  0.51165  0.63684  1.0000
  C   C5        1.0  0.54854  0.39573  0.81126  1.0000
  C   C6        1.0  0.95154  0.18868  0.60435  1.0000
  C   C7        1.0  0.45146  0.60427  0.18874  1.0000
  C   C8        1.0  0.04846  0.81132  0.39565  1.0000
  C   C9        1.0  0.50239  0.36730  0.93341  1.0000
  C   C10       1.0  0.99792  0.06597  0.63300  1.0000
  C   C11       1.0  0.49761  0.63270  0.06659  1.0000
  C   C12       1.0  0.00208  0.93403  0.36700  1.0000
  C   C13       1.0  0.59455  0.32235  0.02655  1.0000
  C   C14       1.0  0.90592  0.97220  0.67795  1.0000
  C   C15       1.0  0.40545  0.67766  0.97345  1.0000
  C   C16       1.0  0.09408  0.02780  0.32205  1.0000
  C   C17       1.0  0.73212  0.31017  0.99092  1.0000
  C   C18       1.0  0.76823  0.00769  0.68982  1.0000
  C   C19       1.0  0.26789  0.68983  0.00908  1.0000
  C   C20       1.0  0.23177  0.99231  0.31018  1.0000
  C   C21       1.0  0.77043  0.34048  0.86733  1.0000
  C   C22       1.0  0.72968  0.13187  0.65936  1.0000
  C   C23       1.0  0.22957  0.65952  0.13267  1.0000
  C   C24       1.0  0.27032  0.86813  0.34064  1.0000
  C   C25       1.0  0.54941  0.28525  0.15905  1.0000
  C   C26       1.0  0.95150  0.83924  0.71573  1.0000
  C   C27       1.0  0.45059  0.71475  0.84095  1.0000
  C   C28       1.0  0.04850  0.16076  0.28426  1.0000
  C   C29       1.0  0.57990  0.14970  0.20828  1.0000
  C   C30       1.0  0.92056  0.79054  0.85063  1.0000
  C   C31       1.0  0.42010  0.85030  0.79172  1.0000
  C   C32       1.0  0.07945  0.20945  0.14937  1.0000
  C   C33       1.0  0.60547  0.11241  0.33429  1.0000
  C   C34       1.0  0.89484  0.66396  0.88844  1.0000
  C   C35       1.0  0.39452  0.88759  0.66571  1.0000
  C   C36       1.0  0.10516  0.33604  0.11157  1.0000
  C   C37       1.0  0.63061  0.98726  0.38027  1.0000
  C   C38       1.0  0.86953  0.61837  0.01302  1.0000
  C   C39       1.0  0.36939  0.01274  0.61973  1.0000
  C   C40       1.0  0.13047  0.38163  0.98698  1.0000
  C   C41       1.0  0.63217  0.89761  0.30103  1.0000
  C   C42       1.0  0.86782  0.69865  0.10163  1.0000
  C   C43       1.0  0.36783  0.10239  0.69897  1.0000
  C   C44       1.0  0.13218  0.30136  0.89837  1.0000
  C   C45       1.0  0.60625  0.93389  0.17565  1.0000
  C   C46       1.0  0.89366  0.82469  0.06484  1.0000
  C   C47       1.0  0.39375  0.06610  0.82436  1.0000
  C   C48       1.0  0.10634  0.17531  0.93516  1.0000
  C   C49       1.0  0.58040  0.05875  0.12982  1.0000
  C   C50       1.0  0.91969  0.87009  0.94054  1.0000
  C   C51       1.0  0.41960  0.94125  0.87018  1.0000
  C   C52       1.0  0.08032  0.12991  0.05946  1.0000
  S   S1        1.0  0.68775  0.63317  0.57474  1.0000
  S   S2        1.0  0.81042  0.42717  0.36834  1.0000
  S   S3        1.0  0.31225  0.36683  0.42526  1.0000
  S   S4        1.0  0.18957  0.57283  0.63167  1.0000
  N   N1        1.0  0.42959  0.64045  0.46465  1.0000
  N   N2        1.0  0.07074  0.53414  0.35978  1.0000
  N   N3        1.0  0.57041  0.35956  0.53535  1.0000
  N   N4        1.0  0.92924  0.46586  0.64022  1.0000
  N   N5        1.0  0.68040  0.38170  0.77821  1.0000
  N   N6        1.0  0.81957  0.22164  0.61821  1.0000
  N   N7        1.0  0.31960  0.61830  0.22179  1.0000
  N   N8        1.0  0.18043  0.77836  0.38180  1.0000
