data_image0
_chemical_formula_structural       Co3H34C34N10Cl2O6
_chemical_formula_sum              "Co3 H34 C34 N10 Cl2 O6"
_cell_length_a       9.25432
_cell_length_b       11.3797
_cell_length_c       11.7502
_cell_angle_alpha    66.76
_cell_angle_beta     70.8708
_cell_angle_gamma    90.1992

_space_group_name_H-M_alt    "P 1"
_space_group_IT_number       1

loop_
  _space_group_symop_operation_xyz
  'x, y, z'

loop_
  _atom_site_type_symbol
  _atom_site_label
  _atom_site_symmetry_multiplicity
  _atom_site_fract_x
  _atom_site_fract_y
  _atom_site_fract_z
  _atom_site_occupancy
  Co  Co1       1.0  0.00328  0.82804  0.36125  1.0000
  Co  Co2       1.0  0.99672  0.17196  0.63874  1.0000
  Co  Co3       1.0  0.00000  0.50000  0.50000  1.0000
  H   H1        1.0  0.30412  0.79196  0.38766  1.0000
  H   H2        1.0  0.69588  0.20804  0.61235  1.0000
  H   H3        1.0  0.52586  0.92751  0.38106  1.0000
  H   H4        1.0  0.47413  0.07249  0.61895  1.0000
  H   H5        1.0  0.49308  0.14989  0.36874  1.0000
  H   H6        1.0  0.50692  0.85011  0.63126  1.0000
  H   H7        1.0  0.03801  0.08714  0.35888  1.0000
  H   H8        1.0  0.96199  0.91286  0.64112  1.0000
  H   H9        1.0  0.47026  0.56193  0.05112  1.0000
  H   H10       1.0  0.52976  0.43807  0.94888  1.0000
  H   H11       1.0  0.55163  0.78727  0.88135  1.0000
  H   H12       1.0  0.44838  0.21273  0.11865  1.0000
  H   H13       1.0  0.40414  0.96152  0.91753  1.0000
  H   H14       1.0  0.59587  0.03847  0.08247  1.0000
  H   H15       1.0  0.09208  0.09457  0.08392  1.0000
  H   H16       1.0  0.90792  0.90543  0.91608  1.0000
  H   H17       1.0  0.17632  0.04874  0.94916  1.0000
  H   H18       1.0  0.82368  0.95125  0.05084  1.0000
  H   H19       1.0  0.29835  0.09584  0.02147  1.0000
  H   H20       1.0  0.70165  0.90415  0.97852  1.0000
  H   H21       1.0  0.80337  0.65368  0.36971  1.0000
  H   H22       1.0  0.19662  0.34633  0.63030  1.0000
  H   H23       1.0  0.67806  0.34569  0.38485  1.0000
  H   H24       1.0  0.32193  0.65431  0.61516  1.0000
  H   H25       1.0  0.58834  0.42224  0.26484  1.0000
  H   H26       1.0  0.41165  0.57775  0.73518  1.0000
  H   H27       1.0  0.48229  0.37547  0.43594  1.0000
  H   H28       1.0  0.51770  0.62453  0.56407  1.0000
  H   H29       1.0  0.59983  0.66414  0.18297  1.0000
  H   H30       1.0  0.40016  0.33585  0.81703  1.0000
  H   H31       1.0  0.64249  0.73692  0.28132  1.0000
  H   H32       1.0  0.35751  0.26309  0.71868  1.0000
  H   H33       1.0  0.46152  0.63423  0.34122  1.0000
  H   H34       1.0  0.53848  0.36577  0.65878  1.0000
  C   C1        1.0  0.29695  0.88994  0.38106  1.0000
  C   C2        1.0  0.70305  0.11006  0.61895  1.0000
  C   C3        1.0  0.41772  0.96471  0.37905  1.0000
  C   C4        1.0  0.58227  0.03529  0.62095  1.0000
  C   C5        1.0  0.39990  0.08880  0.37164  1.0000
  C   C6        1.0  0.60010  0.91120  0.62836  1.0000
  C   C7        1.0  0.26051  0.13448  0.36758  1.0000
  C   C8        1.0  0.73949  0.86552  0.63242  1.0000
  C   C9        1.0  0.14622  0.05424  0.36727  1.0000
  C   C10       1.0  0.85378  0.94576  0.63272  1.0000
  C   C11       1.0  0.23370  0.26519  0.35665  1.0000
  C   C12       1.0  0.76629  0.73481  0.64335  1.0000
  C   C13       1.0  0.24214  0.46906  0.28036  1.0000
  C   C14       1.0  0.75787  0.53094  0.71964  1.0000
  C   C15       1.0  0.28386  0.60501  0.18853  1.0000
  C   C16       1.0  0.71615  0.39499  0.81146  1.0000
  C   C17       1.0  0.40933  0.63861  0.06792  1.0000
  C   C18       1.0  0.59067  0.36139  0.93208  1.0000
  C   C19       1.0  0.45429  0.76499  0.97285  1.0000
  C   C20       1.0  0.54572  0.23501  0.02715  1.0000
  C   C21       1.0  0.37220  0.86252  0.99344  1.0000
  C   C22       1.0  0.62780  0.13747  0.00655  1.0000
  C   C23       1.0  0.24766  0.83061  0.11117  1.0000
  C   C24       1.0  0.75235  0.16939  0.88882  1.0000
  C   C25       1.0  0.20285  0.70246  0.21370  1.0000
  C   C26       1.0  0.79715  0.29754  0.78630  1.0000
  C   C27       1.0  0.18400  0.04750  0.04110  1.0000
  C   C28       1.0  0.81600  0.95250  0.95889  1.0000
  C   C29       1.0  0.76782  0.55341  0.38851  1.0000
  C   C30       1.0  0.23218  0.44659  0.61149  1.0000
  C   C31       1.0  0.59813  0.41308  0.35845  1.0000
  C   C32       1.0  0.40186  0.58692  0.64156  1.0000
  C   C33       1.0  0.58620  0.65022  0.28411  1.0000
  C   C34       1.0  0.41379  0.34979  0.71590  1.0000
  N   N1        1.0  0.16353  0.93445  0.37382  1.0000
  N   N2        1.0  0.83647  0.06555  0.62618  1.0000
  N   N3        1.0  0.31111  0.37441  0.25001  1.0000
  N   N4        1.0  0.68889  0.62559  0.74999  1.0000
  N   N5        1.0  0.12265  0.28737  0.45086  1.0000
  N   N6        1.0  0.87735  0.71263  0.54914  1.0000
  N   N7        1.0  0.12912  0.41864  0.40178  1.0000
  N   N8        1.0  0.87089  0.58136  0.59822  1.0000
  N   N9        1.0  0.65559  0.53886  0.34519  1.0000
  N   N10       1.0  0.34440  0.46114  0.65482  1.0000
  Cl  Cl1       1.0  0.81904  0.93382  0.29431  1.0000
  Cl  Cl2       1.0  0.18096  0.06618  0.70569  1.0000
  O   O1        1.0  0.15533  0.91673  0.13977  1.0000
  O   O2        1.0  0.84467  0.08326  0.86022  1.0000
  O   O3        1.0  0.08508  0.68124  0.32735  1.0000
  O   O4        1.0  0.91493  0.31877  0.67265  1.0000
  O   O5        1.0  0.83019  0.46108  0.44616  1.0000
  O   O6        1.0  0.16981  0.53892  0.55384  1.0000
