data_image0
_chemical_formula_structural       Dy2P8H40Ru4C8O40
_chemical_formula_sum              "Dy2 P8 H40 Ru4 C8 O40"
_cell_length_a       9.48175
_cell_length_b       9.48679
_cell_length_c       15.548
_cell_angle_alpha    92.9688
_cell_angle_beta     92.9704
_cell_angle_gamma    99.0648

_space_group_name_H-M_alt    "P 1"
_space_group_IT_number       1

loop_
  _space_group_symop_operation_xyz
  'x, y, z'

loop_
  _atom_site_type_symbol
  _atom_site_label
  _atom_site_symmetry_multiplicity
  _atom_site_fract_x
  _atom_site_fract_y
  _atom_site_fract_z
  _atom_site_occupancy
  Dy  Dy1       1.0  0.99317  0.00679  0.74992  1.0000
  Dy  Dy2       1.0  0.00684  0.99320  0.25008  1.0000
  P   P1        1.0  0.05861  0.34302  0.64030  1.0000
  P   P2        1.0  0.65700  0.94142  0.85969  1.0000
  P   P3        1.0  0.94137  0.65697  0.35970  1.0000
  P   P4        1.0  0.34300  0.05859  0.14033  1.0000
  P   P5        1.0  0.99658  0.64892  0.65932  1.0000
  P   P6        1.0  0.35103  0.00350  0.84069  1.0000
  P   P7        1.0  0.00341  0.35107  0.34068  1.0000
  P   P8        1.0  0.64897  0.99651  0.15932  1.0000
  H   H1        1.0  0.17210  0.43538  0.81986  1.0000
  H   H2        1.0  0.56458  0.82801  0.68016  1.0000
  H   H3        1.0  0.82791  0.56462  0.18013  1.0000
  H   H4        1.0  0.43541  0.17198  0.31986  1.0000
  H   H5        1.0  0.14593  0.62037  0.82616  1.0000
  H   H6        1.0  0.37950  0.85414  0.67385  1.0000
  H   H7        1.0  0.85406  0.37962  0.17383  1.0000
  H   H8        1.0  0.62050  0.14586  0.32616  1.0000
  H   H9        1.0  0.25984  0.55878  0.74973  1.0000
  H   H10       1.0  0.44112  0.74031  0.75029  1.0000
  H   H11       1.0  0.74014  0.44122  0.25025  1.0000
  H   H12       1.0  0.55887  0.25970  0.24973  1.0000
  H   H13       1.0  0.82526  0.44047  0.72245  1.0000
  H   H14       1.0  0.55957  0.17466  0.77754  1.0000
  H   H15       1.0  0.17472  0.55952  0.27756  1.0000
  H   H16       1.0  0.44045  0.82534  0.22247  1.0000
  H   H17       1.0  0.39467  0.51090  0.53662  1.0000
  H   H18       1.0  0.48919  0.60574  0.96334  1.0000
  H   H19       1.0  0.60535  0.48911  0.46336  1.0000
  H   H20       1.0  0.51086  0.39450  0.03650  1.0000
  H   H21       1.0  0.41493  0.67630  0.54877  1.0000
  H   H22       1.0  0.32370  0.58524  0.95124  1.0000
  H   H23       1.0  0.58502  0.32371  0.45123  1.0000
  H   H24       1.0  0.67633  0.41471  0.04876  1.0000
  H   H25       1.0  0.82695  0.14017  0.62029  1.0000
  H   H26       1.0  0.85988  0.17303  0.87958  1.0000
  H   H27       1.0  0.17304  0.85980  0.37972  1.0000
  H   H28       1.0  0.14013  0.82698  0.12043  1.0000
  H   H29       1.0  0.71176  0.07403  0.68400  1.0000
  H   H30       1.0  0.92594  0.28814  0.81582  1.0000
  H   H31       1.0  0.28824  0.92596  0.31601  1.0000
  H   H32       1.0  0.07406  0.71185  0.18418  1.0000
  H   H33       1.0  0.12326  0.90219  0.91537  1.0000
  H   H34       1.0  0.09796  0.87665  0.58461  1.0000
  H   H35       1.0  0.87675  0.09782  0.08464  1.0000
  H   H36       1.0  0.90204  0.12334  0.41539  1.0000
  H   H37       1.0  0.95473  0.88211  0.92308  1.0000
  H   H38       1.0  0.11805  0.04505  0.57677  1.0000
  H   H39       1.0  0.04528  0.11791  0.07694  1.0000
  H   H40       1.0  0.88195  0.95494  0.42323  1.0000
  Ru  Ru1       1.0  0.12204  0.54186  0.49746  1.0000
  Ru  Ru2       1.0  0.45809  0.87803  0.00254  1.0000
  Ru  Ru3       1.0  0.87795  0.45813  0.50253  1.0000
  Ru  Ru4       1.0  0.54191  0.12198  0.99748  1.0000
  C   C1        1.0  0.03454  0.49260  0.71704  1.0000
  C   C2        1.0  0.50737  0.96551  0.78296  1.0000
  C   C3        1.0  0.96545  0.50739  0.28296  1.0000
  C   C4        1.0  0.49262  0.03449  0.21705  1.0000
  C   C5        1.0  0.16114  0.52931  0.78296  1.0000
  C   C6        1.0  0.47061  0.83896  0.71706  1.0000
  C   C7        1.0  0.83885  0.47069  0.21704  1.0000
  C   C8        1.0  0.52939  0.16103  0.28296  1.0000
  O   O1        1.0  0.17936  0.39758  0.58041  1.0000
  O   O2        1.0  0.60245  0.82073  0.91959  1.0000
  O   O3        1.0  0.82062  0.60242  0.41958  1.0000
  O   O4        1.0  0.39756  0.17927  0.08043  1.0000
  O   O5        1.0  0.91178  0.30484  0.58522  1.0000
  O   O6        1.0  0.69525  0.08816  0.91478  1.0000
  O   O7        1.0  0.08821  0.69514  0.41478  1.0000
  O   O8        1.0  0.30474  0.91184  0.08523  1.0000
  O   O9        1.0  0.08919  0.21971  0.69127  1.0000
  O   O10       1.0  0.78029  0.91083  0.80866  1.0000
  O   O11       1.0  0.91080  0.78028  0.30873  1.0000
  O   O12       1.0  0.21972  0.08919  0.19135  1.0000
  O   O13       1.0  0.12178  0.68983  0.59827  1.0000
  O   O14       1.0  0.31006  0.87833  0.90171  1.0000
  O   O15       1.0  0.87820  0.31016  0.40172  1.0000
  O   O16       1.0  0.68994  0.12168  0.09830  1.0000
  O   O17       1.0  0.85385  0.59367  0.60461  1.0000
  O   O18       1.0  0.40630  0.14611  0.89542  1.0000
  O   O19       1.0  0.14613  0.40632  0.39540  1.0000
  O   O20       1.0  0.59370  0.85389  0.10459  1.0000
  O   O21       1.0  0.98408  0.76846  0.72430  1.0000
  O   O22       1.0  0.23152  0.01607  0.77567  1.0000
  O   O23       1.0  0.01591  0.23153  0.27570  1.0000
  O   O24       1.0  0.76848  0.98394  0.22434  1.0000
  O   O25       1.0  0.90777  0.44415  0.76362  1.0000
  O   O26       1.0  0.55588  0.09219  0.73638  1.0000
  O   O27       1.0  0.09222  0.55585  0.23638  1.0000
  O   O28       1.0  0.44413  0.90780  0.26363  1.0000
  O   O29       1.0  0.38260  0.59676  0.50640  1.0000
  O   O30       1.0  0.40330  0.61756  0.99361  1.0000
  O   O31       1.0  0.61737  0.40326  0.49359  1.0000
  O   O32       1.0  0.59681  0.38236  0.00636  1.0000
  O   O33       1.0  0.80010  0.05804  0.65615  1.0000
  O   O34       1.0  0.94192  0.19981  0.84362  1.0000
  O   O35       1.0  0.19990  0.94194  0.34386  1.0000
  O   O36       1.0  0.05808  0.80018  0.15638  1.0000
  O   O37       1.0  0.03561  0.94191  0.90042  1.0000
  O   O38       1.0  0.05825  0.96428  0.59952  1.0000
  O   O39       1.0  0.96439  0.05809  0.09959  1.0000
  O   O40       1.0  0.94176  0.03571  0.40049  1.0000
