data_image0
_chemical_formula_structural       Er2P8H40Ru4C8O40
_chemical_formula_sum              "Er2 P8 H40 Ru4 C8 O40"
_cell_length_a       9.45444
_cell_length_b       9.45697
_cell_length_c       15.451
_cell_angle_alpha    92.8879
_cell_angle_beta     92.8887
_cell_angle_gamma    99.036

_space_group_name_H-M_alt    "P 1"
_space_group_IT_number       1

loop_
  _space_group_symop_operation_xyz
  'x, y, z'

loop_
  _atom_site_type_symbol
  _atom_site_label
  _atom_site_symmetry_multiplicity
  _atom_site_fract_x
  _atom_site_fract_y
  _atom_site_fract_z
  _atom_site_occupancy
  Er  Er1       1.0  0.99231  0.00757  0.74995  1.0000
  Er  Er2       1.0  0.00769  0.99243  0.25004  1.0000
  P   P1        1.0  0.05980  0.34444  0.64196  1.0000
  P   P2        1.0  0.65549  0.94015  0.85800  1.0000
  P   P3        1.0  0.94020  0.65555  0.35804  1.0000
  P   P4        1.0  0.34451  0.05988  0.14199  1.0000
  P   P5        1.0  0.99498  0.65053  0.65956  1.0000
  P   P6        1.0  0.34938  0.00502  0.84046  1.0000
  P   P7        1.0  0.00502  0.34947  0.34044  1.0000
  P   P8        1.0  0.65063  0.99500  0.15953  1.0000
  H   H1        1.0  0.82324  0.44075  0.72288  1.0000
  H   H2        1.0  0.55914  0.17666  0.77711  1.0000
  H   H3        1.0  0.17677  0.55923  0.27713  1.0000
  H   H4        1.0  0.44086  0.82335  0.22289  1.0000
  H   H5        1.0  0.41956  0.68934  0.53680  1.0000
  H   H6        1.0  0.31056  0.58048  0.96333  1.0000
  H   H7        1.0  0.58033  0.31070  0.46323  1.0000
  H   H8        1.0  0.68945  0.41951  0.03674  1.0000
  H   H9        1.0  0.39960  0.52370  0.54089  1.0000
  H   H10       1.0  0.47623  0.60054  0.95911  1.0000
  H   H11       1.0  0.60053  0.47633  0.45898  1.0000
  H   H12       1.0  0.52378  0.39935  0.04102  1.0000
  H   H13       1.0  0.82991  0.13962  0.61932  1.0000
  H   H14       1.0  0.86039  0.16996  0.88065  1.0000
  H   H15       1.0  0.17009  0.86037  0.38068  1.0000
  H   H16       1.0  0.13964  0.83004  0.11936  1.0000
  H   H17       1.0  0.71295  0.07459  0.68311  1.0000
  H   H18       1.0  0.92539  0.28688  0.81684  1.0000
  H   H19       1.0  0.28705  0.92541  0.31690  1.0000
  H   H20       1.0  0.07464  0.71311  0.18317  1.0000
  H   H21       1.0  0.11959  0.89822  0.91338  1.0000
  H   H22       1.0  0.10172  0.88027  0.58660  1.0000
  H   H23       1.0  0.88041  0.10174  0.08660  1.0000
  H   H24       1.0  0.89826  0.11972  0.41339  1.0000
  H   H25       1.0  0.94927  0.86753  0.91419  1.0000
  H   H26       1.0  0.13223  0.05053  0.58567  1.0000
  H   H27       1.0  0.05072  0.13237  0.08575  1.0000
  H   H28       1.0  0.86774  0.94945  0.41431  1.0000
  H   H29       1.0  0.17026  0.43872  0.82281  1.0000
  H   H30       1.0  0.56112  0.82974  0.67719  1.0000
  H   H31       1.0  0.82975  0.56128  0.17719  1.0000
  H   H32       1.0  0.43888  0.17028  0.32281  1.0000
  H   H33       1.0  0.14154  0.62344  0.82844  1.0000
  H   H34       1.0  0.37634  0.85847  0.67157  1.0000
  H   H35       1.0  0.85847  0.37655  0.17156  1.0000
  H   H36       1.0  0.62367  0.14154  0.32843  1.0000
  H   H37       1.0  0.25814  0.56332  0.75258  1.0000
  H   H38       1.0  0.43649  0.74190  0.74744  1.0000
  H   H39       1.0  0.74187  0.43667  0.24742  1.0000
  H   H40       1.0  0.56352  0.25811  0.25256  1.0000
  Ru  Ru1       1.0  0.12226  0.54244  0.49755  1.0000
  Ru  Ru2       1.0  0.45752  0.87778  0.00246  1.0000
  Ru  Ru3       1.0  0.87774  0.45755  0.50245  1.0000
  Ru  Ru4       1.0  0.54247  0.12222  0.99753  1.0000
  C   C1        1.0  0.03315  0.49429  0.71839  1.0000
  C   C2        1.0  0.50560  0.96683  0.78159  1.0000
  C   C3        1.0  0.96685  0.50570  0.28161  1.0000
  C   C4        1.0  0.49441  0.03320  0.21840  1.0000
  C   C5        1.0  0.15870  0.53252  0.78536  1.0000
  C   C6        1.0  0.46729  0.84130  0.71463  1.0000
  C   C7        1.0  0.84131  0.46747  0.21463  1.0000
  C   C8        1.0  0.53271  0.15872  0.28537  1.0000
  O   O1        1.0  0.18138  0.39953  0.58197  1.0000
  O   O2        1.0  0.60040  0.81863  0.91801  1.0000
  O   O3        1.0  0.81862  0.60045  0.41803  1.0000
  O   O4        1.0  0.39960  0.18140  0.08199  1.0000
  O   O5        1.0  0.91329  0.30506  0.58611  1.0000
  O   O6        1.0  0.69497  0.08661  0.91385  1.0000
  O   O7        1.0  0.08670  0.69493  0.41389  1.0000
  O   O8        1.0  0.30504  0.91342  0.08614  1.0000
  O   O9        1.0  0.09052  0.22139  0.69393  1.0000
  O   O10       1.0  0.77851  0.90938  0.80598  1.0000
  O   O11       1.0  0.90948  0.77860  0.30606  1.0000
  O   O12       1.0  0.22148  0.09062  0.19401  1.0000
  O   O13       1.0  0.12090  0.69160  0.59833  1.0000
  O   O14       1.0  0.30830  0.87915  0.90170  1.0000
  O   O15       1.0  0.87909  0.30840  0.40167  1.0000
  O   O16       1.0  0.69170  0.12088  0.09830  1.0000
  O   O17       1.0  0.85252  0.59451  0.60431  1.0000
  O   O18       1.0  0.40543  0.14743  0.89570  1.0000
  O   O19       1.0  0.14748  0.40548  0.39569  1.0000
  O   O20       1.0  0.59457  0.85260  0.10430  1.0000
  O   O21       1.0  0.98200  0.77051  0.72471  1.0000
  O   O22       1.0  0.22937  0.01802  0.77531  1.0000
  O   O23       1.0  0.01800  0.22949  0.27529  1.0000
  O   O24       1.0  0.77063  0.98198  0.22468  1.0000
  O   O25       1.0  0.90541  0.44469  0.76467  1.0000
  O   O26       1.0  0.55521  0.09454  0.73530  1.0000
  O   O27       1.0  0.09461  0.55530  0.23534  1.0000
  O   O28       1.0  0.44480  0.90549  0.26468  1.0000
  O   O29       1.0  0.38314  0.60012  0.50291  1.0000
  O   O30       1.0  0.39986  0.61693  0.99716  1.0000
  O   O31       1.0  0.61678  0.39997  0.49706  1.0000
  O   O32       1.0  0.60013  0.38311  0.00292  1.0000
  O   O33       1.0  0.80176  0.05766  0.65565  1.0000
  O   O34       1.0  0.94232  0.19808  0.84427  1.0000
  O   O35       1.0  0.19824  0.94235  0.34436  1.0000
  O   O36       1.0  0.05772  0.80192  0.15575  1.0000
  O   O37       1.0  0.03040  0.93561  0.89805  1.0000
  O   O38       1.0  0.06426  0.96940  0.60191  1.0000
  O   O39       1.0  0.96959  0.06434  0.10193  1.0000
  O   O40       1.0  0.93572  0.03058  0.39808  1.0000
