data_image0
_chemical_formula_structural       Gd2P8H40Ru4C8O40
_chemical_formula_sum              "Gd2 P8 H40 Ru4 C8 O40"
_cell_length_a       9.52331
_cell_length_b       9.52621
_cell_length_c       15.548
_cell_angle_alpha    92.9565
_cell_angle_beta     92.9574
_cell_angle_gamma    99.0684

_space_group_name_H-M_alt    "P 1"
_space_group_IT_number       1

loop_
  _space_group_symop_operation_xyz
  'x, y, z'

loop_
  _atom_site_type_symbol
  _atom_site_label
  _atom_site_symmetry_multiplicity
  _atom_site_fract_x
  _atom_site_fract_y
  _atom_site_fract_z
  _atom_site_occupancy
  Gd  Gd1       1.0  0.99262  0.00738  0.74995  1.0000
  Gd  Gd2       1.0  0.00738  0.99262  0.25004  1.0000
  P   P1        1.0  0.05891  0.34394  0.64033  1.0000
  P   P2        1.0  0.65610  0.94114  0.85965  1.0000
  P   P3        1.0  0.94109  0.65605  0.35966  1.0000
  P   P4        1.0  0.34391  0.05889  0.14035  1.0000
  P   P5        1.0  0.99670  0.64850  0.65918  1.0000
  P   P6        1.0  0.35148  0.00333  0.84081  1.0000
  P   P7        1.0  0.00329  0.35150  0.34082  1.0000
  P   P8        1.0  0.64853  0.99670  0.15919  1.0000
  H   H1        1.0  0.82591  0.44152  0.72173  1.0000
  H   H2        1.0  0.55849  0.17406  0.77826  1.0000
  H   H3        1.0  0.17410  0.55845  0.27825  1.0000
  H   H4        1.0  0.44152  0.82596  0.22174  1.0000
  H   H5        1.0  0.39323  0.51314  0.53748  1.0000
  H   H6        1.0  0.48689  0.60698  0.96254  1.0000
  H   H7        1.0  0.60676  0.48684  0.46252  1.0000
  H   H8        1.0  0.51311  0.39304  0.03746  1.0000
  H   H9        1.0  0.41424  0.67818  0.54674  1.0000
  H   H10       1.0  0.32179  0.58593  0.95328  1.0000
  H   H11       1.0  0.58577  0.32180  0.45327  1.0000
  H   H12       1.0  0.67821  0.41409  0.04673  1.0000
  H   H13       1.0  0.82581  0.14386  0.62030  1.0000
  H   H14       1.0  0.85623  0.17417  0.87966  1.0000
  H   H15       1.0  0.17418  0.85614  0.37970  1.0000
  H   H16       1.0  0.14378  0.82582  0.12035  1.0000
  H   H17       1.0  0.71059  0.07624  0.68343  1.0000
  H   H18       1.0  0.92381  0.28934  0.81650  1.0000
  H   H19       1.0  0.28941  0.92376  0.31658  1.0000
  H   H20       1.0  0.07620  0.71064  0.18350  1.0000
  H   H21       1.0  0.12457  0.90405  0.91663  1.0000
  H   H22       1.0  0.09601  0.87536  0.58335  1.0000
  H   H23       1.0  0.87542  0.09594  0.08337  1.0000
  H   H24       1.0  0.90398  0.12462  0.41665  1.0000
  H   H25       1.0  0.95781  0.88704  0.92773  1.0000
  H   H26       1.0  0.11300  0.04204  0.57213  1.0000
  H   H27       1.0  0.04218  0.11290  0.07224  1.0000
  H   H28       1.0  0.88696  0.95793  0.42784  1.0000
  H   H29       1.0  0.17017  0.43647  0.82042  1.0000
  H   H30       1.0  0.56351  0.82990  0.67958  1.0000
  H   H31       1.0  0.82982  0.56351  0.17957  1.0000
  H   H32       1.0  0.43647  0.17010  0.32043  1.0000
  H   H33       1.0  0.14340  0.62035  0.82624  1.0000
  H   H34       1.0  0.37957  0.85666  0.67376  1.0000
  H   H35       1.0  0.85658  0.37963  0.17376  1.0000
  H   H36       1.0  0.62043  0.14337  0.32625  1.0000
  H   H37       1.0  0.25829  0.55946  0.75063  1.0000
  H   H38       1.0  0.44049  0.74183  0.74939  1.0000
  H   H39       1.0  0.74171  0.44053  0.24938  1.0000
  H   H40       1.0  0.55950  0.25819  0.25062  1.0000
  Ru  Ru1       1.0  0.12143  0.54193  0.49750  1.0000
  Ru  Ru2       1.0  0.45804  0.87863  0.00250  1.0000
  Ru  Ru3       1.0  0.87857  0.45806  0.50250  1.0000
  Ru  Ru4       1.0  0.54197  0.12141  0.99751  1.0000
  C   C1        1.0  0.03432  0.49272  0.71695  1.0000
  C   C2        1.0  0.50727  0.96572  0.78304  1.0000
  C   C3        1.0  0.96569  0.50727  0.28304  1.0000
  C   C4        1.0  0.49273  0.03430  0.21697  1.0000
  C   C5        1.0  0.15956  0.52979  0.78331  1.0000
  C   C6        1.0  0.47017  0.84052  0.71669  1.0000
  C   C7        1.0  0.84044  0.47019  0.21669  1.0000
  C   C8        1.0  0.52983  0.15950  0.28331  1.0000
  O   O1        1.0  0.17915  0.39879  0.58058  1.0000
  O   O2        1.0  0.60124  0.82094  0.91941  1.0000
  O   O3        1.0  0.82085  0.60120  0.41941  1.0000
  O   O4        1.0  0.39878  0.17909  0.08060  1.0000
  O   O5        1.0  0.91288  0.30557  0.58514  1.0000
  O   O6        1.0  0.69451  0.08710  0.91486  1.0000
  O   O7        1.0  0.08712  0.69442  0.41485  1.0000
  O   O8        1.0  0.30549  0.91293  0.08514  1.0000
  O   O9        1.0  0.08956  0.22108  0.69118  1.0000
  O   O10       1.0  0.77893  0.91047  0.80876  1.0000
  O   O11       1.0  0.91044  0.77891  0.30881  1.0000
  O   O12       1.0  0.22107  0.08955  0.19124  1.0000
  O   O13       1.0  0.12122  0.68961  0.59808  1.0000
  O   O14       1.0  0.31031  0.87886  0.90191  1.0000
  O   O15       1.0  0.87878  0.31037  0.40192  1.0000
  O   O16       1.0  0.68969  0.12118  0.09810  1.0000
  O   O17       1.0  0.85467  0.59348  0.60444  1.0000
  O   O18       1.0  0.40650  0.14531  0.89557  1.0000
  O   O19       1.0  0.14533  0.40651  0.39556  1.0000
  O   O20       1.0  0.59351  0.85472  0.10444  1.0000
  O   O21       1.0  0.98432  0.76750  0.72422  1.0000
  O   O22       1.0  0.23250  0.01572  0.77575  1.0000
  O   O23       1.0  0.01567  0.23248  0.27578  1.0000
  O   O24       1.0  0.76751  0.98429  0.22426  1.0000
  O   O25       1.0  0.90766  0.44426  0.76306  1.0000
  O   O26       1.0  0.55571  0.09234  0.73693  1.0000
  O   O27       1.0  0.09234  0.55570  0.23693  1.0000
  O   O28       1.0  0.44428  0.90768  0.26308  1.0000
  O   O29       1.0  0.38090  0.59716  0.50585  1.0000
  O   O30       1.0  0.40285  0.61931  0.99416  1.0000
  O   O31       1.0  0.61911  0.40283  0.49415  1.0000
  O   O32       1.0  0.59716  0.38073  0.00585  1.0000
  O   O33       1.0  0.79844  0.06095  0.65526  1.0000
  O   O34       1.0  0.93912  0.20153  0.84467  1.0000
  O   O35       1.0  0.20156  0.93904  0.34474  1.0000
  O   O36       1.0  0.06090  0.79846  0.15534  1.0000
  O   O37       1.0  0.03717  0.94372  0.90215  1.0000
  O   O38       1.0  0.05635  0.96276  0.59780  1.0000
  O   O39       1.0  0.96282  0.05626  0.09785  1.0000
  O   O40       1.0  0.94365  0.03722  0.40221  1.0000
