data_image0
_chemical_formula_structural       Pr2P8H40Ru4C8O40
_chemical_formula_sum              "Pr2 P8 H40 Ru4 C8 O40"
_cell_length_a       9.66319
_cell_length_b       9.66208
_cell_length_c       15.69
_cell_angle_alpha    92.5372
_cell_angle_beta     92.5369
_cell_angle_gamma    97.1719

_space_group_name_H-M_alt    "P 1"
_space_group_IT_number       1

loop_
  _space_group_symop_operation_xyz
  'x, y, z'

loop_
  _atom_site_type_symbol
  _atom_site_label
  _atom_site_symmetry_multiplicity
  _atom_site_fract_x
  _atom_site_fract_y
  _atom_site_fract_z
  _atom_site_occupancy
  Pr  Pr1       1.0  0.99829  0.00170  0.75001  1.0000
  Pr  Pr2       1.0  0.00165  0.99822  0.25004  1.0000
  P   P1        1.0  0.05992  0.33789  0.63626  1.0000
  P   P2        1.0  0.66208  0.94009  0.86379  1.0000
  P   P3        1.0  0.94007  0.66205  0.36382  1.0000
  P   P4        1.0  0.33789  0.05988  0.13625  1.0000
  P   P5        1.0  0.00210  0.64058  0.65932  1.0000
  P   P6        1.0  0.35944  0.99795  0.84069  1.0000
  P   P7        1.0  0.99791  0.35937  0.34073  1.0000
  P   P8        1.0  0.64055  0.00200  0.15931  1.0000
  H   H1        1.0  0.83420  0.44116  0.72164  1.0000
  H   H2        1.0  0.55896  0.16585  0.77837  1.0000
  H   H3        1.0  0.16578  0.55885  0.27845  1.0000
  H   H4        1.0  0.44101  0.83412  0.22165  1.0000
  H   H5        1.0  0.39289  0.65708  0.55172  1.0000
  H   H6        1.0  0.34304  0.60674  0.94824  1.0000
  H   H7        1.0  0.60645  0.34313  0.44820  1.0000
  H   H8        1.0  0.65692  0.39329  0.05177  1.0000
  H   H9        1.0  0.38652  0.49847  0.53007  1.0000
  H   H10       1.0  0.50200  0.61464  0.96909  1.0000
  H   H11       1.0  0.61591  0.50247  0.46807  1.0000
  H   H12       1.0  0.49790  0.38517  0.03107  1.0000
  H   H13       1.0  0.82445  0.14926  0.62157  1.0000
  H   H14       1.0  0.85057  0.17559  0.87838  1.0000
  H   H15       1.0  0.17554  0.85056  0.37847  1.0000
  H   H16       1.0  0.14938  0.82438  0.12165  1.0000
  H   H17       1.0  0.71096  0.07734  0.68229  1.0000
  H   H18       1.0  0.92251  0.28905  0.81763  1.0000
  H   H19       1.0  0.28901  0.92253  0.31774  1.0000
  H   H20       1.0  0.07747  0.71091  0.18241  1.0000
  H   H21       1.0  0.13720  0.90184  0.92103  1.0000
  H   H22       1.0  0.09825  0.86277  0.57899  1.0000
  H   H23       1.0  0.86282  0.09815  0.07902  1.0000
  H   H24       1.0  0.90179  0.13723  0.42109  1.0000
  H   H25       1.0  0.97458  0.88832  0.93649  1.0000
  H   H26       1.0  0.11200  0.02543  0.56360  1.0000
  H   H27       1.0  0.02547  0.11182  0.06368  1.0000
  H   H28       1.0  0.88846  0.97466  0.43673  1.0000
  H   H29       1.0  0.14722  0.59932  0.82273  1.0000
  H   H30       1.0  0.40069  0.85285  0.67728  1.0000
  H   H31       1.0  0.85281  0.40064  0.17730  1.0000
  H   H32       1.0  0.59930  0.14713  0.32272  1.0000
  H   H33       1.0  0.25869  0.54069  0.74470  1.0000
  H   H34       1.0  0.45926  0.74130  0.75530  1.0000
  H   H35       1.0  0.74131  0.45923  0.25531  1.0000
  H   H36       1.0  0.54072  0.25867  0.24469  1.0000
  H   H37       1.0  0.17496  0.41813  0.81351  1.0000
  H   H38       1.0  0.58185  0.82506  0.68651  1.0000
  H   H39       1.0  0.82506  0.58184  0.18654  1.0000
  H   H40       1.0  0.41814  0.17493  0.31349  1.0000
  Ru  Ru1       1.0  0.11888  0.53668  0.49575  1.0000
  Ru  Ru2       1.0  0.46322  0.88111  0.00430  1.0000
  Ru  Ru3       1.0  0.88116  0.46319  0.50437  1.0000
  Ru  Ru4       1.0  0.53673  0.11884  0.99571  1.0000
  C   C1        1.0  0.03855  0.48295  0.71427  1.0000
  C   C2        1.0  0.51702  0.96149  0.78575  1.0000
  C   C3        1.0  0.96144  0.51697  0.28579  1.0000
  C   C4        1.0  0.48292  0.03848  0.21426  1.0000
  C   C5        1.0  0.16286  0.51210  0.77833  1.0000
  C   C6        1.0  0.48788  0.83717  0.72169  1.0000
  C   C7        1.0  0.83716  0.48785  0.22172  1.0000
  C   C8        1.0  0.51210  0.16281  0.27831  1.0000
  O   O1        1.0  0.17598  0.38992  0.57537  1.0000
  O   O2        1.0  0.60998  0.82400  0.92466  1.0000
  O   O3        1.0  0.82397  0.60992  0.42469  1.0000
  O   O4        1.0  0.38997  0.17599  0.07536  1.0000
  O   O5        1.0  0.91514  0.30754  0.58410  1.0000
  O   O6        1.0  0.69238  0.08483  0.91595  1.0000
  O   O7        1.0  0.08477  0.69237  0.41599  1.0000
  O   O8        1.0  0.30755  0.91511  0.08406  1.0000
  O   O9        1.0  0.09170  0.21393  0.68484  1.0000
  O   O10       1.0  0.78600  0.90829  0.81521  1.0000
  O   O11       1.0  0.90823  0.78595  0.31524  1.0000
  O   O12       1.0  0.21394  0.09167  0.18482  1.0000
  O   O13       1.0  0.12273  0.67849  0.59714  1.0000
  O   O14       1.0  0.32148  0.87729  0.90289  1.0000
  O   O15       1.0  0.87728  0.32145  0.40296  1.0000
  O   O16       1.0  0.67848  0.12265  0.09712  1.0000
  O   O17       1.0  0.86128  0.59419  0.60701  1.0000
  O   O18       1.0  0.40581  0.13879  0.89305  1.0000
  O   O19       1.0  0.13875  0.40574  0.39307  1.0000
  O   O20       1.0  0.59416  0.86119  0.10697  1.0000
  O   O21       1.0  0.99279  0.75627  0.72528  1.0000
  O   O22       1.0  0.24372  0.00726  0.77474  1.0000
  O   O23       1.0  0.00717  0.24366  0.27478  1.0000
  O   O24       1.0  0.75623  0.99268  0.22526  1.0000
  O   O25       1.0  0.91499  0.43969  0.76141  1.0000
  O   O26       1.0  0.56036  0.08503  0.73861  1.0000
  O   O27       1.0  0.08500  0.56028  0.23867  1.0000
  O   O28       1.0  0.43963  0.91494  0.26141  1.0000
  O   O29       1.0  0.37244  0.58687  0.50473  1.0000
  O   O30       1.0  0.41368  0.62706  0.99502  1.0000
  O   O31       1.0  0.62648  0.41429  0.49470  1.0000
  O   O32       1.0  0.58620  0.37297  0.00504  1.0000
  O   O33       1.0  0.79914  0.06559  0.65440  1.0000
  O   O34       1.0  0.93418  0.20082  0.84549  1.0000
  O   O35       1.0  0.20081  0.93422  0.34561  1.0000
  O   O36       1.0  0.06577  0.79913  0.15454  1.0000
  O   O37       1.0  0.04937  0.94013  0.90709  1.0000
  O   O38       1.0  0.05996  0.95063  0.59288  1.0000
  O   O39       1.0  0.95063  0.05984  0.09296  1.0000
  O   O40       1.0  0.94002  0.04937  0.40712  1.0000
