data_image0
_chemical_formula_structural       Tb2P8H40Ru4C8O40
_chemical_formula_sum              "Tb2 P8 H40 Ru4 C8 O40"
_cell_length_a       9.50951
_cell_length_b       9.51166
_cell_length_c       15.524
_cell_angle_alpha    92.9432
_cell_angle_beta     92.9439
_cell_angle_gamma    98.9816

_space_group_name_H-M_alt    "P 1"
_space_group_IT_number       1

loop_
  _space_group_symop_operation_xyz
  'x, y, z'

loop_
  _atom_site_type_symbol
  _atom_site_label
  _atom_site_symmetry_multiplicity
  _atom_site_fract_x
  _atom_site_fract_y
  _atom_site_fract_z
  _atom_site_occupancy
  Tb  Tb1       1.0  0.99315  0.00683  0.74996  1.0000
  Tb  Tb2       1.0  0.00686  0.99317  0.25004  1.0000
  P   P1        1.0  0.05903  0.34314  0.64033  1.0000
  P   P2        1.0  0.65685  0.94098  0.85966  1.0000
  P   P3        1.0  0.94096  0.65686  0.35966  1.0000
  P   P4        1.0  0.34315  0.05903  0.14036  1.0000
  P   P5        1.0  0.99687  0.64849  0.65946  1.0000
  P   P6        1.0  0.35147  0.00318  0.84054  1.0000
  P   P7        1.0  0.00312  0.35150  0.34052  1.0000
  P   P8        1.0  0.64853  0.99684  0.15947  1.0000
  H   H1        1.0  0.82583  0.44096  0.72253  1.0000
  H   H2        1.0  0.55906  0.17415  0.77746  1.0000
  H   H3        1.0  0.17416  0.55902  0.27746  1.0000
  H   H4        1.0  0.44096  0.82585  0.22255  1.0000
  H   H5        1.0  0.41339  0.67680  0.54832  1.0000
  H   H6        1.0  0.32317  0.58684  0.95169  1.0000
  H   H7        1.0  0.58663  0.32318  0.45167  1.0000
  H   H8        1.0  0.67685  0.41314  0.04833  1.0000
  H   H9        1.0  0.39393  0.51184  0.53689  1.0000
  H   H10       1.0  0.48817  0.60630  0.96315  1.0000
  H   H11       1.0  0.60599  0.48813  0.46316  1.0000
  H   H12       1.0  0.51186  0.39376  0.03683  1.0000
  H   H13       1.0  0.82686  0.14218  0.62028  1.0000
  H   H14       1.0  0.85788  0.17312  0.87965  1.0000
  H   H15       1.0  0.17313  0.85782  0.37972  1.0000
  H   H16       1.0  0.14213  0.82688  0.12034  1.0000
  H   H17       1.0  0.71145  0.07488  0.68345  1.0000
  H   H18       1.0  0.92512  0.28850  0.81646  1.0000
  H   H19       1.0  0.28855  0.92513  0.31656  1.0000
  H   H20       1.0  0.07488  0.71150  0.18353  1.0000
  H   H21       1.0  0.12422  0.90292  0.91610  1.0000
  H   H22       1.0  0.09715  0.87568  0.58387  1.0000
  H   H23       1.0  0.87578  0.09708  0.08390  1.0000
  H   H24       1.0  0.90285  0.12432  0.41612  1.0000
  H   H25       1.0  0.95680  0.88478  0.92568  1.0000
  H   H26       1.0  0.11527  0.04303  0.57418  1.0000
  H   H27       1.0  0.04319  0.11520  0.07431  1.0000
  H   H28       1.0  0.88471  0.95696  0.42580  1.0000
  H   H29       1.0  0.17159  0.43496  0.82022  1.0000
  H   H30       1.0  0.56498  0.82844  0.67980  1.0000
  H   H31       1.0  0.82840  0.56504  0.17977  1.0000
  H   H32       1.0  0.43502  0.17156  0.32022  1.0000
  H   H33       1.0  0.14440  0.61914  0.82684  1.0000
  H   H34       1.0  0.38076  0.85565  0.67318  1.0000
  H   H35       1.0  0.85558  0.38085  0.17315  1.0000
  H   H36       1.0  0.61924  0.14436  0.32683  1.0000
  H   H37       1.0  0.25886  0.55888  0.75032  1.0000
  H   H38       1.0  0.44104  0.74122  0.74971  1.0000
  H   H39       1.0  0.74113  0.44113  0.24967  1.0000
  H   H40       1.0  0.55895  0.25879  0.25031  1.0000
  Ru  Ru1       1.0  0.12167  0.54167  0.49738  1.0000
  Ru  Ru2       1.0  0.45830  0.87837  0.00262  1.0000
  Ru  Ru3       1.0  0.87832  0.45833  0.50261  1.0000
  Ru  Ru4       1.0  0.54171  0.12165  0.99739  1.0000
  C   C1        1.0  0.03451  0.49219  0.71722  1.0000
  C   C2        1.0  0.50779  0.96553  0.78279  1.0000
  C   C3        1.0  0.96549  0.50781  0.28277  1.0000
  C   C4        1.0  0.49222  0.03448  0.21723  1.0000
  C   C5        1.0  0.16040  0.52880  0.78343  1.0000
  C   C6        1.0  0.47113  0.83965  0.71659  1.0000
  C   C7        1.0  0.83959  0.47120  0.21656  1.0000
  C   C8        1.0  0.52886  0.16036  0.28343  1.0000
  O   O1        1.0  0.17934  0.39779  0.58034  1.0000
  O   O2        1.0  0.60220  0.82070  0.91965  1.0000
  O   O3        1.0  0.82066  0.60220  0.41965  1.0000
  O   O4        1.0  0.39781  0.17931  0.08036  1.0000
  O   O5        1.0  0.91263  0.30530  0.58527  1.0000
  O   O6        1.0  0.69476  0.08733  0.91472  1.0000
  O   O7        1.0  0.08736  0.69469  0.41472  1.0000
  O   O8        1.0  0.30525  0.91268  0.08529  1.0000
  O   O9        1.0  0.08974  0.21996  0.69121  1.0000
  O   O10       1.0  0.78001  0.91024  0.80874  1.0000
  O   O11       1.0  0.91026  0.78003  0.30878  1.0000
  O   O12       1.0  0.22000  0.08976  0.19127  1.0000
  O   O13       1.0  0.12160  0.68924  0.59830  1.0000
  O   O14       1.0  0.31068  0.87849  0.90171  1.0000
  O   O15       1.0  0.87840  0.31075  0.40169  1.0000
  O   O16       1.0  0.68932  0.12152  0.09830  1.0000
  O   O17       1.0  0.85463  0.59378  0.60474  1.0000
  O   O18       1.0  0.40622  0.14538  0.89527  1.0000
  O   O19       1.0  0.14536  0.40622  0.39525  1.0000
  O   O20       1.0  0.59378  0.85463  0.10474  1.0000
  O   O21       1.0  0.98473  0.76768  0.72467  1.0000
  O   O22       1.0  0.23231  0.01536  0.77533  1.0000
  O   O23       1.0  0.01526  0.23232  0.27532  1.0000
  O   O24       1.0  0.76770  0.98466  0.22468  1.0000
  O   O25       1.0  0.90798  0.44386  0.76369  1.0000
  O   O26       1.0  0.55613  0.09201  0.73630  1.0000
  O   O27       1.0  0.09201  0.55614  0.23629  1.0000
  O   O28       1.0  0.44388  0.90799  0.26371  1.0000
  O   O29       1.0  0.38163  0.59703  0.50619  1.0000
  O   O30       1.0  0.40295  0.61855  0.99384  1.0000
  O   O31       1.0  0.61840  0.40293  0.49382  1.0000
  O   O32       1.0  0.59709  0.38144  0.00617  1.0000
  O   O33       1.0  0.79969  0.05949  0.65554  1.0000
  O   O34       1.0  0.94051  0.20026  0.84434  1.0000
  O   O35       1.0  0.20031  0.94051  0.34446  1.0000
  O   O36       1.0  0.05949  0.79974  0.15565  1.0000
  O   O37       1.0  0.03689  0.94295  0.90158  1.0000
  O   O38       1.0  0.05715  0.96301  0.59837  1.0000
  O   O39       1.0  0.96311  0.05704  0.09842  1.0000
  O   O40       1.0  0.94286  0.03699  0.40163  1.0000
