data_image0
_chemical_formula_structural       Cd4H36C40N8Cl4O12
_chemical_formula_sum              "Cd4 H36 C40 N8 Cl4 O12"
_cell_length_a       8.97433
_cell_length_b       10.834
_cell_length_c       12.856
_cell_angle_alpha    93.1519
_cell_angle_beta     90
_cell_angle_gamma    114.467

_space_group_name_H-M_alt    "P 1"
_space_group_IT_number       1

loop_
  _space_group_symop_operation_xyz
  'x, y, z'

loop_
  _atom_site_type_symbol
  _atom_site_label
  _atom_site_symmetry_multiplicity
  _atom_site_fract_x
  _atom_site_fract_y
  _atom_site_fract_z
  _atom_site_occupancy
  Cd  Cd1       1.0  0.71729  0.99984  0.24998  1.0000
  Cd  Cd2       1.0  0.28271  0.00016  0.75002  1.0000
  Cd  Cd3       1.0  0.11941  0.00002  0.24998  1.0000
  Cd  Cd4       1.0  0.88059  0.99998  0.75002  1.0000
  H   H1        1.0  0.15443  0.24727  0.60967  1.0000
  H   H2        1.0  0.90738  0.75290  0.89041  1.0000
  H   H3        1.0  0.84557  0.75273  0.39033  1.0000
  H   H4        1.0  0.09262  0.24710  0.10958  1.0000
  H   H5        1.0  0.79559  0.27498  0.80889  1.0000
  H   H6        1.0  0.52080  0.72482  0.69106  1.0000
  H   H7        1.0  0.20441  0.72502  0.19111  1.0000
  H   H8        1.0  0.47920  0.27517  0.30894  1.0000
  H   H9        1.0  0.93755  0.51540  0.70736  1.0000
  H   H10       1.0  0.42252  0.48446  0.79265  1.0000
  H   H11       1.0  0.06245  0.48460  0.29265  1.0000
  H   H12       1.0  0.57748  0.51554  0.20734  1.0000
  H   H13       1.0  0.13139  0.67538  0.64204  1.0000
  H   H14       1.0  0.45632  0.32465  0.85803  1.0000
  H   H15       1.0  0.86861  0.32462  0.35797  1.0000
  H   H16       1.0  0.54368  0.67535  0.14197  1.0000
  H   H17       1.0  0.31109  0.84501  0.52678  1.0000
  H   H18       1.0  0.46618  0.15500  0.97331  1.0000
  H   H19       1.0  0.68891  0.15499  0.47322  1.0000
  H   H20       1.0  0.53382  0.84500  0.02669  1.0000
  H   H21       1.0  0.44342  0.54392  0.37285  1.0000
  H   H22       1.0  0.89981  0.45599  0.12724  1.0000
  H   H23       1.0  0.55658  0.45608  0.62715  1.0000
  H   H24       1.0  0.10019  0.54401  0.87276  1.0000
  H   H25       1.0  0.25575  0.36881  0.48252  1.0000
  H   H26       1.0  0.88714  0.63111  0.01760  1.0000
  H   H27       1.0  0.74425  0.63119  0.51748  1.0000
  H   H28       1.0  0.11286  0.36889  0.98240  1.0000
  H   H29       1.0  0.37008  0.00218  0.10219  1.0000
  H   H30       1.0  0.36803  0.99800  0.39776  1.0000
  H   H31       1.0  0.62991  0.99782  0.89781  1.0000
  H   H32       1.0  0.63197  0.00200  0.60224  1.0000
  H   H33       1.0  0.20701  0.97774  0.03903  1.0000
  H   H34       1.0  0.22951  0.02260  0.46091  1.0000
  H   H35       1.0  0.79299  0.02226  0.96097  1.0000
  H   H36       1.0  0.77049  0.97740  0.53909  1.0000
  C   C1        1.0  0.07413  0.28606  0.64857  1.0000
  C   C2        1.0  0.78832  0.71403  0.85148  1.0000
  C   C3        1.0  0.92587  0.71394  0.35143  1.0000
  C   C4        1.0  0.21168  0.28597  0.14852  1.0000
  C   C5        1.0  0.89087  0.30585  0.75165  1.0000
  C   C6        1.0  0.58518  0.69402  0.74835  1.0000
  C   C7        1.0  0.10913  0.69415  0.24835  1.0000
  C   C8        1.0  0.41482  0.30598  0.25165  1.0000
  C   C9        1.0  0.96077  0.42501  0.70271  1.0000
  C   C10       1.0  0.53606  0.57489  0.79734  1.0000
  C   C11       1.0  0.03922  0.57499  0.29729  1.0000
  C   C12       1.0  0.46394  0.42511  0.20266  1.0000
  C   C13       1.0  0.18138  0.51048  0.57062  1.0000
  C   C14       1.0  0.67116  0.48951  0.92948  1.0000
  C   C15       1.0  0.81862  0.48952  0.42938  1.0000
  C   C16       1.0  0.32884  0.51049  0.07052  1.0000
  C   C17       1.0  0.19637  0.64447  0.58193  1.0000
  C   C18       1.0  0.55220  0.35551  0.91815  1.0000
  C   C19       1.0  0.80363  0.35553  0.41807  1.0000
  C   C20       1.0  0.44780  0.64449  0.08185  1.0000
  C   C21       1.0  0.29909  0.74090  0.51710  1.0000
  C   C22       1.0  0.55842  0.25907  0.98301  1.0000
  C   C23       1.0  0.70090  0.25910  0.48290  1.0000
  C   C24       1.0  0.44158  0.74093  0.01699  1.0000
  C   C25       1.0  0.38909  0.70564  0.44154  1.0000
  C   C26       1.0  0.68367  0.29427  0.05856  1.0000
  C   C27       1.0  0.61091  0.29436  0.55846  1.0000
  C   C28       1.0  0.31633  0.70573  0.94144  1.0000
  C   C29       1.0  0.49919  0.80671  0.37081  1.0000
  C   C30       1.0  0.69255  0.19309  0.12926  1.0000
  C   C31       1.0  0.50081  0.19329  0.62919  1.0000
  C   C32       1.0  0.30745  0.80691  0.87075  1.0000
  C   C33       1.0  0.37400  0.57152  0.43184  1.0000
  C   C34       1.0  0.80268  0.42842  0.06832  1.0000
  C   C35       1.0  0.62600  0.42848  0.56816  1.0000
  C   C36       1.0  0.19732  0.57158  0.93168  1.0000
  C   C37       1.0  0.26922  0.47326  0.49436  1.0000
  C   C38       1.0  0.79611  0.52666  0.00579  1.0000
  C   C39       1.0  0.73078  0.52674  0.50564  1.0000
  C   C40       1.0  0.20389  0.47334  0.99421  1.0000
  N   N1        1.0  0.96278  0.22072  0.71699  1.0000
  N   N2        1.0  0.74220  0.77925  0.78301  1.0000
  N   N3        1.0  0.03722  0.77928  0.28301  1.0000
  N   N4        1.0  0.25780  0.22075  0.21698  1.0000
  N   N5        1.0  0.07739  0.41196  0.63718  1.0000
  N   N6        1.0  0.66574  0.58808  0.86292  1.0000
  N   N7        1.0  0.92261  0.58804  0.36282  1.0000
  N   N8        1.0  0.33426  0.41192  0.13708  1.0000
  Cl  Cl1       1.0  0.93723  0.06888  0.39511  1.0000
  Cl  Cl2       1.0  0.86819  0.93072  0.10488  1.0000
  Cl  Cl3       1.0  0.06277  0.93112  0.60489  1.0000
  Cl  Cl4       1.0  0.13181  0.06928  0.89512  1.0000
  O   O1        1.0  0.59369  0.77415  0.31281  1.0000
  O   O2        1.0  0.81954  0.22562  0.18729  1.0000
  O   O3        1.0  0.40631  0.22585  0.68719  1.0000
  O   O4        1.0  0.18046  0.77438  0.81271  1.0000
  O   O5        1.0  0.24860  0.94950  0.09988  1.0000
  O   O6        1.0  0.29940  0.05083  0.40008  1.0000
  O   O7        1.0  0.75140  0.05050  0.90012  1.0000
  O   O8        1.0  0.70060  0.94917  0.59992  1.0000
  O   O9        1.0  0.49825  0.92520  0.36931  1.0000
  O   O10       1.0  0.57308  0.07460  0.13060  1.0000
  O   O11       1.0  0.50175  0.07480  0.63069  1.0000
  O   O12       1.0  0.42693  0.92540  0.86940  1.0000
