data_image0
_chemical_formula_structural       Nd2P8H40Ru4C8O40
_chemical_formula_sum              "Nd2 P8 H40 Ru4 C8 O40"
_cell_length_a       9.62259
_cell_length_b       9.62436
_cell_length_c       15.625
_cell_angle_alpha    92.9161
_cell_angle_beta     92.9167
_cell_angle_gamma    99.1032

_space_group_name_H-M_alt    "P 1"
_space_group_IT_number       1

loop_
  _space_group_symop_operation_xyz
  'x, y, z'

loop_
  _atom_site_type_symbol
  _atom_site_label
  _atom_site_symmetry_multiplicity
  _atom_site_fract_x
  _atom_site_fract_y
  _atom_site_fract_z
  _atom_site_occupancy
  Nd  Nd1       1.0  0.99197  0.00803  0.74998  1.0000
  Nd  Nd2       1.0  0.00803  0.99198  0.25002  1.0000
  P   P1        1.0  0.05987  0.34523  0.63945  1.0000
  P   P2        1.0  0.65479  0.94013  0.86055  1.0000
  P   P3        1.0  0.94012  0.65477  0.36055  1.0000
  P   P4        1.0  0.34521  0.05987  0.13945  1.0000
  P   P5        1.0  0.99726  0.64641  0.65847  1.0000
  P   P6        1.0  0.35358  0.00274  0.84153  1.0000
  P   P7        1.0  0.00273  0.35359  0.34153  1.0000
  P   P8        1.0  0.64642  0.99726  0.15847  1.0000
  H   H1        1.0  0.16791  0.43624  0.81920  1.0000
  H   H2        1.0  0.56378  0.83211  0.68081  1.0000
  H   H3        1.0  0.83210  0.56377  0.18080  1.0000
  H   H4        1.0  0.43622  0.16789  0.31919  1.0000
  H   H5        1.0  0.13874  0.61719  0.82558  1.0000
  H   H6        1.0  0.38280  0.86128  0.67442  1.0000
  H   H7        1.0  0.86127  0.38282  0.17441  1.0000
  H   H8        1.0  0.61721  0.13873  0.32558  1.0000
  H   H9        1.0  0.25499  0.56017  0.75067  1.0000
  H   H10       1.0  0.43983  0.74506  0.74932  1.0000
  H   H11       1.0  0.74501  0.43984  0.24932  1.0000
  H   H12       1.0  0.56017  0.25494  0.25067  1.0000
  H   H13       1.0  0.82733  0.44241  0.71960  1.0000
  H   H14       1.0  0.55759  0.17263  0.78041  1.0000
  H   H15       1.0  0.17267  0.55760  0.28041  1.0000
  H   H16       1.0  0.44241  0.82737  0.21960  1.0000
  H   H17       1.0  0.38716  0.51329  0.53826  1.0000
  H   H18       1.0  0.48672  0.61290  0.96176  1.0000
  H   H19       1.0  0.61281  0.48671  0.46177  1.0000
  H   H20       1.0  0.51329  0.38712  0.03822  1.0000
  H   H21       1.0  0.40833  0.67668  0.54527  1.0000
  H   H22       1.0  0.32329  0.59171  0.95473  1.0000
  H   H23       1.0  0.59169  0.32331  0.45472  1.0000
  H   H24       1.0  0.67671  0.40828  0.04527  1.0000
  H   H25       1.0  0.82196  0.15113  0.62074  1.0000
  H   H26       1.0  0.84889  0.17804  0.87925  1.0000
  H   H27       1.0  0.17804  0.84887  0.37926  1.0000
  H   H28       1.0  0.15111  0.82196  0.12075  1.0000
  H   H29       1.0  0.70646  0.08157  0.68235  1.0000
  H   H30       1.0  0.91843  0.29351  0.81763  1.0000
  H   H31       1.0  0.29354  0.91843  0.31765  1.0000
  H   H32       1.0  0.08157  0.70649  0.18237  1.0000
  H   H33       1.0  0.12855  0.90929  0.92060  1.0000
  H   H34       1.0  0.09073  0.87144  0.57939  1.0000
  H   H35       1.0  0.87144  0.09071  0.07940  1.0000
  H   H36       1.0  0.90927  0.12856  0.42061  1.0000
  H   H37       1.0  0.96689  0.89983  0.93928  1.0000
  H   H38       1.0  0.10018  0.03307  0.56070  1.0000
  H   H39       1.0  0.03311  0.10018  0.06072  1.0000
  H   H40       1.0  0.89978  0.96693  0.43929  1.0000
  Ru  Ru1       1.0  0.12003  0.54194  0.49725  1.0000
  Ru  Ru2       1.0  0.45805  0.87998  0.00274  1.0000
  Ru  Ru3       1.0  0.87996  0.45806  0.50274  1.0000
  Ru  Ru4       1.0  0.54195  0.12001  0.99726  1.0000
  C   C1        1.0  0.03410  0.49184  0.71576  1.0000
  C   C2        1.0  0.50817  0.96590  0.78425  1.0000
  C   C3        1.0  0.96590  0.50816  0.28424  1.0000
  C   C4        1.0  0.49184  0.03410  0.21575  1.0000
  C   C5        1.0  0.15688  0.52881  0.78255  1.0000
  C   C6        1.0  0.47119  0.84314  0.71745  1.0000
  C   C7        1.0  0.84312  0.47120  0.21745  1.0000
  C   C8        1.0  0.52881  0.15686  0.28255  1.0000
  O   O1        1.0  0.17833  0.40054  0.57975  1.0000
  O   O2        1.0  0.59948  0.82169  0.92026  1.0000
  O   O3        1.0  0.82166  0.59946  0.42025  1.0000
  O   O4        1.0  0.40052  0.17830  0.07974  1.0000
  O   O5        1.0  0.91537  0.30674  0.58457  1.0000
  O   O6        1.0  0.69330  0.08460  0.91544  1.0000
  O   O7        1.0  0.08462  0.69326  0.41543  1.0000
  O   O8        1.0  0.30670  0.91539  0.08456  1.0000
  O   O9        1.0  0.09125  0.22367  0.68985  1.0000
  O   O10       1.0  0.77636  0.90874  0.81015  1.0000
  O   O11       1.0  0.90875  0.77633  0.31016  1.0000
  O   O12       1.0  0.22365  0.09126  0.18985  1.0000
  O   O13       1.0  0.12002  0.68814  0.59745  1.0000
  O   O14       1.0  0.31184  0.88000  0.90255  1.0000
  O   O15       1.0  0.87998  0.31186  0.40255  1.0000
  O   O16       1.0  0.68816  0.12000  0.09746  1.0000
  O   O17       1.0  0.85658  0.59197  0.60415  1.0000
  O   O18       1.0  0.40802  0.14339  0.89585  1.0000
  O   O19       1.0  0.14342  0.40803  0.39585  1.0000
  O   O20       1.0  0.59198  0.85660  0.10415  1.0000
  O   O21       1.0  0.98499  0.76337  0.72377  1.0000
  O   O22       1.0  0.23661  0.01503  0.77622  1.0000
  O   O23       1.0  0.01501  0.23663  0.27623  1.0000
  O   O24       1.0  0.76339  0.98497  0.22378  1.0000
  O   O25       1.0  0.90780  0.44401  0.76086  1.0000
  O   O26       1.0  0.55601  0.09218  0.73914  1.0000
  O   O27       1.0  0.09220  0.55600  0.23914  1.0000
  O   O28       1.0  0.44400  0.90782  0.26087  1.0000
  O   O29       1.0  0.37665  0.59535  0.50528  1.0000
  O   O30       1.0  0.40464  0.62339  0.99472  1.0000
  O   O31       1.0  0.62336  0.40463  0.49473  1.0000
  O   O32       1.0  0.59538  0.37660  0.00527  1.0000
  O   O33       1.0  0.79363  0.06762  0.65415  1.0000
  O   O34       1.0  0.93239  0.20636  0.84582  1.0000
  O   O35       1.0  0.20637  0.93238  0.34585  1.0000
  O   O36       1.0  0.06761  0.79364  0.15418  1.0000
  O   O37       1.0  0.04217  0.94971  0.90785  1.0000
  O   O38       1.0  0.05031  0.95782  0.59214  1.0000
  O   O39       1.0  0.95783  0.05029  0.09215  1.0000
  O   O40       1.0  0.94969  0.04219  0.40786  1.0000
