data_image0
_chemical_formula_structural       Ho2P8H40Ru4C8O40
_chemical_formula_sum              "Ho2 P8 H40 Ru4 C8 O40"
_cell_length_a       9.48678
_cell_length_b       9.48634
_cell_length_c       15.39
_cell_angle_alpha    92.7291
_cell_angle_beta     92.729
_cell_angle_gamma    98.2981

_space_group_name_H-M_alt    "P 1"
_space_group_IT_number       1

loop_
  _space_group_symop_operation_xyz
  'x, y, z'

loop_
  _atom_site_type_symbol
  _atom_site_label
  _atom_site_symmetry_multiplicity
  _atom_site_fract_x
  _atom_site_fract_y
  _atom_site_fract_z
  _atom_site_occupancy
  Ho  Ho1       1.0  0.99374  0.00625  0.75000  1.0000
  Ho  Ho2       1.0  0.00624  0.99375  0.25001  1.0000
  P   P1        1.0  0.06047  0.34316  0.64187  1.0000
  P   P2        1.0  0.65683  0.93953  0.85814  1.0000
  P   P3        1.0  0.93955  0.65683  0.35816  1.0000
  P   P4        1.0  0.34316  0.06046  0.14186  1.0000
  P   P5        1.0  0.99779  0.64958  0.66026  1.0000
  P   P6        1.0  0.35041  0.00221  0.83974  1.0000
  P   P7        1.0  0.00224  0.35042  0.33976  1.0000
  P   P8        1.0  0.64958  0.99777  0.16025  1.0000
  H   H1        1.0  0.82731  0.44418  0.72528  1.0000
  H   H2        1.0  0.55581  0.17269  0.77473  1.0000
  H   H3        1.0  0.17270  0.55585  0.27474  1.0000
  H   H4        1.0  0.44415  0.82730  0.22527  1.0000
  H   H5        1.0  0.41483  0.68379  0.53728  1.0000
  H   H6        1.0  0.31622  0.58519  0.96270  1.0000
  H   H7        1.0  0.58513  0.31626  0.46274  1.0000
  H   H8        1.0  0.68376  0.41482  0.03724  1.0000
  H   H9        1.0  0.39790  0.51870  0.53899  1.0000
  H   H10       1.0  0.48129  0.60227  0.96089  1.0000
  H   H11       1.0  0.60229  0.48134  0.46089  1.0000
  H   H12       1.0  0.51868  0.39783  0.03899  1.0000
  H   H13       1.0  0.83098  0.14280  0.61985  1.0000
  H   H14       1.0  0.85720  0.16900  0.88015  1.0000
  H   H15       1.0  0.16902  0.85722  0.38017  1.0000
  H   H16       1.0  0.14276  0.83098  0.11986  1.0000
  H   H17       1.0  0.71397  0.07387  0.68226  1.0000
  H   H18       1.0  0.92612  0.28602  0.81774  1.0000
  H   H19       1.0  0.28602  0.92614  0.31775  1.0000
  H   H20       1.0  0.07387  0.71397  0.18229  1.0000
  H   H21       1.0  0.12266  0.89805  0.91462  1.0000
  H   H22       1.0  0.10195  0.87731  0.58538  1.0000
  H   H23       1.0  0.87732  0.10195  0.08538  1.0000
  H   H24       1.0  0.89803  0.12270  0.41463  1.0000
  H   H25       1.0  0.95365  0.87107  0.91862  1.0000
  H   H26       1.0  0.12892  0.04632  0.58136  1.0000
  H   H27       1.0  0.04633  0.12891  0.08136  1.0000
  H   H28       1.0  0.87108  0.95369  0.41866  1.0000
  H   H29       1.0  0.17367  0.43479  0.82269  1.0000
  H   H30       1.0  0.56520  0.82635  0.67731  1.0000
  H   H31       1.0  0.82636  0.56522  0.17733  1.0000
  H   H32       1.0  0.43481  0.17366  0.32268  1.0000
  H   H33       1.0  0.14554  0.61943  0.82872  1.0000
  H   H34       1.0  0.38056  0.85446  0.67127  1.0000
  H   H35       1.0  0.85450  0.38058  0.17128  1.0000
  H   H36       1.0  0.61944  0.14551  0.32872  1.0000
  H   H37       1.0  0.26028  0.55805  0.75158  1.0000
  H   H38       1.0  0.44194  0.73972  0.74841  1.0000
  H   H39       1.0  0.73973  0.44193  0.24842  1.0000
  H   H40       1.0  0.55809  0.26027  0.25157  1.0000
  Ru  Ru1       1.0  0.12160  0.54024  0.49663  1.0000
  Ru  Ru2       1.0  0.45974  0.87840  0.00339  1.0000
  Ru  Ru3       1.0  0.87843  0.45976  0.50340  1.0000
  Ru  Ru4       1.0  0.54023  0.12157  0.99662  1.0000
  C   C1        1.0  0.03593  0.49284  0.71902  1.0000
  C   C2        1.0  0.50715  0.96407  0.78099  1.0000
  C   C3        1.0  0.96409  0.50715  0.28100  1.0000
  C   C4        1.0  0.49285  0.03591  0.21900  1.0000
  C   C5        1.0  0.16186  0.52866  0.78525  1.0000
  C   C6        1.0  0.47133  0.83814  0.71475  1.0000
  C   C7        1.0  0.83816  0.47134  0.21477  1.0000
  C   C8        1.0  0.52868  0.16184  0.28524  1.0000
  O   O1        1.0  0.18066  0.39638  0.58079  1.0000
  O   O2        1.0  0.60359  0.81933  0.91922  1.0000
  O   O3        1.0  0.81936  0.60361  0.41924  1.0000
  O   O4        1.0  0.39639  0.18064  0.08078  1.0000
  O   O5        1.0  0.91389  0.30672  0.58698  1.0000
  O   O6        1.0  0.69326  0.08610  0.91303  1.0000
  O   O7        1.0  0.08612  0.69327  0.41304  1.0000
  O   O8        1.0  0.30671  0.91387  0.08698  1.0000
  O   O9        1.0  0.09101  0.21925  0.69338  1.0000
  O   O10       1.0  0.78072  0.90898  0.80662  1.0000
  O   O11       1.0  0.90899  0.78075  0.30664  1.0000
  O   O12       1.0  0.21926  0.09101  0.19338  1.0000
  O   O13       1.0  0.12212  0.68867  0.59783  1.0000
  O   O14       1.0  0.31131  0.87787  0.90218  1.0000
  O   O15       1.0  0.87790  0.31134  0.40219  1.0000
  O   O16       1.0  0.68866  0.12210  0.09781  1.0000
  O   O17       1.0  0.85514  0.59619  0.60606  1.0000
  O   O18       1.0  0.40380  0.14485  0.89395  1.0000
  O   O19       1.0  0.14489  0.40381  0.39396  1.0000
  O   O20       1.0  0.59618  0.85511  0.10605  1.0000
  O   O21       1.0  0.98613  0.76952  0.72557  1.0000
  O   O22       1.0  0.23047  0.01387  0.77444  1.0000
  O   O23       1.0  0.01390  0.23048  0.27445  1.0000
  O   O24       1.0  0.76952  0.98610  0.22555  1.0000
  O   O25       1.0  0.90958  0.44554  0.76647  1.0000
  O   O26       1.0  0.55445  0.09043  0.73354  1.0000
  O   O27       1.0  0.09045  0.55447  0.23356  1.0000
  O   O28       1.0  0.44553  0.90956  0.26646  1.0000
  O   O29       1.0  0.38090  0.59636  0.50191  1.0000
  O   O30       1.0  0.40368  0.61907  0.99805  1.0000
  O   O31       1.0  0.61905  0.40374  0.49807  1.0000
  O   O32       1.0  0.59632  0.38088  0.00189  1.0000
  O   O33       1.0  0.80364  0.05927  0.65498  1.0000
  O   O34       1.0  0.94071  0.19633  0.84501  1.0000
  O   O35       1.0  0.19635  0.94074  0.34503  1.0000
  O   O36       1.0  0.05926  0.80365  0.15501  1.0000
  O   O37       1.0  0.03366  0.93608  0.89960  1.0000
  O   O38       1.0  0.06393  0.96632  0.60040  1.0000
  O   O39       1.0  0.96633  0.06394  0.10042  1.0000
  O   O40       1.0  0.93603  0.03369  0.39960  1.0000
