data_image0
_chemical_formula_structural       Cd4H44C44N8O16
_chemical_formula_sum              "Cd4 H44 C44 N8 O16"
_cell_length_a       7.66642
_cell_length_b       8.29415
_cell_length_c       18.0279
_cell_angle_alpha    97.6713
_cell_angle_beta     90
_cell_angle_gamma    90

_space_group_name_H-M_alt    "P 1"
_space_group_IT_number       1

loop_
  _space_group_symop_operation_xyz
  'x, y, z'

loop_
  _atom_site_type_symbol
  _atom_site_label
  _atom_site_symmetry_multiplicity
  _atom_site_fract_x
  _atom_site_fract_y
  _atom_site_fract_z
  _atom_site_occupancy
  Cd  Cd1       1.0  0.29545  0.20476  0.22190  1.0000
  Cd  Cd2       1.0  0.79545  0.29524  0.27811  1.0000
  Cd  Cd3       1.0  0.70455  0.79524  0.77810  1.0000
  Cd  Cd4       1.0  0.20455  0.70476  0.72189  1.0000
  H   H1        1.0  0.37183  0.13931  0.03297  1.0000
  H   H2        1.0  0.87183  0.36070  0.46703  1.0000
  H   H3        1.0  0.62817  0.86070  0.96703  1.0000
  H   H4        1.0  0.12817  0.63930  0.53297  1.0000
  H   H5        1.0  0.26986  0.85603  0.94079  1.0000
  H   H6        1.0  0.76986  0.64397  0.55921  1.0000
  H   H7        1.0  0.73014  0.14397  0.05921  1.0000
  H   H8        1.0  0.23014  0.35603  0.44079  1.0000
  H   H9        1.0  0.04744  0.86734  0.15747  1.0000
  H   H10       1.0  0.54743  0.63266  0.34253  1.0000
  H   H11       1.0  0.95256  0.13267  0.84253  1.0000
  H   H12       1.0  0.45256  0.36734  0.65747  1.0000
  H   H13       1.0  0.11270  0.57444  0.12911  1.0000
  H   H14       1.0  0.61270  0.92556  0.37090  1.0000
  H   H15       1.0  0.88730  0.42556  0.87089  1.0000
  H   H16       1.0  0.38730  0.07444  0.62911  1.0000
  H   H17       1.0  0.00708  0.69853  0.90783  1.0000
  H   H18       1.0  0.50708  0.80147  0.59217  1.0000
  H   H19       1.0  0.99292  0.30147  0.09217  1.0000
  H   H20       1.0  0.49292  0.19853  0.40783  1.0000
  H   H21       1.0  0.93091  0.89915  0.41601  1.0000
  H   H22       1.0  0.43091  0.60085  0.08399  1.0000
  H   H23       1.0  0.06909  0.10085  0.58399  1.0000
  H   H24       1.0  0.56909  0.39915  0.91601  1.0000
  H   H25       1.0  0.12926  0.97977  0.45220  1.0000
  H   H26       1.0  0.62926  0.52024  0.04780  1.0000
  H   H27       1.0  0.87074  0.02024  0.54780  1.0000
  H   H28       1.0  0.37074  0.47976  0.95220  1.0000
  H   H29       1.0  0.29229  0.79189  0.35366  1.0000
  H   H30       1.0  0.79228  0.70811  0.14634  1.0000
  H   H31       1.0  0.70771  0.20811  0.64634  1.0000
  H   H32       1.0  0.20771  0.29189  0.85366  1.0000
  H   H33       1.0  0.17778  0.69015  0.41830  1.0000
  H   H34       1.0  0.67777  0.80985  0.08170  1.0000
  H   H35       1.0  0.82222  0.30985  0.58170  1.0000
  H   H36       1.0  0.32222  0.19015  0.91830  1.0000
  H   H37       1.0  0.06089  0.72895  0.25914  1.0000
  H   H38       1.0  0.56089  0.77106  0.24087  1.0000
  H   H39       1.0  0.93911  0.27105  0.74087  1.0000
  H   H40       1.0  0.43910  0.22894  0.75913  1.0000
  H   H41       1.0  0.92839  0.64208  0.32198  1.0000
  H   H42       1.0  0.42839  0.85793  0.17802  1.0000
  H   H43       1.0  0.07161  0.35792  0.67802  1.0000
  H   H44       1.0  0.57161  0.14208  0.82198  1.0000
  C   C1        1.0  0.28939  0.03935  0.04423  1.0000
  C   C2        1.0  0.78938  0.46065  0.45577  1.0000
  C   C3        1.0  0.71062  0.96065  0.95577  1.0000
  C   C4        1.0  0.21061  0.53935  0.54423  1.0000
  C   C5        1.0  0.24062  0.90075  0.99872  1.0000
  C   C6        1.0  0.74062  0.59925  0.50128  1.0000
  C   C7        1.0  0.75938  0.09925  0.00128  1.0000
  C   C8        1.0  0.25938  0.40075  0.49871  1.0000
  C   C9        1.0  0.12730  0.90065  0.11235  1.0000
  C   C10       1.0  0.62729  0.59936  0.38765  1.0000
  C   C11       1.0  0.87270  0.09936  0.88765  1.0000
  C   C12       1.0  0.37271  0.40065  0.61235  1.0000
  C   C13       1.0  0.06172  0.54318  0.07271  1.0000
  C   C14       1.0  0.56172  0.95683  0.42730  1.0000
  C   C15       1.0  0.93827  0.45683  0.92730  1.0000
  C   C16       1.0  0.43828  0.04318  0.57270  1.0000
  C   C17       1.0  0.06734  0.65493  0.02105  1.0000
  C   C18       1.0  0.56735  0.84507  0.47896  1.0000
  C   C19       1.0  0.93266  0.34508  0.97896  1.0000
  C   C20       1.0  0.43266  0.15493  0.52104  1.0000
  C   C21       1.0  0.00602  0.61177  0.94811  1.0000
  C   C22       1.0  0.50603  0.88823  0.55189  1.0000
  C   C23       1.0  0.99397  0.38823  0.05189  1.0000
  C   C24       1.0  0.49398  0.11177  0.44810  1.0000
  C   C25       1.0  0.06565  0.04728  0.34613  1.0000
  C   C26       1.0  0.56565  0.45271  0.15386  1.0000
  C   C27       1.0  0.93435  0.95271  0.65386  1.0000
  C   C28       1.0  0.43435  0.54728  0.84613  1.0000
  C   C29       1.0  0.06689  0.92085  0.40050  1.0000
  C   C30       1.0  0.56688  0.57915  0.09950  1.0000
  C   C31       1.0  0.93311  0.07915  0.59950  1.0000
  C   C32       1.0  0.43311  0.42085  0.90050  1.0000
  C   C33       1.0  0.16107  0.76286  0.37219  1.0000
  C   C34       1.0  0.66107  0.73714  0.12781  1.0000
  C   C35       1.0  0.83893  0.23714  0.62781  1.0000
  C   C36       1.0  0.33893  0.26286  0.87219  1.0000
  C   C37       1.0  0.06558  0.66198  0.30793  1.0000
  C   C38       1.0  0.56558  0.83802  0.19207  1.0000
  C   C39       1.0  0.93442  0.33802  0.69207  1.0000
  C   C40       1.0  0.43442  0.16198  0.80793  1.0000
  C   C41       1.0  0.14706  0.49829  0.28188  1.0000
  C   C42       1.0  0.64707  0.00172  0.21812  1.0000
  C   C43       1.0  0.85293  0.50171  0.71812  1.0000
  C   C44       1.0  0.35294  0.99829  0.78188  1.0000
  N   N1        1.0  0.21739  0.03793  0.11449  1.0000
  N   N2        1.0  0.71738  0.46207  0.38551  1.0000
  N   N3        1.0  0.78261  0.96207  0.88551  1.0000
  N   N4        1.0  0.28261  0.53793  0.61449  1.0000
  N   N5        1.0  0.13856  0.81256  0.04286  1.0000
  N   N6        1.0  0.63856  0.68744  0.45714  1.0000
  N   N7        1.0  0.86144  0.18744  0.95714  1.0000
  N   N8        1.0  0.36145  0.31256  0.54286  1.0000
  O   O1        1.0  0.29863  0.46419  0.30242  1.0000
  O   O2        1.0  0.79863  0.03582  0.19758  1.0000
  O   O3        1.0  0.70137  0.53582  0.69758  1.0000
  O   O4        1.0  0.20137  0.96418  0.80242  1.0000
  O   O5        1.0  0.05843  0.39511  0.23616  1.0000
  O   O6        1.0  0.55843  0.10490  0.26384  1.0000
  O   O7        1.0  0.94157  0.60489  0.76384  1.0000
  O   O8        1.0  0.44157  0.89511  0.73616  1.0000
  O   O9        1.0  0.96050  0.16609  0.36107  1.0000
  O   O10       1.0  0.46050  0.33390  0.13892  1.0000
  O   O11       1.0  0.03950  0.83390  0.63892  1.0000
  O   O12       1.0  0.53950  0.66609  0.86107  1.0000
  O   O13       1.0  0.17224  0.02595  0.29166  1.0000
  O   O14       1.0  0.67225  0.47404  0.20833  1.0000
  O   O15       1.0  0.82775  0.97405  0.70833  1.0000
  O   O16       1.0  0.32775  0.52595  0.79166  1.0000
