data_image0
_chemical_formula_structural       Cu2H8C12S2I2N4
_chemical_formula_sum              "Cu2 H8 C12 S2 I2 N4"
_cell_length_a       4.06016
_cell_length_b       10.2474
_cell_length_c       10.3144
_cell_angle_alpha    69.7751
_cell_angle_beta     84.7008
_cell_angle_gamma    78.9587

_space_group_name_H-M_alt    "P 1"
_space_group_IT_number       1

loop_
  _space_group_symop_operation_xyz
  'x, y, z'

loop_
  _atom_site_type_symbol
  _atom_site_label
  _atom_site_symmetry_multiplicity
  _atom_site_fract_x
  _atom_site_fract_y
  _atom_site_fract_z
  _atom_site_occupancy
  Cu  Cu1       1.0  0.27644  0.47707  0.92123  1.0000
  Cu  Cu2       1.0  0.72356  0.52294  0.07877  1.0000
  H   H1        1.0  0.66490  0.45236  0.63944  1.0000
  H   H2        1.0  0.33511  0.54764  0.36057  1.0000
  H   H3        1.0  0.48600  0.96669  0.67273  1.0000
  H   H4        1.0  0.51400  0.03330  0.32727  1.0000
  H   H5        1.0  0.80233  0.11259  0.47138  1.0000
  H   H6        1.0  0.19767  0.88741  0.52862  1.0000
  H   H7        1.0  0.88582  0.34908  0.45503  1.0000
  H   H8        1.0  0.11418  0.65092  0.54497  1.0000
  C   C1        1.0  0.44338  0.26799  0.75871  1.0000
  C   C2        1.0  0.55662  0.73201  0.24129  1.0000
  C   C3        1.0  0.62367  0.34855  0.64497  1.0000
  C   C4        1.0  0.37633  0.65145  0.35503  1.0000
  C   C5        1.0  0.38878  0.13009  0.76757  1.0000
  C   C6        1.0  0.61121  0.86991  0.23243  1.0000
  C   C7        1.0  0.52135  0.07235  0.66335  1.0000
  C   C8        1.0  0.47865  0.92765  0.33665  1.0000
  C   C9        1.0  0.69599  0.15336  0.55366  1.0000
  C   C10       1.0  0.30402  0.84664  0.44634  1.0000
  C   C11       1.0  0.74485  0.29027  0.54427  1.0000
  C   C12       1.0  0.25515  0.70972  0.45573  1.0000
  S   S1        1.0  0.12394  0.17352  0.97072  1.0000
  S   S2        1.0  0.87606  0.82648  0.02928  1.0000
  I   I1        1.0  0.71393  0.64172  0.80393  1.0000
  I   I2        1.0  0.28607  0.35828  0.19607  1.0000
  N   N1        1.0  0.30614  0.30394  0.86936  1.0000
  N   N2        1.0  0.69385  0.69606  0.13064  1.0000
  N   N3        1.0  0.20815  0.06807  0.88166  1.0000
  N   N4        1.0  0.79185  0.93193  0.11834  1.0000
