data_image0
_chemical_formula_structural       Cd2H28C40N8O8
_chemical_formula_sum              "Cd2 H28 C40 N8 O8"
_cell_length_a       6.96951
_cell_length_b       10.8284
_cell_length_c       13.0197
_cell_angle_alpha    98.1925
_cell_angle_beta     100.9
_cell_angle_gamma    107.551

_space_group_name_H-M_alt    "P 1"
_space_group_IT_number       1

loop_
  _space_group_symop_operation_xyz
  'x, y, z'

loop_
  _atom_site_type_symbol
  _atom_site_label
  _atom_site_symmetry_multiplicity
  _atom_site_fract_x
  _atom_site_fract_y
  _atom_site_fract_z
  _atom_site_occupancy
  Cd  Cd1       1.0  0.33540  0.24086  0.74739  1.0000
  Cd  Cd2       1.0  0.66460  0.75914  0.25262  1.0000
  H   H1        1.0  0.87640  0.65270  0.76047  1.0000
  H   H2        1.0  0.12360  0.34730  0.23953  1.0000
  H   H3        1.0  0.06097  0.83320  0.68117  1.0000
  H   H4        1.0  0.93903  0.16680  0.31883  1.0000
  H   H5        1.0  0.82088  0.57052  0.36932  1.0000
  H   H6        1.0  0.17912  0.42948  0.63069  1.0000
  H   H7        1.0  0.64021  0.38944  0.45101  1.0000
  H   H8        1.0  0.35978  0.61056  0.54899  1.0000
  H   H9        1.0  0.38892  0.10520  0.47365  1.0000
  H   H10       1.0  0.61108  0.89481  0.52635  1.0000
  H   H11       1.0  0.11098  0.97364  0.27590  1.0000
  H   H12       1.0  0.88902  0.02637  0.72410  1.0000
  H   H13       1.0  0.58147  0.19340  0.27382  1.0000
  H   H14       1.0  0.41852  0.80659  0.72618  1.0000
  H   H15       1.0  0.48943  0.36697  0.19198  1.0000
  H   H16       1.0  0.51057  0.63303  0.80801  1.0000
  H   H17       1.0  0.13523  0.07366  0.90371  1.0000
  H   H18       1.0  0.86477  0.92633  0.09629  1.0000
  H   H19       1.0  0.22507  0.89992  0.98855  1.0000
  H   H20       1.0  0.77492  0.10008  0.01146  1.0000
  H   H21       1.0  0.20958  0.62344  0.99519  1.0000
  H   H22       1.0  0.79042  0.37656  0.00482  1.0000
  H   H23       1.0  0.12862  0.46468  0.79195  1.0000
  H   H24       1.0  0.87138  0.53532  0.20805  1.0000
  H   H25       1.0  0.28507  0.95716  0.60148  1.0000
  H   H26       1.0  0.71494  0.04284  0.39852  1.0000
  H   H27       1.0  0.30635  0.48689  0.12521  1.0000
  H   H28       1.0  0.69365  0.51311  0.87479  1.0000
  C   C1        1.0  0.74587  0.50912  0.61051  1.0000
  C   C2        1.0  0.25413  0.49089  0.38949  1.0000
  C   C3        1.0  0.86694  0.63422  0.67487  1.0000
  C   C4        1.0  0.13305  0.36578  0.32513  1.0000
  C   C5        1.0  0.96964  0.73615  0.63006  1.0000
  C   C6        1.0  0.03036  0.26385  0.36994  1.0000
  C   C7        1.0  0.94988  0.71552  0.51872  1.0000
  C   C8        1.0  0.05012  0.28449  0.48129  1.0000
  C   C9        1.0  0.83298  0.58888  0.45506  1.0000
  C   C10       1.0  0.16702  0.41112  0.54494  1.0000
  C   C11       1.0  0.73345  0.48706  0.50033  1.0000
  C   C12       1.0  0.26655  0.51294  0.49968  1.0000
  C   C13       1.0  0.61543  0.40334  0.65450  1.0000
  C   C14       1.0  0.38457  0.59666  0.34550  1.0000
  C   C15       1.0  0.04621  0.82268  0.46918  1.0000
  C   C16       1.0  0.95380  0.17732  0.53082  1.0000
  C   C17       1.0  0.26394  0.01050  0.44877  1.0000
  C   C18       1.0  0.73606  0.98950  0.55123  1.0000
  C   C19       1.0  0.12403  0.94470  0.35259  1.0000
  C   C20       1.0  0.87597  0.05530  0.64741  1.0000
  C   C21       1.0  0.40929  0.03542  0.13598  1.0000
  C   C22       1.0  0.59071  0.96458  0.86402  1.0000
  C   C23       1.0  0.48154  0.16728  0.19316  1.0000
  C   C24       1.0  0.51846  0.83271  0.80683  1.0000
  C   C25       1.0  0.43132  0.26492  0.14672  1.0000
  C   C26       1.0  0.56868  0.73508  0.85327  1.0000
  C   C27       1.0  0.31002  0.23303  0.04067  1.0000
  C   C28       1.0  0.68997  0.76696  0.95932  1.0000
  C   C29       1.0  0.23357  0.10018  0.98471  1.0000
  C   C30       1.0  0.76644  0.89982  0.01529  1.0000
  C   C31       1.0  0.28161  0.00271  0.03202  1.0000
  C   C32       1.0  0.71838  0.99729  0.96798  1.0000
  C   C33       1.0  0.47977  0.93223  0.17956  1.0000
  C   C34       1.0  0.52023  0.06777  0.82044  1.0000
  C   C35       1.0  0.26440  0.33528  0.98906  1.0000
  C   C36       1.0  0.73561  0.66472  0.01094  1.0000
  C   C37       1.0  0.21273  0.52448  0.96959  1.0000
  C   C38       1.0  0.78727  0.47551  0.03042  1.0000
  C   C39       1.0  0.17611  0.44518  0.87050  1.0000
  C   C40       1.0  0.82389  0.55482  0.12950  1.0000
  N   N1        1.0  0.98841  0.82897  0.36590  1.0000
  N   N2        1.0  0.01160  0.17103  0.63410  1.0000
  N   N3        1.0  0.21263  0.93243  0.52059  1.0000
  N   N4        1.0  0.78738  0.06757  0.47941  1.0000
  N   N5        1.0  0.21030  0.32849  0.88295  1.0000
  N   N6        1.0  0.78970  0.67151  0.11704  1.0000
  N   N7        1.0  0.26699  0.45370  0.04261  1.0000
  N   N8        1.0  0.73301  0.54630  0.95739  1.0000
  O   O1        1.0  0.53794  0.28512  0.60272  1.0000
  O   O2        1.0  0.46206  0.71489  0.39728  1.0000
  O   O3        1.0  0.57417  0.44004  0.74491  1.0000
  O   O4        1.0  0.42583  0.55996  0.25509  1.0000
  O   O5        1.0  0.39422  0.81143  0.13344  1.0000
  O   O6        1.0  0.60578  0.18857  0.86656  1.0000
  O   O7        1.0  0.63882  0.97111  0.26121  1.0000
  O   O8        1.0  0.36118  0.02889  0.73879  1.0000
