data_image0
_chemical_formula_structural       Cd4H16C12Br8N8
_chemical_formula_sum              "Cd4 H16 C12 Br8 N8"
_cell_length_a       3.98664
_cell_length_b       11.3043
_cell_length_c       15.7566
_cell_angle_alpha    89.9999
_cell_angle_beta     90
_cell_angle_gamma    90.0001

_space_group_name_H-M_alt    "P 1"
_space_group_IT_number       1

loop_
  _space_group_symop_operation_xyz
  'x, y, z'

loop_
  _atom_site_type_symbol
  _atom_site_label
  _atom_site_symmetry_multiplicity
  _atom_site_fract_x
  _atom_site_fract_y
  _atom_site_fract_z
  _atom_site_occupancy
  Cd  Cd1       1.0  0.92587  0.10773  0.08888  1.0000
  Cd  Cd2       1.0  0.42589  0.89228  0.91112  1.0000
  Cd  Cd3       1.0  0.92590  0.60772  0.41112  1.0000
  Cd  Cd4       1.0  0.42588  0.39228  0.58888  1.0000
  H   H1        1.0  0.82018  0.21544  0.41619  1.0000
  H   H2        1.0  0.32019  0.78456  0.58381  1.0000
  H   H3        1.0  0.82019  0.71544  0.08381  1.0000
  H   H4        1.0  0.32017  0.28455  0.91619  1.0000
  H   H5        1.0  0.17497  0.93732  0.26225  1.0000
  H   H6        1.0  0.67497  0.06269  0.73775  1.0000
  H   H7        1.0  0.17498  0.43732  0.23775  1.0000
  H   H8        1.0  0.67497  0.56268  0.76225  1.0000
  H   H9        1.0  0.10319  0.01485  0.42842  1.0000
  H   H10       1.0  0.60320  0.98515  0.57157  1.0000
  H   H11       1.0  0.10319  0.51486  0.07157  1.0000
  H   H12       1.0  0.60318  0.48514  0.92843  1.0000
  H   H13       1.0  0.69242  0.26992  0.26099  1.0000
  H   H14       1.0  0.19242  0.73008  0.73901  1.0000
  H   H15       1.0  0.69242  0.76992  0.23901  1.0000
  H   H16       1.0  0.19242  0.23008  0.76100  1.0000
  C   C1        1.0  0.06246  0.01765  0.28640  1.0000
  C   C2        1.0  0.56246  0.98235  0.71360  1.0000
  C   C3        1.0  0.06246  0.51765  0.21360  1.0000
  C   C4        1.0  0.56247  0.48234  0.78640  1.0000
  C   C5        1.0  0.02975  0.05499  0.36895  1.0000
  C   C6        1.0  0.52976  0.94501  0.63105  1.0000
  C   C7        1.0  0.02975  0.55499  0.13105  1.0000
  C   C8        1.0  0.52974  0.44501  0.86895  1.0000
  C   C9        1.0  0.81489  0.18991  0.28267  1.0000
  C   C10       1.0  0.31489  0.81009  0.71733  1.0000
  C   C11       1.0  0.81489  0.68991  0.21733  1.0000
  C   C12       1.0  0.31489  0.31009  0.78267  1.0000
  Br  Br1       1.0  0.92784  0.07710  0.91197  1.0000
  Br  Br2       1.0  0.42783  0.92291  0.08803  1.0000
  Br  Br3       1.0  0.92784  0.57709  0.58803  1.0000
  Br  Br4       1.0  0.42783  0.42291  0.41197  1.0000
  Br  Br5       1.0  0.42803  0.27650  0.07803  1.0000
  Br  Br6       1.0  0.92806  0.72351  0.92197  1.0000
  Br  Br7       1.0  0.42807  0.77649  0.42197  1.0000
  Br  Br8       1.0  0.92803  0.22350  0.57803  1.0000
  N   N1        1.0  0.92788  0.10269  0.23331  1.0000
  N   N2        1.0  0.42789  0.89731  0.76668  1.0000
  N   N3        1.0  0.92788  0.60269  0.26669  1.0000
  N   N4        1.0  0.42788  0.39730  0.73332  1.0000
  N   N5        1.0  0.87387  0.16339  0.36493  1.0000
  N   N6        1.0  0.37387  0.83661  0.63507  1.0000
  N   N7        1.0  0.87386  0.66339  0.13507  1.0000
  N   N8        1.0  0.37387  0.33660  0.86493  1.0000
