data_image0
_chemical_formula_structural       Ag4H36C32N20Cl4O12
_chemical_formula_sum              "Ag4 H36 C32 N20 Cl4 O12"
_cell_length_a       7.66866
_cell_length_b       13.0974
_cell_length_c       13.3507
_cell_angle_alpha    85.2788
_cell_angle_beta     73.6711
_cell_angle_gamma    72.9771

_space_group_name_H-M_alt    "P 1"
_space_group_IT_number       1

loop_
  _space_group_symop_operation_xyz
  'x, y, z'

loop_
  _atom_site_type_symbol
  _atom_site_label
  _atom_site_symmetry_multiplicity
  _atom_site_fract_x
  _atom_site_fract_y
  _atom_site_fract_z
  _atom_site_occupancy
  Ag  Ag1       1.0  0.91370  0.59595  0.83275  1.0000
  Ag  Ag2       1.0  0.34213  0.40454  0.16685  1.0000
  Ag  Ag3       1.0  0.25973  0.90408  0.33275  1.0000
  Ag  Ag4       1.0  0.49708  0.09547  0.66676  1.0000
  H   H1        1.0  0.10346  0.51633  0.01968  1.0000
  H   H2        1.0  0.63982  0.48328  0.98009  1.0000
  H   H3        1.0  0.36991  0.98364  0.51952  1.0000
  H   H4        1.0  0.87339  0.01671  0.48006  1.0000
  H   H5        1.0  0.76110  0.08655  0.83490  1.0000
  H   H6        1.0  0.68227  0.91402  0.16527  1.0000
  H   H7        1.0  0.59714  0.41368  0.33507  1.0000
  H   H8        1.0  0.34653  0.58588  0.66510  1.0000
  H   H9        1.0  0.60348  0.24651  0.08550  1.0000
  H   H10       1.0  0.93259  0.75370  0.91509  1.0000
  H   H11       1.0  0.59982  0.25361  0.58556  1.0000
  H   H12       1.0  0.43649  0.74628  0.41493  1.0000
  H   H13       1.0  0.73178  0.11733  0.03644  1.0000
  H   H14       1.0  0.88363  0.88283  0.96432  1.0000
  H   H15       1.0  0.59901  0.38278  0.53647  1.0000
  H   H16       1.0  0.51665  0.61712  0.46411  1.0000
  H   H17       1.0  0.84135  0.32152  0.94974  1.0000
  H   H18       1.0  0.11288  0.67837  0.05060  1.0000
  H   H19       1.0  0.91257  0.17850  0.44972  1.0000
  H   H20       1.0  0.54137  0.82151  0.55054  1.0000
  H   H21       1.0  0.97205  0.19022  0.90740  1.0000
  H   H22       1.0  0.07083  0.80959  0.09322  1.0000
  H   H23       1.0  0.91201  0.30977  0.40729  1.0000
  H   H24       1.0  0.63042  0.69029  0.59314  1.0000
  H   H25       1.0  0.01305  0.14239  0.08895  1.0000
  H   H26       1.0  0.24177  0.85773  0.91166  1.0000
  H   H27       1.0  0.90533  0.35771  0.58879  1.0000
  H   H28       1.0  0.84992  0.64220  0.41167  1.0000
  H   H29       1.0  0.10819  0.24948  0.03516  1.0000
  H   H30       1.0  0.39115  0.75059  0.96546  1.0000
  H   H31       1.0  0.10754  0.25059  0.53504  1.0000
  H   H32       1.0  0.89188  0.74936  0.46561  1.0000
  H   H33       1.0  0.88794  0.27490  0.13112  1.0000
  H   H34       1.0  0.29035  0.72527  0.86939  1.0000
  H   H35       1.0  0.91271  0.22523  0.63102  1.0000
  H   H36       1.0  0.76607  0.77467  0.36941  1.0000
  C   C1        1.0  0.19156  0.45049  0.96684  1.0000
  C   C2        1.0  0.60951  0.54932  0.03282  1.0000
  C   C3        1.0  0.39211  0.04952  0.46673  1.0000
  C   C4        1.0  0.90912  0.95066  0.53278  1.0000
  C   C5        1.0  0.43433  0.30104  0.93166  1.0000
  C   C6        1.0  0.66738  0.69891  0.06836  1.0000
  C   C7        1.0  0.48521  0.19905  0.43168  1.0000
  C   C8        1.0  0.11655  0.80105  0.56830  1.0000
  C   C9        1.0  0.39226  0.28401  0.83857  1.0000
  C   C10       1.0  0.51599  0.71612  0.16093  1.0000
  C   C11       1.0  0.42623  0.21609  0.33856  1.0000
  C   C12       1.0  0.98238  0.78384  0.66088  1.0000
  C   C13       1.0  0.24330  0.36225  0.81340  1.0000
  C   C14       1.0  0.42043  0.63797  0.18563  1.0000
  C   C15       1.0  0.35560  0.13782  0.31332  1.0000
  C   C16       1.0  0.80863  0.86197  0.68557  1.0000
  C   C17       1.0  0.63697  0.15649  0.85087  1.0000
  C   C18       1.0  0.64445  0.84385  0.14922  1.0000
  C   C19       1.0  0.54305  0.34371  0.35100  1.0000
  C   C20       1.0  0.23853  0.65605  0.64906  1.0000
  C   C21       1.0  0.69833  0.20217  0.01496  1.0000
  C   C22       1.0  0.91400  0.79796  0.98571  1.0000
  C   C23       1.0  0.65029  0.29793  0.51501  1.0000
  C   C24       1.0  0.46214  0.70198  0.48553  1.0000
  C   C25       1.0  0.87806  0.23818  0.97603  1.0000
  C   C26       1.0  0.09183  0.76180  0.02451  1.0000
  C   C27       1.0  0.86601  0.26186  0.47596  1.0000
  C   C28       1.0  0.60378  0.73809  0.52441  1.0000
  C   C29       1.0  0.97696  0.22569  0.06249  1.0000
  C   C30       1.0  0.26295  0.77442  0.93805  1.0000
  C   C31       1.0  0.95253  0.27440  0.56237  1.0000
  C   C32       1.0  0.78768  0.72549  0.43809  1.0000
  N   N1        1.0  0.14457  0.44453  0.87803  1.0000
  N   N2        1.0  0.46844  0.55546  0.12114  1.0000
  N   N3        1.0  0.33923  0.05549  0.37790  1.0000
  N   N4        1.0  0.77417  0.94450  0.62109  1.0000
  N   N5        1.0  0.33481  0.38215  0.99778  1.0000
  N   N6        1.0  0.71477  0.61769  0.00222  1.0000
  N   N7        1.0  0.46687  0.11789  0.49774  1.0000
  N   N8        1.0  0.08272  0.88228  0.50218  1.0000
  N   N9        1.0  0.64975  0.49095  0.75268  1.0000
  N   N10       1.0  0.89401  0.50843  0.24741  1.0000
  N   N11       1.0  0.89062  0.00896  0.25270  1.0000
  N   N12       1.0  0.15271  0.99151  0.74730  1.0000
  N   N13       1.0  0.52043  0.19248  0.79038  1.0000
  N   N14       1.0  0.50423  0.80786  0.20919  1.0000
  N   N15       1.0  0.46268  0.30767  0.29045  1.0000
  N   N16       1.0  0.06236  0.69206  0.70909  1.0000
  N   N17       1.0  0.59012  0.21849  0.93752  1.0000
  N   N18       1.0  0.74595  0.78159  0.06288  1.0000
  N   N19       1.0  0.55824  0.28167  0.43763  1.0000
  N   N20       1.0  0.27775  0.71833  0.56274  1.0000
  Cl  Cl1       1.0  0.18238  0.35765  0.70065  1.0000
  Cl  Cl2       1.0  0.24237  0.64310  0.29754  1.0000
  Cl  Cl3       1.0  0.28998  0.14250  0.20061  1.0000
  Cl  Cl4       1.0  0.63565  0.85684  0.79745  1.0000
  O   O1        1.0  0.55052  0.46980  0.70001  1.0000
  O   O2        1.0  0.72204  0.52923  0.30005  1.0000
  O   O3        1.0  0.77037  0.03012  0.19995  1.0000
  O   O4        1.0  0.00153  0.97077  0.80002  1.0000
  O   O5        1.0  0.69210  0.57957  0.73754  1.0000
  O   O6        1.0  0.01057  0.41989  0.26230  1.0000
  O   O7        1.0  0.02141  0.92028  0.23773  1.0000
  O   O8        1.0  0.18090  0.08001  0.76216  1.0000
  O   O9        1.0  0.70708  0.42510  0.81907  1.0000
  O   O10       1.0  0.95020  0.57460  0.18128  1.0000
  O   O11       1.0  0.88214  0.07488  0.31902  1.0000
  O   O12       1.0  0.27487  0.92534  0.68110  1.0000
