data_image0
_chemical_formula_structural       Ag4H44C32N24O12
_chemical_formula_sum              "Ag4 H44 C32 N24 O12"
_cell_length_a       7.6671
_cell_length_b       13.1377
_cell_length_c       13.1444
_cell_angle_alpha    85.1224
_cell_angle_beta     73.0588
_cell_angle_gamma    73.0343

_space_group_name_H-M_alt    "P 1"
_space_group_IT_number       1

loop_
  _space_group_symop_operation_xyz
  'x, y, z'

loop_
  _atom_site_type_symbol
  _atom_site_label
  _atom_site_symmetry_multiplicity
  _atom_site_fract_x
  _atom_site_fract_y
  _atom_site_fract_z
  _atom_site_occupancy
  Ag  Ag1       1.0  0.71223  0.66254  0.91211  1.0000
  Ag  Ag2       1.0  0.28665  0.33755  0.08790  1.0000
  Ag  Ag3       1.0  0.12444  0.83751  0.41216  1.0000
  Ag  Ag4       1.0  0.37404  0.16244  0.58793  1.0000
  H   H1        1.0  0.45960  0.77845  0.25458  1.0000
  H   H2        1.0  0.49245  0.22168  0.74550  1.0000
  H   H3        1.0  0.98811  0.72156  0.75459  1.0000
  H   H4        1.0  0.46425  0.27828  0.24563  1.0000
  H   H5        1.0  0.62417  0.75134  0.13051  1.0000
  H   H6        1.0  0.50598  0.24867  0.86964  1.0000
  H   H7        1.0  0.12548  0.74874  0.63049  1.0000
  H   H8        1.0  0.50478  0.25134  0.36978  1.0000
  H   H9        1.0  0.51795  0.48515  0.98904  1.0000
  H   H10       1.0  0.99189  0.51498  0.01085  1.0000
  H   H11       1.0  0.75276  0.01486  0.48910  1.0000
  H   H12       1.0  0.25673  0.98503  0.51105  1.0000
  H   H13       1.0  0.89951  0.65145  0.43757  1.0000
  H   H14       1.0  0.98852  0.34829  0.56233  1.0000
  H   H15       1.0  0.30089  0.84838  0.93760  1.0000
  H   H16       1.0  0.08731  0.15164  0.06236  1.0000
  H   H17       1.0  0.88865  0.46809  0.39990  1.0000
  H   H18       1.0  0.75627  0.53197  0.60000  1.0000
  H   H19       1.0  0.10649  0.03186  0.89994  1.0000
  H   H20       1.0  0.03860  0.96805  0.10003  1.0000
  H   H21       1.0  0.05700  0.39586  0.28936  1.0000
  H   H22       1.0  0.74243  0.60400  0.71058  1.0000
  H   H23       1.0  0.20269  0.10404  0.78939  1.0000
  H   H24       1.0  0.09670  0.89603  0.21063  1.0000
  H   H25       1.0  0.87554  0.50910  0.16846  1.0000
  H   H26       1.0  0.55352  0.49088  0.83147  1.0000
  H   H27       1.0  0.13456  0.99083  0.66848  1.0000
  H   H28       1.0  0.79458  0.00924  0.33145  1.0000
  H   H29       1.0  0.70839  0.58085  0.27976  1.0000
  H   H30       1.0  0.56900  0.41913  0.72022  1.0000
  H   H31       1.0  0.03898  0.91910  0.77976  1.0000
  H   H32       1.0  0.73843  0.08091  0.22014  1.0000
  H   H33       1.0  0.59525  0.43717  0.22273  1.0000
  H   H34       1.0  0.25543  0.56287  0.77724  1.0000
  H   H35       1.0  0.78239  0.06293  0.72264  1.0000
  H   H36       1.0  0.56845  0.93723  0.27735  1.0000
  H   H37       1.0  0.61675  0.41545  0.35442  1.0000
  H   H38       1.0  0.38672  0.58465  0.64556  1.0000
  H   H39       1.0  0.78210  0.08466  0.85435  1.0000
  H   H40       1.0  0.72145  0.91534  0.14566  1.0000
  H   H41       1.0  0.79236  0.33885  0.24761  1.0000
  H   H42       1.0  0.37918  0.66118  0.75239  1.0000
  H   H43       1.0  0.88142  0.16115  0.74753  1.0000
  H   H44       1.0  0.79046  0.83890  0.25251  1.0000
  C   C1        1.0  0.44174  0.53257  0.06093  1.0000
  C   C2        1.0  0.03507  0.46757  0.93894  1.0000
  C   C3        1.0  0.72403  0.96743  0.56098  1.0000
  C   C4        1.0  0.25260  0.03242  0.43912  1.0000
  C   C5        1.0  0.21243  0.56089  0.21545  1.0000
  C   C6        1.0  0.98889  0.43918  0.78433  1.0000
  C   C7        1.0  0.52321  0.93911  0.71555  1.0000
  C   C8        1.0  0.17823  0.06083  0.28446  1.0000
  C   C9        1.0  0.26372  0.64885  0.23785  1.0000
  C   C10       1.0  0.15046  0.35120  0.76213  1.0000
  C   C11       1.0  0.66252  0.85118  0.73791  1.0000
  C   C12       1.0  0.25217  0.14868  0.26215  1.0000
  C   C13       1.0  0.42099  0.67415  0.16412  1.0000
  C   C14       1.0  0.25919  0.32592  0.83595  1.0000
  C   C15       1.0  0.84507  0.82589  0.66417  1.0000
  C   C16       1.0  0.33542  0.17398  0.33605  1.0000
  C   C17       1.0  0.02158  0.63496  0.36713  1.0000
  C   C18       1.0  0.02375  0.36488  0.63275  1.0000
  C   C19       1.0  0.40646  0.86494  0.86718  1.0000
  C   C20       1.0  0.13913  0.13505  0.13277  1.0000
  C   C21       1.0  0.95424  0.47365  0.31421  1.0000
  C   C22       1.0  0.74217  0.52627  0.68564  1.0000
  C   C23       1.0  0.17772  0.02625  0.81426  1.0000
  C   C24       1.0  0.01874  0.97375  0.18568  1.0000
  C   C25       1.0  0.80489  0.50195  0.25339  1.0000
  C   C26       1.0  0.56040  0.49801  0.74657  1.0000
  C   C27       1.0  0.05673  0.99797  0.75341  1.0000
  C   C28       1.0  0.80868  0.00205  0.24654  1.0000
  C   C29       1.0  0.69642  0.41867  0.27043  1.0000
  C   C30       1.0  0.38577  0.58138  0.72955  1.0000
  C   C31       1.0  0.86509  0.08137  0.77037  1.0000
  C   C32       1.0  0.71729  0.91869  0.22962  1.0000
  N   N1        1.0  0.50304  0.61474  0.07365  1.0000
  N   N2        1.0  0.19120  0.38536  0.92639  1.0000
  N   N3        1.0  0.86758  0.88529  0.57368  1.0000
  N   N4        1.0  0.32671  0.11457  0.42652  1.0000
  N   N5        1.0  0.30049  0.49900  0.12813  1.0000
  N   N6        1.0  0.92769  0.50114  0.87160  1.0000
  N   N7        1.0  0.54929  0.00101  0.62826  1.0000
  N   N8        1.0  0.17870  0.99893  0.37178  1.0000
  N   N9        1.0  0.49146  0.75244  0.17851  1.0000
  N   N10       1.0  0.42237  0.24769  0.82157  1.0000
  N   N11       1.0  0.99389  0.74765  0.67855  1.0000
  N   N12       1.0  0.42020  0.25228  0.32171  1.0000
  N   N13       1.0  0.14188  0.69396  0.33320  1.0000
  N   N14       1.0  0.16906  0.30597  0.66682  1.0000
  N   N15       1.0  0.58581  0.80602  0.83323  1.0000
  N   N16       1.0  0.22567  0.19390  0.16681  1.0000
  N   N17       1.0  0.06035  0.55247  0.29951  1.0000
  N   N18       1.0  0.91247  0.44745  0.70026  1.0000
  N   N19       1.0  0.36269  0.94745  0.79960  1.0000
  N   N20       1.0  0.11014  0.05257  0.20035  1.0000
  N   N21       1.0  0.00363  0.74859  0.99342  1.0000
  N   N22       1.0  0.74535  0.25149  0.00666  1.0000
  N   N23       1.0  0.50218  0.75149  0.49325  1.0000
  N   N24       1.0  0.74689  0.24850  0.50666  1.0000
  O   O1        1.0  0.88143  0.69969  0.04440  1.0000
  O   O2        1.0  0.62530  0.30037  0.95561  1.0000
  O   O3        1.0  0.33104  0.80027  0.54428  1.0000
  O   O4        1.0  0.67590  0.19956  0.45556  1.0000
  O   O5        1.0  0.09795  0.77909  0.04248  1.0000
  O   O6        1.0  0.91920  0.22094  0.95764  1.0000
  O   O7        1.0  0.62707  0.72115  0.54227  1.0000
  O   O8        1.0  0.89035  0.27895  0.45773  1.0000
  O   O9        1.0  0.02774  0.76516  0.89462  1.0000
  O   O10       1.0  0.68717  0.23501  0.10546  1.0000
  O   O11       1.0  0.54281  0.73486  0.39448  1.0000
  O   O12       1.0  0.67191  0.26514  0.60541  1.0000
