data_image0
_chemical_formula_structural       Hg8H32C40S4I16N8
_chemical_formula_sum              "Hg8 H32 C40 S4 I16 N8"
_cell_length_a       8.86328
_cell_length_b       13.8485
_cell_length_c       17.4231
_cell_angle_alpha    113.631
_cell_angle_beta     104.762
_cell_angle_gamma    89.9888

_space_group_name_H-M_alt    "P 1"
_space_group_IT_number       1

loop_
  _space_group_symop_operation_xyz
  'x, y, z'

loop_
  _atom_site_type_symbol
  _atom_site_label
  _atom_site_symmetry_multiplicity
  _atom_site_fract_x
  _atom_site_fract_y
  _atom_site_fract_z
  _atom_site_occupancy
  Hg  Hg1       1.0  0.40133  0.19280  0.50019  1.0000
  Hg  Hg2       1.0  0.59866  0.69284  0.50007  1.0000
  Hg  Hg3       1.0  0.16032  0.62388  0.13114  1.0000
  Hg  Hg4       1.0  0.83788  0.49224  0.86811  1.0000
  Hg  Hg5       1.0  0.47139  0.12386  0.13114  1.0000
  Hg  Hg6       1.0  0.52984  0.99249  0.86817  1.0000
  Hg  Hg7       1.0  0.81770  0.34375  0.50042  1.0000
  Hg  Hg8       1.0  0.18230  0.84334  0.49947  1.0000
  H   H1        1.0  0.85541  0.96010  0.37715  1.0000
  H   H2        1.0  0.14494  0.58315  0.62275  1.0000
  H   H3        1.0  0.02206  0.46006  0.37717  1.0000
  H   H4        1.0  0.97716  0.08313  0.62271  1.0000
  H   H5        1.0  0.10967  0.07050  0.43597  1.0000
  H   H6        1.0  0.89094  0.63455  0.56404  1.0000
  H   H7        1.0  0.82663  0.57038  0.43596  1.0000
  H   H8        1.0  0.17241  0.13429  0.56399  1.0000
  H   H9        1.0  0.10036  0.01166  0.17069  1.0000
  H   H10       1.0  0.89921  0.84154  0.82957  1.0000
  H   H11       1.0  0.57074  0.51197  0.17073  1.0000
  H   H12       1.0  0.43012  0.34127  0.82952  1.0000
  H   H13       1.0  0.83883  0.91010  0.12202  1.0000
  H   H14       1.0  0.16035  0.78868  0.87822  1.0000
  H   H15       1.0  0.78345  0.41034  0.12204  1.0000
  H   H16       1.0  0.21773  0.28857  0.87817  1.0000
  H   H17       1.0  0.48477  0.63227  0.07101  1.0000
  H   H18       1.0  0.51418  0.56191  0.92839  1.0000
  H   H19       1.0  0.08637  0.13229  0.07087  1.0000
  H   H20       1.0  0.91409  0.06230  0.92863  1.0000
  H   H21       1.0  0.74045  0.74168  0.10837  1.0000
  H   H22       1.0  0.25875  0.63398  0.89113  1.0000
  H   H23       1.0  0.86806  0.24166  0.10829  1.0000
  H   H24       1.0  0.13215  0.13430  0.89139  1.0000
  H   H25       1.0  0.59942  0.97989  0.32196  1.0000
  H   H26       1.0  0.40095  0.65816  0.67836  1.0000
  H   H27       1.0  0.22290  0.47975  0.32198  1.0000
  H   H28       1.0  0.77693  0.15772  0.67818  1.0000
  H   H29       1.0  0.35291  0.85921  0.27625  1.0000
  H   H30       1.0  0.64716  0.58309  0.72390  1.0000
  H   H31       1.0  0.42367  0.35908  0.27627  1.0000
  H   H32       1.0  0.57644  0.08267  0.72368  1.0000
  C   C1        1.0  0.91211  0.97711  0.33477  1.0000
  C   C2        1.0  0.08812  0.64265  0.66523  1.0000
  C   C3        1.0  0.92294  0.47710  0.33477  1.0000
  C   C4        1.0  0.07663  0.14255  0.66521  1.0000
  C   C5        1.0  0.05492  0.03725  0.36613  1.0000
  C   C6        1.0  0.94538  0.67135  0.63392  1.0000
  C   C7        1.0  0.81151  0.53724  0.36613  1.0000
  C   C8        1.0  0.18804  0.17113  0.63388  1.0000
  C   C9        1.0  0.13069  0.05306  0.30930  1.0000
  C   C10       1.0  0.86952  0.74423  0.69085  1.0000
  C   C11       1.0  0.67889  0.55315  0.30930  1.0000
  C   C12       1.0  0.32100  0.24392  0.69080  1.0000
  C   C13       1.0  0.04949  0.00417  0.21907  1.0000
  C   C14       1.0  0.95034  0.78565  0.78112  1.0000
  C   C15       1.0  0.66998  0.50440  0.21910  1.0000
  C   C16       1.0  0.33051  0.28537  0.78105  1.0000
  C   C17       1.0  0.90572  0.94557  0.19052  1.0000
  C   C18       1.0  0.09390  0.75557  0.80964  1.0000
  C   C19       1.0  0.78514  0.44577  0.19054  1.0000
  C   C20       1.0  0.21548  0.25541  0.80959  1.0000
  C   C21       1.0  0.51473  0.71063  0.12544  1.0000
  C   C22       1.0  0.48453  0.58576  0.87417  1.0000
  C   C23       1.0  0.11088  0.21062  0.12536  1.0000
  C   C24       1.0  0.88943  0.08595  0.87429  1.0000
  C   C25       1.0  0.65631  0.77141  0.14607  1.0000
  C   C26       1.0  0.34309  0.62595  0.85361  1.0000
  C   C27       1.0  0.98995  0.27138  0.14604  1.0000
  C   C28       1.0  0.01027  0.12611  0.85374  1.0000
  C   C29       1.0  0.68866  0.86861  0.21885  1.0000
  C   C30       1.0  0.31115  0.65028  0.78109  1.0000
  C   C31       1.0  0.03041  0.36857  0.21885  1.0000
  C   C32       1.0  0.96963  0.15020  0.78109  1.0000
  C   C33       1.0  0.57924  0.90299  0.26636  1.0000
  C   C34       1.0  0.42085  0.63702  0.73378  1.0000
  C   C35       1.0  0.18743  0.40289  0.26637  1.0000
  C   C36       1.0  0.81258  0.13671  0.73366  1.0000
  C   C37       1.0  0.44120  0.83639  0.24044  1.0000
  C   C38       1.0  0.55870  0.59627  0.75960  1.0000
  C   C39       1.0  0.29953  0.33627  0.24042  1.0000
  C   C40       1.0  0.70061  0.09599  0.75949  1.0000
  S   S1        1.0  0.31145  0.12437  0.34108  1.0000
  S   S2        1.0  0.68911  0.78403  0.65925  1.0000
  S   S3        1.0  0.52977  0.62438  0.34095  1.0000
  S   S4        1.0  0.46995  0.28371  0.65933  1.0000
  I   I1        1.0  0.26065  0.43278  0.05221  1.0000
  I   I2        1.0  0.73790  0.38232  0.94828  1.0000
  I   I3        1.0  0.29194  0.93285  0.05202  1.0000
  I   I4        1.0  0.70990  0.88275  0.94864  1.0000
  I   I5        1.0  0.05032  0.71100  0.27480  1.0000
  I   I6        1.0  0.94966  0.43610  0.72528  1.0000
  I   I7        1.0  0.72486  0.21107  0.27488  1.0000
  I   I8        1.0  0.27562  0.93619  0.72514  1.0000
  I   I9        1.0  0.00011  0.69826  0.00007  1.0000
  I   I10       1.0  0.50037  0.19867  0.00026  1.0000
  I   I11       1.0  0.74281  0.14520  0.50008  1.0000
  I   I12       1.0  0.25731  0.64531  0.50031  1.0000
  I   I13       1.0  0.12220  0.36492  0.49979  1.0000
  I   I14       1.0  0.87763  0.86497  0.49978  1.0000
  I   I15       1.0  0.56157  0.45192  0.50048  1.0000
  I   I16       1.0  0.43902  0.95152  0.50008  1.0000
  N   N1        1.0  0.83682  0.93211  0.24788  1.0000
  N   N2        1.0  0.16309  0.68469  0.75216  1.0000
  N   N3        1.0  0.91135  0.43213  0.24790  1.0000
  N   N4        1.0  0.08870  0.18455  0.75213  1.0000
  N   N5        1.0  0.41040  0.74170  0.17201  1.0000
  N   N6        1.0  0.58907  0.57011  0.82776  1.0000
  N   N7        1.0  0.26187  0.24163  0.17195  1.0000
  N   N8        1.0  0.73844  0.07007  0.82779  1.0000
