data_image0
_chemical_formula_structural       Cu4H56C28N8O20
_chemical_formula_sum              "Cu4 H56 C28 N8 O20"
_cell_length_a       7.94097
_cell_length_b       9.08505
_cell_length_c       14.9008
_cell_angle_alpha    90
_cell_angle_beta     89.9999
_cell_angle_gamma    90.0116

_space_group_name_H-M_alt    "P 1"
_space_group_IT_number       1

loop_
  _space_group_symop_operation_xyz
  'x, y, z'

loop_
  _atom_site_type_symbol
  _atom_site_label
  _atom_site_symmetry_multiplicity
  _atom_site_fract_x
  _atom_site_fract_y
  _atom_site_fract_z
  _atom_site_occupancy
  Cu  Cu1       1.0  0.53990  0.73662  0.50000  1.0000
  Cu  Cu2       1.0  0.46006  0.23658  0.50000  1.0000
  Cu  Cu3       1.0  0.98217  0.46355  0.00000  1.0000
  Cu  Cu4       1.0  0.01787  0.96359  0.00000  1.0000
  H   H1        1.0  0.68721  0.46613  0.55444  1.0000
  H   H2        1.0  0.31278  0.96612  0.44557  1.0000
  H   H3        1.0  0.68721  0.46613  0.44556  1.0000
  H   H4        1.0  0.31278  0.96612  0.55443  1.0000
  H   H5        1.0  0.81000  0.73703  0.94559  1.0000
  H   H6        1.0  0.18997  0.23705  0.05441  1.0000
  H   H7        1.0  0.80999  0.73703  0.05441  1.0000
  H   H8        1.0  0.18997  0.23705  0.94559  1.0000
  H   H9        1.0  0.63815  0.94269  0.39866  1.0000
  H   H10       1.0  0.36190  0.44265  0.60134  1.0000
  H   H11       1.0  0.63815  0.94269  0.60134  1.0000
  H   H12       1.0  0.36190  0.44265  0.39866  1.0000
  H   H13       1.0  0.64601  0.78380  0.34374  1.0000
  H   H14       1.0  0.35401  0.28373  0.65624  1.0000
  H   H15       1.0  0.64601  0.78380  0.65626  1.0000
  H   H16       1.0  0.35402  0.28373  0.34376  1.0000
  H   H17       1.0  0.87564  0.41558  0.15594  1.0000
  H   H18       1.0  0.12441  0.91562  0.84405  1.0000
  H   H19       1.0  0.87564  0.41558  0.84406  1.0000
  H   H20       1.0  0.12441  0.91562  0.15595  1.0000
  H   H21       1.0  0.86487  0.25994  0.09775  1.0000
  H   H22       1.0  0.13510  0.76000  0.90225  1.0000
  H   H23       1.0  0.86487  0.25994  0.90225  1.0000
  H   H24       1.0  0.13510  0.76000  0.09775  1.0000
  H   H25       1.0  0.92361  0.88444  0.35637  1.0000
  H   H26       1.0  0.07646  0.38436  0.64363  1.0000
  H   H27       1.0  0.92361  0.88445  0.64363  1.0000
  H   H28       1.0  0.07646  0.38436  0.35637  1.0000
  H   H29       1.0  0.90264  0.71584  0.41640  1.0000
  H   H30       1.0  0.09736  0.21578  0.58361  1.0000
  H   H31       1.0  0.90264  0.71584  0.58360  1.0000
  H   H32       1.0  0.09736  0.21578  0.41638  1.0000
  H   H33       1.0  0.62757  0.50972  0.08591  1.0000
  H   H34       1.0  0.37252  0.00976  0.91408  1.0000
  H   H35       1.0  0.62756  0.50972  0.91409  1.0000
  H   H36       1.0  0.37252  0.00976  0.08591  1.0000
  H   H37       1.0  0.58825  0.34146  0.14370  1.0000
  H   H38       1.0  0.41174  0.84148  0.85630  1.0000
  H   H39       1.0  0.58825  0.34146  0.85630  1.0000
  H   H40       1.0  0.41174  0.84149  0.14369  1.0000
  H   H41       1.0  0.86209  0.02269  0.50000  1.0000
  H   H42       1.0  0.13799  0.52259  0.50000  1.0000
  H   H43       1.0  0.05211  0.92353  0.50000  1.0000
  H   H44       1.0  0.94796  0.42344  0.50000  1.0000
  H   H45       1.0  0.45147  0.32654  0.00000  1.0000
  H   H46       1.0  0.54850  0.82659  1.00000  1.0000
  H   H47       1.0  0.62150  0.20213  1.00000  1.0000
  H   H48       1.0  0.37843  0.70218  1.00000  1.0000
  H   H49       1.0  0.10236  0.69384  0.24848  1.0000
  H   H50       1.0  0.89763  0.19390  0.75147  1.0000
  H   H51       1.0  0.10236  0.69384  0.75152  1.0000
  H   H52       1.0  0.89762  0.19390  0.24854  1.0000
  H   H53       1.0  0.42732  0.50631  0.24932  1.0000
  H   H54       1.0  0.57266  0.00624  0.75070  1.0000
  H   H55       1.0  0.42732  0.50631  0.75068  1.0000
  H   H56       1.0  0.57265  0.00624  0.24931  1.0000
  C   C1        1.0  0.86245  0.83158  0.41445  1.0000
  C   C2        1.0  0.13756  0.33152  0.58554  1.0000
  C   C3        1.0  0.86245  0.83158  0.58555  1.0000
  C   C4        1.0  0.13757  0.33152  0.41446  1.0000
  C   C5        1.0  0.65373  0.39095  0.08595  1.0000
  C   C6        1.0  0.34629  0.89099  0.91404  1.0000
  C   C7        1.0  0.65373  0.39095  0.91405  1.0000
  C   C8        1.0  0.34629  0.89100  0.08595  1.0000
  C   C9        1.0  0.91483  0.91048  0.50000  1.0000
  C   C10       1.0  0.08521  0.41041  0.50000  1.0000
  C   C11       1.0  0.58939  0.32011  0.00000  1.0000
  C   C12       1.0  0.41058  0.82017  1.00000  1.0000
  C   C13       1.0  0.30356  0.73548  0.34717  1.0000
  C   C14       1.0  0.69641  0.23548  0.65283  1.0000
  C   C15       1.0  0.30356  0.73547  0.65283  1.0000
  C   C16       1.0  0.69641  0.23548  0.34717  1.0000
  C   C17       1.0  0.22443  0.46474  0.15123  1.0000
  C   C18       1.0  0.77559  0.96474  0.84879  1.0000
  C   C19       1.0  0.22443  0.46474  0.84878  1.0000
  C   C20       1.0  0.77559  0.96474  0.15122  1.0000
  C   C21       1.0  0.22541  0.65464  0.27092  1.0000
  C   C22       1.0  0.77458  0.15464  0.72907  1.0000
  C   C23       1.0  0.22540  0.65464  0.72908  1.0000
  C   C24       1.0  0.77458  0.15465  0.27093  1.0000
  C   C25       1.0  0.30427  0.54578  0.22697  1.0000
  C   C26       1.0  0.69573  0.04577  0.77303  1.0000
  C   C27       1.0  0.30427  0.54577  0.77302  1.0000
  C   C28       1.0  0.69573  0.04578  0.22697  1.0000
  N   N1        1.0  0.67766  0.83437  0.40271  1.0000
  N   N2        1.0  0.32231  0.33433  0.59731  1.0000
  N   N3        1.0  0.67766  0.83437  0.59729  1.0000
  N   N4        1.0  0.32231  0.33433  0.40269  1.0000
  N   N5        1.0  0.83752  0.37123  0.09624  1.0000
  N   N6        1.0  0.16249  0.87129  0.90375  1.0000
  N   N7        1.0  0.83752  0.37123  0.90376  1.0000
  N   N8        1.0  0.16249  0.87129  0.09625  1.0000
  O   O1        1.0  0.38573  0.65675  0.40446  1.0000
  O   O2        1.0  0.61411  0.15680  0.59555  1.0000
  O   O3        1.0  0.38574  0.65675  0.59554  1.0000
  O   O4        1.0  0.61412  0.15680  0.40445  1.0000
  O   O5        1.0  0.13686  0.54240  0.09568  1.0000
  O   O6        1.0  0.86317  0.04240  0.90432  1.0000
  O   O7        1.0  0.13686  0.54240  0.90432  1.0000
  O   O8        1.0  0.86317  0.04240  0.09568  1.0000
  O   O9        1.0  0.28622  0.87332  0.34855  1.0000
  O   O10       1.0  0.71382  0.37331  0.65146  1.0000
  O   O11       1.0  0.28621  0.87332  0.65145  1.0000
  O   O12       1.0  0.71382  0.37331  0.34854  1.0000
  O   O13       1.0  0.24553  0.32720  0.14890  1.0000
  O   O14       1.0  0.75444  0.82719  0.85106  1.0000
  O   O15       1.0  0.24553  0.32719  0.85110  1.0000
  O   O16       1.0  0.75444  0.82719  0.14894  1.0000
  O   O17       1.0  0.68659  0.52999  0.50000  1.0000
  O   O18       1.0  0.31328  0.02998  0.50000  1.0000
  O   O19       1.0  0.84579  0.68125  0.00000  1.0000
  O   O20       1.0  0.15420  0.18125  0.00000  1.0000
