data_image0
_chemical_formula_structural       Cu2H40C34N4O10
_chemical_formula_sum              "Cu2 H40 C34 N4 O10"
_cell_length_a       6.75322
_cell_length_b       7.35088
_cell_length_c       17.5447
_cell_angle_alpha    89.9987
_cell_angle_beta     90.0006
_cell_angle_gamma    86.6885

_space_group_name_H-M_alt    "P 1"
_space_group_IT_number       1

loop_
  _space_group_symop_operation_xyz
  'x, y, z'

loop_
  _atom_site_type_symbol
  _atom_site_label
  _atom_site_symmetry_multiplicity
  _atom_site_fract_x
  _atom_site_fract_y
  _atom_site_fract_z
  _atom_site_occupancy
  Cu  Cu1       1.0  0.93841  0.14145  0.64352  1.0000
  Cu  Cu2       1.0  0.06157  0.85854  0.14353  1.0000
  H   H1        1.0  0.83904  0.20764  0.50592  1.0000
  H   H2        1.0  0.16096  0.79237  0.00592  1.0000
  H   H3        1.0  0.61779  0.37798  0.63576  1.0000
  H   H4        1.0  0.38220  0.62201  0.13576  1.0000
  H   H5        1.0  0.77106  0.52454  0.65956  1.0000
  H   H6        1.0  0.22894  0.47545  0.15956  1.0000
  H   H7        1.0  0.35336  0.90391  0.62991  1.0000
  H   H8        1.0  0.64664  0.09610  0.12992  1.0000
  H   H9        1.0  0.43423  0.74030  0.69985  1.0000
  H   H10       1.0  0.56573  0.25969  0.19985  1.0000
  H   H11       1.0  0.44364  0.67665  0.60331  1.0000
  H   H12       1.0  0.55634  0.32334  0.10331  1.0000
  H   H13       1.0  0.21485  0.24563  0.46154  1.0000
  H   H14       1.0  0.78516  0.75436  0.96154  1.0000
  H   H15       1.0  0.91577  0.88369  0.52089  1.0000
  H   H16       1.0  0.08421  0.11632  0.02089  1.0000
  H   H17       1.0  0.16920  0.92910  0.52336  1.0000
  H   H18       1.0  0.83078  0.07088  0.02336  1.0000
  H   H19       1.0  0.95482  0.53367  0.54736  1.0000
  H   H20       1.0  0.04521  0.46633  0.04737  1.0000
  H   H21       1.0  0.16248  0.57045  0.48907  1.0000
  H   H22       1.0  0.83755  0.42953  0.98908  1.0000
  H   H23       1.0  0.74902  0.98616  0.25283  1.0000
  H   H24       1.0  0.25097  0.01383  0.75284  1.0000
  H   H25       1.0  0.72339  0.03469  0.39333  1.0000
  H   H26       1.0  0.27659  0.96529  0.89334  1.0000
  H   H27       1.0  0.34989  0.88220  0.40782  1.0000
  H   H28       1.0  0.65011  0.11782  0.90781  1.0000
  H   H29       1.0  0.63306  0.52842  0.49428  1.0000
  H   H30       1.0  0.36697  0.47163  0.99428  1.0000
  H   H31       1.0  0.34955  0.84499  0.26579  1.0000
  H   H32       1.0  0.65044  0.15501  0.76579  1.0000
  H   H33       1.0  0.41196  0.55117  0.38187  1.0000
  H   H34       1.0  0.58807  0.44889  0.88187  1.0000
  H   H35       1.0  0.55197  0.53669  0.25087  1.0000
  H   H36       1.0  0.44803  0.46331  0.75086  1.0000
  H   H37       1.0  0.13861  0.45320  0.34497  1.0000
  H   H38       1.0  0.86141  0.54678  0.84498  1.0000
  H   H39       1.0  0.91848  0.47951  0.23331  1.0000
  H   H40       1.0  0.08150  0.52045  0.73331  1.0000
  C   C1        1.0  0.67132  0.85474  0.63872  1.0000
  C   C2        1.0  0.32866  0.14526  0.13873  1.0000
  C   C3        1.0  0.46199  0.79146  0.64218  1.0000
  C   C4        1.0  0.53799  0.20853  0.14218  1.0000
  C   C5        1.0  0.12740  0.29040  0.51189  1.0000
  C   C6        1.0  0.87262  0.70959  0.01189  1.0000
  C   C7        1.0  0.02553  0.97434  0.49847  1.0000
  C   C8        1.0  0.97446  0.02565  0.99847  1.0000
  C   C9        1.0  0.26850  0.29659  0.58040  1.0000
  C   C10       1.0  0.73149  0.70340  0.08041  1.0000
  C   C11       1.0  0.03651  0.48366  0.49660  1.0000
  C   C12       1.0  0.96351  0.51633  0.99661  1.0000
  C   C13       1.0  0.87861  0.96820  0.28951  1.0000
  C   C14       1.0  0.12138  0.03179  0.78951  1.0000
  C   C15       1.0  0.90245  0.49427  0.42787  1.0000
  C   C16       1.0  0.09757  0.50574  0.92788  1.0000
  C   C17       1.0  0.03562  0.96071  0.41282  1.0000
  C   C18       1.0  0.96437  0.03929  0.91283  1.0000
  C   C19       1.0  0.86617  0.99284  0.36785  1.0000
  C   C20       1.0  0.13381  0.00716  0.86786  1.0000
  C   C21       1.0  0.21333  0.91005  0.37559  1.0000
  C   C22       1.0  0.78667  0.08996  0.87559  1.0000
  C   C23       1.0  0.69670  0.51982  0.43720  1.0000
  C   C24       1.0  0.30334  0.48021  0.93720  1.0000
  C   C25       1.0  0.21540  0.88882  0.29679  1.0000
  C   C26       1.0  0.78459  0.11118  0.79678  1.0000
  C   C27       1.0  0.57174  0.53139  0.37365  1.0000
  C   C28       1.0  0.42829  0.46864  0.87365  1.0000
  C   C29       1.0  0.65004  0.52014  0.30009  1.0000
  C   C30       1.0  0.34997  0.47988  0.80009  1.0000
  C   C31       1.0  0.97916  0.47632  0.35369  1.0000
  C   C32       1.0  0.02086  0.52366  0.85370  1.0000
  C   C33       1.0  0.85496  0.49025  0.29029  1.0000
  C   C34       1.0  0.14505  0.50974  0.79029  1.0000
  N   N1        1.0  0.97325  0.16021  0.52770  1.0000
  N   N2        1.0  0.02674  0.83979  0.02770  1.0000
  N   N3        1.0  0.05016  0.91620  0.25464  1.0000
  N   N4        1.0  0.94984  0.08379  0.75463  1.0000
  O   O1        1.0  0.21050  0.22867  0.64371  1.0000
  O   O2        1.0  0.78950  0.77134  0.14372  1.0000
  O   O3        1.0  0.68293  0.02814  0.62986  1.0000
  O   O4        1.0  0.31708  0.97186  0.12988  1.0000
  O   O5        1.0  0.73898  0.39434  0.66681  1.0000
  O   O6        1.0  0.26102  0.60564  0.16682  1.0000
  O   O7        1.0  0.81953  0.74329  0.64498  1.0000
  O   O8        1.0  0.18045  0.25669  0.14499  1.0000
  O   O9        1.0  0.42777  0.37222  0.57105  1.0000
  O   O10       1.0  0.57224  0.62779  0.07105  1.0000
