data_image0
_chemical_formula_structural       Cd4H36C28N4O28
_chemical_formula_sum              "Cd4 H36 C28 N4 O28"
_cell_length_a       6.80263
_cell_length_b       8.65312
_cell_length_c       16.8583
_cell_angle_alpha    89.9999
_cell_angle_beta     90
_cell_angle_gamma    90

_space_group_name_H-M_alt    "P 1"
_space_group_IT_number       1

loop_
  _space_group_symop_operation_xyz
  'x, y, z'

loop_
  _atom_site_type_symbol
  _atom_site_label
  _atom_site_symmetry_multiplicity
  _atom_site_fract_x
  _atom_site_fract_y
  _atom_site_fract_z
  _atom_site_occupancy
  Cd  Cd1       1.0  0.06710  0.38764  0.10190  1.0000
  Cd  Cd2       1.0  0.93290  0.88764  0.89810  1.0000
  Cd  Cd3       1.0  0.06710  0.88764  0.39810  1.0000
  Cd  Cd4       1.0  0.93290  0.38764  0.60190  1.0000
  H   H1        1.0  0.61186  0.72413  0.33899  1.0000
  H   H2        1.0  0.38814  0.22413  0.66101  1.0000
  H   H3        1.0  0.61187  0.22413  0.16101  1.0000
  H   H4        1.0  0.38813  0.72413  0.83899  1.0000
  H   H5        1.0  0.68347  0.74617  0.19463  1.0000
  H   H6        1.0  0.31652  0.24617  0.80537  1.0000
  H   H7        1.0  0.68348  0.24617  0.30537  1.0000
  H   H8        1.0  0.31652  0.74617  0.69463  1.0000
  H   H9        1.0  0.47048  0.60227  0.09779  1.0000
  H   H10       1.0  0.52952  0.10227  0.90221  1.0000
  H   H11       1.0  0.47049  0.10227  0.40221  1.0000
  H   H12       1.0  0.52951  0.60227  0.59779  1.0000
  H   H13       1.0  0.79403  0.17578  0.03226  1.0000
  H   H14       1.0  0.20597  0.67578  0.96774  1.0000
  H   H15       1.0  0.79403  0.67578  0.46774  1.0000
  H   H16       1.0  0.20597  0.17578  0.53226  1.0000
  H   H17       1.0  0.71154  0.34770  0.01101  1.0000
  H   H18       1.0  0.28846  0.84770  0.98899  1.0000
  H   H19       1.0  0.71154  0.84770  0.48899  1.0000
  H   H20       1.0  0.28846  0.34770  0.51101  1.0000
  H   H21       1.0  0.84447  0.63209  0.03614  1.0000
  H   H22       1.0  0.15553  0.13209  0.96386  1.0000
  H   H23       1.0  0.84447  0.13209  0.46386  1.0000
  H   H24       1.0  0.15553  0.63209  0.53614  1.0000
  H   H25       1.0  0.95033  0.70822  0.11203  1.0000
  H   H26       1.0  0.04967  0.20822  0.88797  1.0000
  H   H27       1.0  0.95033  0.20822  0.38797  1.0000
  H   H28       1.0  0.04967  0.70822  0.61203  1.0000
  H   H29       1.0  0.11657  0.44660  0.93017  1.0000
  H   H30       1.0  0.88342  0.94660  0.06983  1.0000
  H   H31       1.0  0.11658  0.94660  0.56983  1.0000
  H   H32       1.0  0.88343  0.44660  0.43017  1.0000
  H   H33       1.0  0.33993  0.45175  0.96105  1.0000
  H   H34       1.0  0.66007  0.95175  0.03895  1.0000
  H   H35       1.0  0.33993  0.95175  0.53895  1.0000
  H   H36       1.0  0.66007  0.45175  0.46105  1.0000
  C   C1        1.0  0.24970  0.49594  0.26321  1.0000
  C   C2        1.0  0.75030  0.99593  0.73679  1.0000
  C   C3        1.0  0.24970  0.99594  0.23679  1.0000
  C   C4        1.0  0.75030  0.49594  0.76321  1.0000
  C   C5        1.0  0.07774  0.39339  0.28554  1.0000
  C   C6        1.0  0.92226  0.89340  0.71446  1.0000
  C   C7        1.0  0.07774  0.89340  0.21446  1.0000
  C   C8        1.0  0.92226  0.39340  0.78554  1.0000
  C   C9        1.0  0.36334  0.57149  0.32065  1.0000
  C   C10       1.0  0.63666  0.07149  0.67935  1.0000
  C   C11       1.0  0.36335  0.07149  0.17935  1.0000
  C   C12       1.0  0.63665  0.57149  0.82065  1.0000
  C   C13       1.0  0.32576  0.55708  0.40821  1.0000
  C   C14       1.0  0.67424  0.05708  0.59179  1.0000
  C   C15       1.0  0.32577  0.05707  0.09179  1.0000
  C   C16       1.0  0.67423  0.55707  0.90821  1.0000
  C   C17       1.0  0.52074  0.66383  0.29554  1.0000
  C   C18       1.0  0.47926  0.16383  0.70446  1.0000
  C   C19       1.0  0.52074  0.16383  0.20446  1.0000
  C   C20       1.0  0.47926  0.66383  0.79554  1.0000
  C   C21       1.0  0.56020  0.67710  0.21502  1.0000
  C   C22       1.0  0.43979  0.17710  0.78498  1.0000
  C   C23       1.0  0.56021  0.17711  0.28498  1.0000
  C   C24       1.0  0.43980  0.67710  0.71502  1.0000
  C   C25       1.0  0.44225  0.59704  0.16136  1.0000
  C   C26       1.0  0.55775  0.09704  0.83864  1.0000
  C   C27       1.0  0.44225  0.09704  0.33864  1.0000
  C   C28       1.0  0.55775  0.59704  0.66136  1.0000
  N   N1        1.0  0.29097  0.50958  0.18525  1.0000
  N   N2        1.0  0.70903  0.00958  0.81475  1.0000
  N   N3        1.0  0.29097  0.00959  0.31475  1.0000
  N   N4        1.0  0.70903  0.50959  0.68525  1.0000
  O   O1        1.0  0.04187  0.38109  0.35954  1.0000
  O   O2        1.0  0.95812  0.88108  0.64046  1.0000
  O   O3        1.0  0.04188  0.88109  0.14046  1.0000
  O   O4        1.0  0.95812  0.38109  0.85954  1.0000
  O   O5        1.0  0.98423  0.32387  0.23140  1.0000
  O   O6        1.0  0.01577  0.82387  0.76861  1.0000
  O   O7        1.0  0.98424  0.82387  0.26861  1.0000
  O   O8        1.0  0.01577  0.32387  0.73139  1.0000
  O   O9        1.0  0.21718  0.65885  0.44113  1.0000
  O   O10       1.0  0.78282  0.15885  0.55887  1.0000
  O   O11       1.0  0.21718  0.15885  0.05887  1.0000
  O   O12       1.0  0.78282  0.65885  0.94113  1.0000
  O   O13       1.0  0.41576  0.45138  0.44577  1.0000
  O   O14       1.0  0.58424  0.95138  0.55423  1.0000
  O   O15       1.0  0.41576  0.95138  0.05423  1.0000
  O   O16       1.0  0.58424  0.45138  0.94577  1.0000
  O   O17       1.0  0.78498  0.28471  0.05096  1.0000
  O   O18       1.0  0.21502  0.78471  0.94904  1.0000
  O   O19       1.0  0.78498  0.78472  0.44904  1.0000
  O   O20       1.0  0.21502  0.28472  0.55096  1.0000
  O   O21       1.0  0.88775  0.61155  0.09181  1.0000
  O   O22       1.0  0.11225  0.11155  0.90819  1.0000
  O   O23       1.0  0.88775  0.11155  0.40819  1.0000
  O   O24       1.0  0.11225  0.61155  0.59181  1.0000
  O   O25       1.0  0.20141  0.47774  0.97565  1.0000
  O   O26       1.0  0.79859  0.97774  0.02435  1.0000
  O   O27       1.0  0.20141  0.97774  0.52435  1.0000
  O   O28       1.0  0.79859  0.47775  0.47565  1.0000
