data_image0
_chemical_formula_structural       Cd4H36C28N4O28
_chemical_formula_sum              "Cd4 H36 C28 N4 O28"
_cell_length_a       6.79302
_cell_length_b       8.66222
_cell_length_c       16.8472
_cell_angle_alpha    90
_cell_angle_beta     90
_cell_angle_gamma    89.9999

_space_group_name_H-M_alt    "P 1"
_space_group_IT_number       1

loop_
  _space_group_symop_operation_xyz
  'x, y, z'

loop_
  _atom_site_type_symbol
  _atom_site_label
  _atom_site_symmetry_multiplicity
  _atom_site_fract_x
  _atom_site_fract_y
  _atom_site_fract_z
  _atom_site_occupancy
  Cd  Cd1       1.0  0.43005  0.29991  0.60169  1.0000
  Cd  Cd2       1.0  0.56995  0.79991  0.39831  1.0000
  Cd  Cd3       1.0  0.43005  0.79991  0.89831  1.0000
  Cd  Cd4       1.0  0.56995  0.29991  0.10169  1.0000
  H   H1        1.0  0.70416  0.08849  0.53200  1.0000
  H   H2        1.0  0.29584  0.58849  0.46800  1.0000
  H   H3        1.0  0.70416  0.58849  0.96800  1.0000
  H   H4        1.0  0.29584  0.08849  0.03200  1.0000
  H   H5        1.0  0.78787  0.25981  0.51056  1.0000
  H   H6        1.0  0.21213  0.75981  0.48944  1.0000
  H   H7        1.0  0.78787  0.75981  0.98944  1.0000
  H   H8        1.0  0.21213  0.25981  0.01056  1.0000
  H   H9        1.0  0.16172  0.36439  0.46032  1.0000
  H   H10       1.0  0.83828  0.86439  0.53968  1.0000
  H   H11       1.0  0.16172  0.86439  0.03968  1.0000
  H   H12       1.0  0.83828  0.36439  0.96032  1.0000
  H   H13       1.0  0.38582  0.35921  0.42990  1.0000
  H   H14       1.0  0.61418  0.85921  0.57010  1.0000
  H   H15       1.0  0.38582  0.85921  0.07010  1.0000
  H   H16       1.0  0.61418  0.35921  0.92990  1.0000
  H   H17       1.0  0.65515  0.54380  0.53677  1.0000
  H   H18       1.0  0.34485  0.04380  0.46323  1.0000
  H   H19       1.0  0.65515  0.04380  0.96323  1.0000
  H   H20       1.0  0.34485  0.54380  0.03677  1.0000
  H   H21       1.0  0.54810  0.62012  0.61235  1.0000
  H   H22       1.0  0.45190  0.12012  0.38765  1.0000
  H   H23       1.0  0.54810  0.12012  0.88765  1.0000
  H   H24       1.0  0.45190  0.62012  0.11235  1.0000
  H   H25       1.0  0.88749  0.63861  0.83944  1.0000
  H   H26       1.0  0.11251  0.13862  0.16056  1.0000
  H   H27       1.0  0.88749  0.13861  0.66056  1.0000
  H   H28       1.0  0.11251  0.63862  0.33944  1.0000
  H   H29       1.0  0.81609  0.66184  0.69481  1.0000
  H   H30       1.0  0.18390  0.16183  0.30519  1.0000
  H   H31       1.0  0.81609  0.16184  0.80519  1.0000
  H   H32       1.0  0.18390  0.66183  0.19481  1.0000
  H   H33       1.0  0.02704  0.51738  0.59782  1.0000
  H   H34       1.0  0.97296  0.01738  0.40218  1.0000
  H   H35       1.0  0.02704  0.01738  0.90218  1.0000
  H   H36       1.0  0.97296  0.51738  0.09782  1.0000
  C   C1        1.0  0.24737  0.40887  0.76306  1.0000
  C   C2        1.0  0.75263  0.90887  0.23694  1.0000
  C   C3        1.0  0.24737  0.90887  0.73694  1.0000
  C   C4        1.0  0.75263  0.40887  0.26306  1.0000
  C   C5        1.0  0.13431  0.48452  0.82076  1.0000
  C   C6        1.0  0.86569  0.98452  0.17924  1.0000
  C   C7        1.0  0.13431  0.98452  0.67924  1.0000
  C   C8        1.0  0.86569  0.48452  0.32076  1.0000
  C   C9        1.0  0.97782  0.57805  0.79581  1.0000
  C   C10       1.0  0.02218  0.07805  0.20419  1.0000
  C   C11       1.0  0.97782  0.07805  0.70419  1.0000
  C   C12       1.0  0.02218  0.57805  0.29581  1.0000
  C   C13       1.0  0.93858  0.59195  0.71525  1.0000
  C   C14       1.0  0.06141  0.09196  0.28475  1.0000
  C   C15       1.0  0.93858  0.09196  0.78475  1.0000
  C   C16       1.0  0.06141  0.59196  0.21525  1.0000
  C   C17       1.0  0.05556  0.51156  0.66136  1.0000
  C   C18       1.0  0.94443  0.01156  0.33864  1.0000
  C   C19       1.0  0.05556  0.01156  0.83864  1.0000
  C   C20       1.0  0.94443  0.51156  0.16136  1.0000
  C   C21       1.0  0.41886  0.30540  0.78517  1.0000
  C   C22       1.0  0.58113  0.80540  0.21483  1.0000
  C   C23       1.0  0.41886  0.80540  0.71483  1.0000
  C   C24       1.0  0.58113  0.30540  0.28517  1.0000
  C   C25       1.0  0.17234  0.46918  0.90837  1.0000
  C   C26       1.0  0.82766  0.96918  0.09163  1.0000
  C   C27       1.0  0.17234  0.96918  0.59163  1.0000
  C   C28       1.0  0.82766  0.46918  0.40837  1.0000
  N   N1        1.0  0.20605  0.42302  0.68507  1.0000
  N   N2        1.0  0.79395  0.92302  0.31493  1.0000
  N   N3        1.0  0.20605  0.92302  0.81493  1.0000
  N   N4        1.0  0.79395  0.42302  0.18507  1.0000
  O   O1        1.0  0.71291  0.19747  0.55038  1.0000
  O   O2        1.0  0.28710  0.69747  0.44961  1.0000
  O   O3        1.0  0.71291  0.69747  0.94961  1.0000
  O   O4        1.0  0.28710  0.19747  0.05039  1.0000
  O   O5        1.0  0.30036  0.38983  0.47532  1.0000
  O   O6        1.0  0.69964  0.88983  0.52468  1.0000
  O   O7        1.0  0.30036  0.88983  0.02468  1.0000
  O   O8        1.0  0.69964  0.38983  0.97532  1.0000
  O   O9        1.0  0.61121  0.52352  0.59237  1.0000
  O   O10       1.0  0.38879  0.02352  0.40763  1.0000
  O   O11       1.0  0.61121  0.02352  0.90763  1.0000
  O   O12       1.0  0.38879  0.52352  0.09237  1.0000
  O   O13       1.0  0.51159  0.23535  0.73092  1.0000
  O   O14       1.0  0.48841  0.73535  0.26908  1.0000
  O   O15       1.0  0.51159  0.73535  0.76908  1.0000
  O   O16       1.0  0.48841  0.23535  0.23092  1.0000
  O   O17       1.0  0.45522  0.29287  0.85916  1.0000
  O   O18       1.0  0.54478  0.79286  0.14084  1.0000
  O   O19       1.0  0.45522  0.79287  0.64084  1.0000
  O   O20       1.0  0.54478  0.29286  0.35916  1.0000
  O   O21       1.0  0.28076  0.57087  0.94145  1.0000
  O   O22       1.0  0.71924  0.07087  0.05855  1.0000
  O   O23       1.0  0.28076  0.07087  0.55855  1.0000
  O   O24       1.0  0.71924  0.57087  0.44145  1.0000
  O   O25       1.0  0.08287  0.36304  0.94583  1.0000
  O   O26       1.0  0.91714  0.86303  0.05417  1.0000
  O   O27       1.0  0.08287  0.86304  0.55417  1.0000
  O   O28       1.0  0.91714  0.36303  0.44583  1.0000
