data_image0
_chemical_formula_structural       Li4H24C12Br4N8
_chemical_formula_sum              "Li4 H24 C12 Br4 N8"
_cell_length_a       4.23087
_cell_length_b       8.55554
_cell_length_c       17.2373
_cell_angle_alpha    89.9999
_cell_angle_beta     90.0004
_cell_angle_gamma    99.5039

_space_group_name_H-M_alt    "P 1"
_space_group_IT_number       1

loop_
  _space_group_symop_operation_xyz
  'x, y, z'

loop_
  _atom_site_type_symbol
  _atom_site_label
  _atom_site_symmetry_multiplicity
  _atom_site_fract_x
  _atom_site_fract_y
  _atom_site_fract_z
  _atom_site_occupancy
  Li  Li1       1.0  0.73716  0.93579  0.56246  1.0000
  Li  Li2       1.0  0.26284  0.56421  0.06245  1.0000
  Li  Li3       1.0  0.26284  0.06420  0.43755  1.0000
  Li  Li4       1.0  0.73716  0.43579  0.93754  1.0000
  H   H1        1.0  0.78561  0.11943  0.84994  1.0000
  H   H2        1.0  0.21438  0.38057  0.34994  1.0000
  H   H3        1.0  0.21437  0.88057  0.15006  1.0000
  H   H4        1.0  0.78562  0.61943  0.65005  1.0000
  H   H5        1.0  0.72361  0.95677  0.91696  1.0000
  H   H6        1.0  0.27640  0.54323  0.41696  1.0000
  H   H7        1.0  0.27640  0.04324  0.08304  1.0000
  H   H8        1.0  0.72361  0.45677  0.58304  1.0000
  H   H9        1.0  0.41294  0.07084  0.89931  1.0000
  H   H10       1.0  0.58708  0.42916  0.39931  1.0000
  H   H11       1.0  0.58708  0.92917  0.10069  1.0000
  H   H12       1.0  0.41293  0.57084  0.60069  1.0000
  H   H13       1.0  0.17094  0.70985  0.77457  1.0000
  H   H14       1.0  0.82906  0.79015  0.27456  1.0000
  H   H15       1.0  0.82907  0.29015  0.22544  1.0000
  H   H16       1.0  0.17094  0.20986  0.72543  1.0000
  H   H17       1.0  0.06593  0.79917  0.86275  1.0000
  H   H18       1.0  0.93407  0.70083  0.36275  1.0000
  H   H19       1.0  0.93407  0.20083  0.13725  1.0000
  H   H20       1.0  0.06593  0.29917  0.63725  1.0000
  H   H21       1.0  0.38536  0.68732  0.86242  1.0000
  H   H22       1.0  0.61464  0.81268  0.36242  1.0000
  H   H23       1.0  0.61464  0.31268  0.13758  1.0000
  H   H24       1.0  0.38536  0.18732  0.63758  1.0000
  C   C1        1.0  0.61190  0.92929  0.73975  1.0000
  C   C2        1.0  0.38808  0.57071  0.23974  1.0000
  C   C3        1.0  0.38808  0.07071  0.26025  1.0000
  C   C4        1.0  0.61193  0.42930  0.76025  1.0000
  C   C5        1.0  0.61046  0.02140  0.87250  1.0000
  C   C6        1.0  0.38954  0.47860  0.37250  1.0000
  C   C7        1.0  0.38954  0.97860  0.12750  1.0000
  C   C8        1.0  0.61046  0.52140  0.62750  1.0000
  C   C9        1.0  0.26451  0.76848  0.82822  1.0000
  C   C10       1.0  0.73550  0.73152  0.32822  1.0000
  C   C11       1.0  0.73549  0.23152  0.17178  1.0000
  C   C12       1.0  0.26450  0.26848  0.67178  1.0000
  Br  Br1       1.0  0.18975  0.80549  0.51221  1.0000
  Br  Br2       1.0  0.81024  0.69451  0.01221  1.0000
  Br  Br3       1.0  0.81025  0.19450  0.48779  1.0000
  Br  Br4       1.0  0.18976  0.30549  0.98779  1.0000
  N   N1        1.0  0.71629  0.94099  0.67633  1.0000
  N   N2        1.0  0.28370  0.55901  0.17633  1.0000
  N   N3        1.0  0.28370  0.05900  0.32367  1.0000
  N   N4        1.0  0.71630  0.44099  0.82367  1.0000
  N   N5        1.0  0.48716  0.91366  0.80913  1.0000
  N   N6        1.0  0.51283  0.58634  0.30913  1.0000
  N   N7        1.0  0.51283  0.08634  0.19087  1.0000
  N   N8        1.0  0.48717  0.41366  0.69087  1.0000
