data_image0
_chemical_formula_structural       Ag4H24C36N8O16
_chemical_formula_sum              "Ag4 H24 C36 N8 O16"
_cell_length_a       7.76808
_cell_length_b       8.81296
_cell_length_c       13.4038
_cell_angle_alpha    89.9998
_cell_angle_beta     90.0001
_cell_angle_gamma    94.1694

_space_group_name_H-M_alt    "P 1"
_space_group_IT_number       1

loop_
  _space_group_symop_operation_xyz
  'x, y, z'

loop_
  _atom_site_type_symbol
  _atom_site_label
  _atom_site_symmetry_multiplicity
  _atom_site_fract_x
  _atom_site_fract_y
  _atom_site_fract_z
  _atom_site_occupancy
  Ag  Ag1       1.0  0.37068  0.37953  0.53089  1.0000
  Ag  Ag2       1.0  0.12933  0.12047  0.03090  1.0000
  Ag  Ag3       1.0  0.62932  0.62047  0.46911  1.0000
  Ag  Ag4       1.0  0.87068  0.87953  0.96910  1.0000
  H   H1        1.0  0.96500  0.95781  0.23941  1.0000
  H   H2        1.0  0.53499  0.54219  0.73940  1.0000
  H   H3        1.0  0.03499  0.04220  0.76060  1.0000
  H   H4        1.0  0.46501  0.45781  0.26059  1.0000
  H   H5        1.0  0.88650  0.88784  0.52635  1.0000
  H   H6        1.0  0.61350  0.61215  0.02635  1.0000
  H   H7        1.0  0.11351  0.11216  0.47365  1.0000
  H   H8        1.0  0.38649  0.38784  0.97365  1.0000
  H   H9        1.0  0.98651  0.78381  0.68703  1.0000
  H   H10       1.0  0.51349  0.71617  0.18702  1.0000
  H   H11       1.0  0.01348  0.21618  0.31297  1.0000
  H   H12       1.0  0.48650  0.28382  0.81298  1.0000
  H   H13       1.0  0.19893  0.58101  0.68259  1.0000
  H   H14       1.0  0.30108  0.91898  0.18259  1.0000
  H   H15       1.0  0.80107  0.41899  0.31741  1.0000
  H   H16       1.0  0.69891  0.08101  0.81741  1.0000
  H   H17       1.0  0.45412  0.16122  0.35623  1.0000
  H   H18       1.0  0.04589  0.33877  0.85624  1.0000
  H   H19       1.0  0.54588  0.83877  0.64377  1.0000
  H   H20       1.0  0.95411  0.66122  0.14377  1.0000
  H   H21       1.0  0.44112  0.09844  0.66503  1.0000
  H   H22       1.0  0.05886  0.40156  0.16503  1.0000
  H   H23       1.0  0.55887  0.90156  0.33497  1.0000
  H   H24       1.0  0.94114  0.59843  0.83497  1.0000
  C   C1        1.0  0.16683  0.63913  0.44043  1.0000
  C   C2        1.0  0.33316  0.86087  0.94043  1.0000
  C   C3        1.0  0.83317  0.36088  0.55957  1.0000
  C   C4        1.0  0.66683  0.13913  0.05957  1.0000
  C   C5        1.0  0.04283  0.74687  0.43636  1.0000
  C   C6        1.0  0.45717  0.75313  0.93636  1.0000
  C   C7        1.0  0.95718  0.25314  0.56364  1.0000
  C   C8        1.0  0.54282  0.24687  0.06364  1.0000
  C   C9        1.0  0.97882  0.80066  0.52656  1.0000
  C   C10       1.0  0.52118  0.69933  0.02655  1.0000
  C   C11       1.0  0.02118  0.19934  0.47344  1.0000
  C   C12       1.0  0.47882  0.30067  0.97345  1.0000
  C   C13       1.0  0.03527  0.74347  0.61654  1.0000
  C   C14       1.0  0.46473  0.75652  0.11654  1.0000
  C   C15       1.0  0.96473  0.25653  0.38346  1.0000
  C   C16       1.0  0.53527  0.24347  0.88346  1.0000
  C   C17       1.0  0.15344  0.63215  0.61441  1.0000
  C   C18       1.0  0.34656  0.86784  0.11441  1.0000
  C   C19       1.0  0.84656  0.36785  0.38559  1.0000
  C   C20       1.0  0.65344  0.13215  0.88559  1.0000
  C   C21       1.0  0.24642  0.58573  0.34437  1.0000
  C   C22       1.0  0.25358  0.91427  0.84436  1.0000
  C   C23       1.0  0.75359  0.41428  0.65563  1.0000
  C   C24       1.0  0.74642  0.08573  0.15564  1.0000
  C   C25       1.0  0.96235  0.79691  0.34049  1.0000
  C   C26       1.0  0.53765  0.70308  0.84049  1.0000
  C   C27       1.0  0.03766  0.20310  0.65951  1.0000
  C   C28       1.0  0.46235  0.29691  0.15951  1.0000
  C   C29       1.0  0.47455  0.08985  0.42080  1.0000
  C   C30       1.0  0.02545  0.41015  0.92080  1.0000
  C   C31       1.0  0.52544  0.91015  0.57920  1.0000
  C   C32       1.0  0.97455  0.58984  0.07920  1.0000
  C   C33       1.0  0.46996  0.05571  0.59124  1.0000
  C   C34       1.0  0.03003  0.44428  0.09125  1.0000
  C   C35       1.0  0.53003  0.94429  0.40876  1.0000
  C   C36       1.0  0.96997  0.55571  0.90876  1.0000
  N   N1        1.0  0.21803  0.58233  0.52837  1.0000
  N   N2        1.0  0.28197  0.91767  0.02837  1.0000
  N   N3        1.0  0.78197  0.41767  0.47163  1.0000
  N   N4        1.0  0.71803  0.08233  0.97163  1.0000
  N   N5        1.0  0.44489  0.14580  0.51221  1.0000
  N   N6        1.0  0.05511  0.35420  0.01222  1.0000
  N   N7        1.0  0.55511  0.85420  0.48779  1.0000
  N   N8        1.0  0.94489  0.64580  0.98779  1.0000
  O   O1        1.0  0.38444  0.51312  0.35195  1.0000
  O   O2        1.0  0.11556  0.98688  0.85195  1.0000
  O   O3        1.0  0.61556  0.48688  0.64805  1.0000
  O   O4        1.0  0.88444  0.01312  0.14805  1.0000
  O   O5        1.0  0.17470  0.61864  0.26485  1.0000
  O   O6        1.0  0.32530  0.88137  0.76485  1.0000
  O   O7        1.0  0.82532  0.38138  0.73515  1.0000
  O   O8        1.0  0.67470  0.11864  0.23515  1.0000
  O   O9        1.0  0.82482  0.73230  0.31085  1.0000
  O   O10       1.0  0.67518  0.76770  0.81085  1.0000
  O   O11       1.0  0.17519  0.26770  0.68915  1.0000
  O   O12       1.0  0.32482  0.23230  0.18915  1.0000
  O   O13       1.0  0.03785  0.92174  0.30093  1.0000
  O   O14       1.0  0.46214  0.57826  0.80092  1.0000
  O   O15       1.0  0.96215  0.07828  0.69908  1.0000
  O   O16       1.0  0.53785  0.42174  0.19907  1.0000
