data_image0
_chemical_formula_structural       Ag4H24C44N4F16
_chemical_formula_sum              "Ag4 H24 C44 N4 F16"
_cell_length_a       10.2048
_cell_length_b       10.495
_cell_length_c       10.8898
_cell_angle_alpha    75.6003
_cell_angle_beta     69.7549
_cell_angle_gamma    86.0062

_space_group_name_H-M_alt    "P 1"
_space_group_IT_number       1

loop_
  _space_group_symop_operation_xyz
  'x, y, z'

loop_
  _atom_site_type_symbol
  _atom_site_label
  _atom_site_symmetry_multiplicity
  _atom_site_fract_x
  _atom_site_fract_y
  _atom_site_fract_z
  _atom_site_occupancy
  Ag  Ag1       1.0  0.50000  0.50000  1.00000  1.0000
  Ag  Ag2       1.0  0.57095  0.73304  0.04314  1.0000
  Ag  Ag3       1.0  0.42905  0.26696  0.95686  1.0000
  Ag  Ag4       1.0  0.50000  0.00000  1.00000  1.0000
  H   H1        1.0  0.98137  0.81148  0.12578  1.0000
  H   H2        1.0  0.01863  0.18851  0.87422  1.0000
  H   H3        1.0  0.55534  0.85041  0.54884  1.0000
  H   H4        1.0  0.44466  0.14959  0.45116  1.0000
  H   H5        1.0  0.53482  0.63660  0.35037  1.0000
  H   H6        1.0  0.46518  0.36340  0.64963  1.0000
  H   H7        1.0  0.65261  0.51630  0.51129  1.0000
  H   H8        1.0  0.34739  0.48371  0.48871  1.0000
  H   H9        1.0  0.87497  0.39897  0.42216  1.0000
  H   H10       1.0  0.12503  0.60103  0.57784  1.0000
  H   H11       1.0  0.96948  0.40635  0.17462  1.0000
  H   H12       1.0  0.03052  0.59365  0.82538  1.0000
  H   H13       1.0  0.84070  0.53553  0.02637  1.0000
  H   H14       1.0  0.15930  0.46447  0.97363  1.0000
  H   H15       1.0  0.85791  0.90386  0.88186  1.0000
  H   H16       1.0  0.14209  0.09615  0.11813  1.0000
  H   H17       1.0  0.05392  0.94302  0.66150  1.0000
  H   H18       1.0  0.94609  0.05698  0.33850  1.0000
  H   H19       1.0  0.04181  0.83634  0.48320  1.0000
  H   H20       1.0  0.95819  0.16366  0.51680  1.0000
  H   H21       1.0  0.83359  0.69135  0.53607  1.0000
  H   H22       1.0  0.16641  0.30865  0.46393  1.0000
  H   H23       1.0  0.64611  0.66300  0.76158  1.0000
  H   H24       1.0  0.35389  0.33700  0.23842  1.0000
  C   C1        1.0  0.35445  0.65148  0.04848  1.0000
  C   C2        1.0  0.64555  0.34852  0.95152  1.0000
  C   C3        1.0  0.30682  0.72454  0.94670  1.0000
  C   C4        1.0  0.69318  0.27546  0.05330  1.0000
  C   C5        1.0  0.17490  0.77983  0.97286  1.0000
  C   C6        1.0  0.82510  0.22017  0.02714  1.0000
  C   C7        1.0  0.08365  0.76656  0.10445  1.0000
  C   C8        1.0  0.91635  0.23343  0.89556  1.0000
  C   C9        1.0  0.12854  0.69429  0.20748  1.0000
  C   C10       1.0  0.87146  0.30570  0.79252  1.0000
  C   C11       1.0  0.26023  0.63881  0.17910  1.0000
  C   C12       1.0  0.73977  0.36119  0.82091  1.0000
  C   C13       1.0  0.52753  0.90300  0.18596  1.0000
  C   C14       1.0  0.47247  0.09700  0.81404  1.0000
  C   C15       1.0  0.41085  0.88102  0.30354  1.0000
  C   C16       1.0  0.58915  0.11898  0.69646  1.0000
  C   C17       1.0  0.41950  0.86268  0.43189  1.0000
  C   C18       1.0  0.58050  0.13732  0.56811  1.0000
  C   C19       1.0  0.54822  0.86468  0.44895  1.0000
  C   C20       1.0  0.45178  0.13532  0.55105  1.0000
  C   C21       1.0  0.66627  0.88603  0.33346  1.0000
  C   C22       1.0  0.33373  0.11397  0.66654  1.0000
  C   C23       1.0  0.65459  0.90398  0.20672  1.0000
  C   C24       1.0  0.34541  0.09602  0.79328  1.0000
  C   C25       1.0  0.63211  0.58512  0.31534  1.0000
  C   C26       1.0  0.36789  0.41488  0.68466  1.0000
  C   C27       1.0  0.69769  0.51762  0.40464  1.0000
  C   C28       1.0  0.30231  0.48238  0.59536  1.0000
  C   C29       1.0  0.82139  0.45272  0.35476  1.0000
  C   C30       1.0  0.17861  0.54728  0.64524  1.0000
  C   C31       1.0  0.87448  0.45777  0.21717  1.0000
  C   C32       1.0  0.12552  0.54223  0.78283  1.0000
  C   C33       1.0  0.80298  0.52891  0.13461  1.0000
  C   C34       1.0  0.19702  0.47109  0.86539  1.0000
  C   C35       1.0  0.85652  0.85871  0.80249  1.0000
  C   C36       1.0  0.14348  0.14129  0.19751  1.0000
  C   C37       1.0  0.96522  0.88079  0.67901  1.0000
  C   C38       1.0  0.03478  0.11921  0.32099  1.0000
  C   C39       1.0  0.95835  0.82100  0.58060  1.0000
  C   C40       1.0  0.04166  0.17901  0.41940  1.0000
  C   C41       1.0  0.84292  0.74056  0.60968  1.0000
  C   C42       1.0  0.15709  0.25945  0.39032  1.0000
  C   C43       1.0  0.73853  0.72427  0.73523  1.0000
  C   C44       1.0  0.26147  0.27573  0.26477  1.0000
  N   N1        1.0  0.68387  0.59214  0.18218  1.0000
  N   N2        1.0  0.31613  0.40786  0.81782  1.0000
  N   N3        1.0  0.74462  0.78180  0.83089  1.0000
  N   N4        1.0  0.25538  0.21821  0.16911  1.0000
  F   F1        1.0  0.30071  0.84389  0.54181  1.0000
  F   F2        1.0  0.69929  0.15611  0.45819  1.0000
  F   F3        1.0  0.77734  0.92005  0.09865  1.0000
  F   F4        1.0  0.22266  0.07995  0.90135  1.0000
  F   F5        1.0  0.79523  0.88662  0.34448  1.0000
  F   F6        1.0  0.20477  0.11338  0.65552  1.0000
  F   F7        1.0  0.13385  0.84634  0.86848  1.0000
  F   F8        1.0  0.86615  0.15365  0.13153  1.0000
  F   F9        1.0  0.29652  0.56938  0.28733  1.0000
  F   F10       1.0  0.70348  0.43062  0.71267  1.0000
  F   F11       1.0  0.27975  0.87857  0.29595  1.0000
  F   F12       1.0  0.72025  0.12143  0.70405  1.0000
  F   F13       1.0  0.39056  0.74185  0.81423  1.0000
  F   F14       1.0  0.60944  0.25815  0.18577  1.0000
  F   F15       1.0  0.04257  0.67735  0.33822  1.0000
  F   F16       1.0  0.95743  0.32264  0.66178  1.0000
