data_image0
_chemical_formula_structural       Mn2H40C40N10O4
_chemical_formula_sum              "Mn2 H40 C40 N10 O4"
_cell_length_a       7.38717
_cell_length_b       11.3054
_cell_length_c       11.7116
_cell_angle_alpha    90.0015
_cell_angle_beta     90.0009
_cell_angle_gamma    92.4313

_space_group_name_H-M_alt    "P 1"
_space_group_IT_number       1

loop_
  _space_group_symop_operation_xyz
  'x, y, z'

loop_
  _atom_site_type_symbol
  _atom_site_label
  _atom_site_symmetry_multiplicity
  _atom_site_fract_x
  _atom_site_fract_y
  _atom_site_fract_z
  _atom_site_occupancy
  Mn  Mn1       1.0  0.04900  0.98264  0.30342  1.0000
  Mn  Mn2       1.0  0.95099  0.01736  0.80345  1.0000
  H   H1        1.0  0.07010  0.36479  0.20502  1.0000
  H   H2        1.0  0.92985  0.63517  0.70512  1.0000
  H   H3        1.0  0.83099  0.51111  0.22231  1.0000
  H   H4        1.0  0.16900  0.48887  0.72233  1.0000
  H   H5        1.0  0.52282  0.44860  0.29290  1.0000
  H   H6        1.0  0.47721  0.55142  0.79287  1.0000
  H   H7        1.0  0.45727  0.23698  0.34467  1.0000
  H   H8        1.0  0.54274  0.76303  0.84466  1.0000
  H   H9        1.0  0.53925  0.04628  0.36817  1.0000
  H   H10       1.0  0.46074  0.95372  0.86818  1.0000
  H   H11       1.0  0.67997  0.81235  0.31064  1.0000
  H   H12       1.0  0.32004  0.18763  0.81065  1.0000
  H   H13       1.0  0.92658  0.84210  0.51770  1.0000
  H   H14       1.0  0.07343  0.15793  0.01771  1.0000
  H   H15       1.0  0.94767  0.62386  0.50488  1.0000
  H   H16       1.0  0.05236  0.37617  0.00486  1.0000
  H   H17       1.0  0.79065  0.61882  0.39034  1.0000
  H   H18       1.0  0.20940  0.38118  0.89034  1.0000
  H   H19       1.0  0.63527  0.57343  0.57406  1.0000
  H   H20       1.0  0.36476  0.42659  0.07408  1.0000
  H   H21       1.0  0.71615  0.71035  0.63218  1.0000
  H   H22       1.0  0.28387  0.28967  0.13220  1.0000
  H   H23       1.0  0.45955  0.68182  0.42818  1.0000
  H   H24       1.0  0.54047  0.31817  0.92820  1.0000
  H   H25       1.0  0.40031  0.72728  0.56743  1.0000
  H   H26       1.0  0.59971  0.27272  0.06745  1.0000
  H   H27       1.0  0.44663  0.90023  0.43836  1.0000
  H   H28       1.0  0.55336  0.09976  0.93841  1.0000
  H   H29       1.0  0.60745  0.90544  0.55151  1.0000
  H   H30       1.0  0.39253  0.09458  0.05153  1.0000
  H   H31       1.0  0.09198  0.64151  0.34521  1.0000
  H   H32       1.0  0.90805  0.35851  0.84521  1.0000
  H   H33       1.0  0.29162  0.55676  0.22159  1.0000
  H   H34       1.0  0.70838  0.44325  0.72159  1.0000
  H   H35       1.0  0.55453  0.56855  0.08746  1.0000
  H   H36       1.0  0.44547  0.43145  0.58745  1.0000
  H   H37       1.0  0.68351  0.76606  0.02872  1.0000
  H   H38       1.0  0.31648  0.23393  0.52873  1.0000
  H   H39       1.0  0.55536  0.94968  0.10320  1.0000
  H   H40       1.0  0.44462  0.05032  0.60323  1.0000
  C   C1        1.0  0.90199  0.21662  0.26390  1.0000
  C   C2        1.0  0.09796  0.78336  0.76397  1.0000
  C   C3        1.0  0.93559  0.33756  0.23539  1.0000
  C   C4        1.0  0.06437  0.66242  0.73546  1.0000
  C   C5        1.0  0.80130  0.41889  0.24595  1.0000
  C   C6        1.0  0.19868  0.58110  0.74599  1.0000
  C   C7        1.0  0.62729  0.38397  0.28550  1.0000
  C   C8        1.0  0.37271  0.61603  0.78550  1.0000
  C   C9        1.0  0.59147  0.26685  0.31491  1.0000
  C   C10       1.0  0.40853  0.73316  0.81491  1.0000
  C   C11       1.0  0.72637  0.18208  0.30746  1.0000
  C   C12       1.0  0.27361  0.81791  0.80749  1.0000
  C   C13       1.0  0.68110  0.06424  0.34483  1.0000
  C   C14       1.0  0.31888  0.93575  0.84485  1.0000
  C   C15       1.0  0.72214  0.85972  0.38936  1.0000
  C   C16       1.0  0.27786  0.14028  0.88938  1.0000
  C   C17       1.0  0.88385  0.79603  0.43833  1.0000
  C   C18       1.0  0.11617  0.20399  0.93834  1.0000
  C   C19       1.0  0.83143  0.66805  0.46796  1.0000
  C   C20       1.0  0.16860  0.33197  0.96796  1.0000
  C   C21       1.0  0.67313  0.66560  0.55258  1.0000
  C   C22       1.0  0.32689  0.33441  0.05259  1.0000
  C   C23       1.0  0.51115  0.72869  0.50478  1.0000
  C   C24       1.0  0.48887  0.27131  0.00479  1.0000
  C   C25       1.0  0.56455  0.85702  0.47373  1.0000
  C   C26       1.0  0.43545  0.14298  0.97376  1.0000
  C   C27       1.0  0.12510  0.73181  0.31573  1.0000
  C   C28       1.0  0.87492  0.26819  0.81573  1.0000
  C   C29       1.0  0.27203  0.74563  0.23663  1.0000
  C   C30       1.0  0.72798  0.25437  0.73664  1.0000
  C   C31       1.0  0.35054  0.64250  0.19444  1.0000
  C   C32       1.0  0.64948  0.35750  0.69444  1.0000
  C   C33       1.0  0.49613  0.64866  0.12018  1.0000
  C   C34       1.0  0.50388  0.35134  0.62018  1.0000
  C   C35       1.0  0.56877  0.76038  0.08710  1.0000
  C   C36       1.0  0.43123  0.23961  0.58711  1.0000
  C   C37       1.0  0.49725  0.86340  0.12786  1.0000
  C   C38       1.0  0.50274  0.13660  0.62787  1.0000
  C   C39       1.0  0.34682  0.85966  0.20293  1.0000
  C   C40       1.0  0.65319  0.14035  0.70294  1.0000
  N   N1        1.0  0.79369  0.97824  0.35243  1.0000
  N   N2        1.0  0.20629  0.02176  0.85245  1.0000
  N   N3        1.0  0.03051  0.81762  0.35500  1.0000
  N   N4        1.0  0.96950  0.18240  0.85501  1.0000
  N   N5        1.0  0.96105  0.89212  0.12245  1.0000
  N   N6        1.0  0.03893  0.10783  0.62246  1.0000
  N   N7        1.0  0.91455  0.93261  0.03548  1.0000
  N   N8        1.0  0.08544  0.06737  0.53546  1.0000
  N   N9        1.0  0.84797  0.96410  0.94794  1.0000
  N   N10       1.0  0.15201  0.03594  0.44791  1.0000
  O   O1        1.0  0.02939  0.14012  0.24701  1.0000
  O   O2        1.0  0.97055  0.85985  0.74708  1.0000
  O   O3        1.0  0.28455  0.95973  0.24113  1.0000
  O   O4        1.0  0.71544  0.04028  0.74115  1.0000
