data_image0
_chemical_formula_structural       Mn6H30C42N6O30
_chemical_formula_sum              "Mn6 H30 C42 N6 O30"
_cell_length_a       7.40828
_cell_length_b       14.177
_cell_length_c       14.1492
_cell_angle_alpha    116.909
_cell_angle_beta     100.24
_cell_angle_gamma    99.9372

_space_group_name_H-M_alt    "P 1"
_space_group_IT_number       1

loop_
  _space_group_symop_operation_xyz
  'x, y, z'

loop_
  _atom_site_type_symbol
  _atom_site_label
  _atom_site_symmetry_multiplicity
  _atom_site_fract_x
  _atom_site_fract_y
  _atom_site_fract_z
  _atom_site_occupancy
  Mn  Mn1       1.0  0.45700  0.72796  0.83456  1.0000
  Mn  Mn2       1.0  0.72820  0.10629  0.27154  1.0000
  Mn  Mn3       1.0  0.62327  0.16584  0.89420  1.0000
  Mn  Mn4       1.0  0.54300  0.27205  0.16544  1.0000
  Mn  Mn5       1.0  0.27180  0.89371  0.72846  1.0000
  Mn  Mn6       1.0  0.37672  0.83416  0.10580  1.0000
  H   H1        1.0  0.55177  0.44141  0.75378  1.0000
  H   H2        1.0  0.11068  0.31219  0.55817  1.0000
  H   H3        1.0  0.79836  0.24654  0.68734  1.0000
  H   H4        1.0  0.44823  0.55859  0.24622  1.0000
  H   H5        1.0  0.88932  0.68781  0.44182  1.0000
  H   H6        1.0  0.20164  0.75347  0.31266  1.0000
  H   H7        1.0  0.55689  0.29733  0.56403  1.0000
  H   H8        1.0  0.26027  0.26645  0.70293  1.0000
  H   H9        1.0  0.99279  0.43604  0.73279  1.0000
  H   H10       1.0  0.44311  0.70267  0.43597  1.0000
  H   H11       1.0  0.73973  0.73355  0.29707  1.0000
  H   H12       1.0  0.00721  0.56396  0.26721  1.0000
  H   H13       1.0  0.81007  0.56497  0.51818  1.0000
  H   H14       1.0  0.24435  0.95324  0.43471  1.0000
  H   H15       1.0  0.29207  0.48146  0.04733  1.0000
  H   H16       1.0  0.18993  0.43503  0.48182  1.0000
  H   H17       1.0  0.75565  0.04676  0.56529  1.0000
  H   H18       1.0  0.70793  0.51855  0.95267  1.0000
  H   H19       1.0  0.80479  0.69765  0.70974  1.0000
  H   H20       1.0  0.10633  0.01224  0.30144  1.0000
  H   H21       1.0  0.09574  0.29027  0.98872  1.0000
  H   H22       1.0  0.19521  0.30235  0.29026  1.0000
  H   H23       1.0  0.89367  0.98776  0.69856  1.0000
  H   H24       1.0  0.90426  0.70973  0.01128  1.0000
  H   H25       1.0  0.85917  0.86091  0.01139  1.0000
  H   H26       1.0  0.99838  0.15015  0.13972  1.0000
  H   H27       1.0  0.84813  0.98854  0.85002  1.0000
  H   H28       1.0  0.14083  0.13908  0.98861  1.0000
  H   H29       1.0  0.00162  0.84985  0.86028  1.0000
  H   H30       1.0  0.15187  0.01146  0.14998  1.0000
  C   C1        1.0  0.66993  0.33682  0.41023  1.0000
  C   C2        1.0  0.33255  0.07315  0.66335  1.0000
  C   C3        1.0  0.25921  0.58964  0.92662  1.0000
  C   C4        1.0  0.33007  0.66318  0.58978  1.0000
  C   C5        1.0  0.66745  0.92685  0.33665  1.0000
  C   C6        1.0  0.74079  0.41036  0.07338  1.0000
  C   C7        1.0  0.60913  0.46150  0.69748  1.0000
  C   C8        1.0  0.14802  0.23591  0.53819  1.0000
  C   C9        1.0  0.91201  0.30270  0.76393  1.0000
  C   C10       1.0  0.39086  0.53850  0.30252  1.0000
  C   C11       1.0  0.85198  0.76409  0.46181  1.0000
  C   C12       1.0  0.08799  0.69730  0.23607  1.0000
  C   C13       1.0  0.68177  0.42013  0.52579  1.0000
  C   C14       1.0  0.26150  0.10552  0.57979  1.0000
  C   C15       1.0  0.15601  0.47415  0.89443  1.0000
  C   C16       1.0  0.31823  0.57987  0.47421  1.0000
  C   C17       1.0  0.73850  0.89447  0.42021  1.0000
  C   C18       1.0  0.84400  0.52585  0.10557  1.0000
  C   C19       1.0  0.61224  0.38525  0.59405  1.0000
  C   C20       1.0  0.22745  0.20870  0.61476  1.0000
  C   C21       1.0  0.01838  0.40602  0.79100  1.0000
  C   C22       1.0  0.38776  0.61475  0.40595  1.0000
  C   C23       1.0  0.77255  0.79131  0.38524  1.0000
  C   C24       1.0  0.98162  0.59398  0.20900  1.0000
  C   C25       1.0  0.75394  0.53389  0.56789  1.0000
  C   C26       1.0  0.21962  0.03399  0.46575  1.0000
  C   C27       1.0  0.18623  0.43193  0.96636  1.0000
  C   C28       1.0  0.24606  0.46611  0.43211  1.0000
  C   C29       1.0  0.78038  0.96601  0.53425  1.0000
  C   C30       1.0  0.81377  0.56807  0.03364  1.0000
  C   C31       1.0  0.75419  0.60850  0.67298  1.0000
  C   C32       1.0  0.14536  0.06450  0.39084  1.0000
  C   C33       1.0  0.08161  0.32699  0.93602  1.0000
  C   C34       1.0  0.24581  0.39150  0.32702  1.0000
  C   C35       1.0  0.85463  0.93549  0.60916  1.0000
  C   C36       1.0  0.91838  0.67301  0.06398  1.0000
  C   C37       1.0  0.76075  0.89181  0.06059  1.0000
  C   C38       1.0  0.86923  0.16865  0.10838  1.0000
  C   C39       1.0  0.70033  0.93940  0.83158  1.0000
  C   C40       1.0  0.23925  0.10819  0.93941  1.0000
  C   C41       1.0  0.13077  0.83135  0.89162  1.0000
  C   C42       1.0  0.29967  0.06060  0.16842  1.0000
  N   N1        1.0  0.67935  0.57201  0.73612  1.0000
  N   N2        1.0  0.10731  0.16411  0.42740  1.0000
  N   N3        1.0  0.94359  0.26402  0.83615  1.0000
  N   N4        1.0  0.32065  0.42799  0.26388  1.0000
  N   N5        1.0  0.89269  0.83589  0.57260  1.0000
  N   N6        1.0  0.05642  0.73598  0.16386  1.0000
  O   O1        1.0  0.66843  0.37034  0.34053  1.0000
  O   O2        1.0  0.29752  0.97021  0.62976  1.0000
  O   O3        1.0  0.32687  0.65909  0.02979  1.0000
  O   O4        1.0  0.33157  0.62966  0.65947  1.0000
  O   O5        1.0  0.70249  0.02979  0.37024  1.0000
  O   O6        1.0  0.67313  0.34091  0.97021  1.0000
  O   O7        1.0  0.58204  0.83774  0.01456  1.0000
  O   O8        1.0  0.74390  0.17654  0.16180  1.0000
  O   O9        1.0  0.56773  0.98565  0.82396  1.0000
  O   O10       1.0  0.41796  0.16226  0.98544  1.0000
  O   O11       1.0  0.25610  0.82346  0.83820  1.0000
  O   O12       1.0  0.43227  0.01435  0.17604  1.0000
  O   O13       1.0  0.66907  0.64331  0.83388  1.0000
  O   O14       1.0  0.02513  0.19047  0.35579  1.0000
  O   O15       1.0  0.83546  0.16646  0.80985  1.0000
  O   O16       1.0  0.33093  0.35669  0.16613  1.0000
  O   O17       1.0  0.97487  0.80953  0.64421  1.0000
  O   O18       1.0  0.16454  0.83354  0.19015  1.0000
  O   O19       1.0  0.65835  0.23913  0.39160  1.0000
  O   O20       1.0  0.41842  0.15196  0.76140  1.0000
  O   O21       1.0  0.26631  0.60846  0.84744  1.0000
  O   O22       1.0  0.34165  0.76087  0.60841  1.0000
  O   O23       1.0  0.58158  0.84804  0.23860  1.0000
  O   O24       1.0  0.73369  0.39155  0.15256  1.0000
  O   O25       1.0  0.83112  0.97532  0.15550  1.0000
  O   O26       1.0  0.85688  0.18044  0.02491  1.0000
  O   O27       1.0  0.67548  0.84431  0.81958  1.0000
  O   O28       1.0  0.16888  0.02468  0.84450  1.0000
  O   O29       1.0  0.14312  0.81956  0.97509  1.0000
  O   O30       1.0  0.32452  0.15569  0.18042  1.0000
