data_image0
_chemical_formula_structural       Gd4H40C24O32
_chemical_formula_sum              "Gd4 H40 C24 O32"
_cell_length_a       8.58796
_cell_length_b       9.30228
_cell_length_c       12.5227
_cell_angle_alpha    89.9999
_cell_angle_beta     90
_cell_angle_gamma    101.957

_space_group_name_H-M_alt    "P 1"
_space_group_IT_number       1

loop_
  _space_group_symop_operation_xyz
  'x, y, z'

loop_
  _atom_site_type_symbol
  _atom_site_label
  _atom_site_symmetry_multiplicity
  _atom_site_fract_x
  _atom_site_fract_y
  _atom_site_fract_z
  _atom_site_occupancy
  Gd  Gd1       1.0  0.59724  0.22081  0.90711  1.0000
  Gd  Gd2       1.0  0.90276  0.77918  0.40711  1.0000
  Gd  Gd3       1.0  0.40276  0.77918  0.09289  1.0000
  Gd  Gd4       1.0  0.09724  0.22081  0.59289  1.0000
  H   H1        1.0  0.02475  0.10062  0.16741  1.0000
  H   H2        1.0  0.47525  0.89938  0.66741  1.0000
  H   H3        1.0  0.97525  0.89938  0.83259  1.0000
  H   H4        1.0  0.52475  0.10062  0.33259  1.0000
  H   H5        1.0  0.03818  0.29111  0.18647  1.0000
  H   H6        1.0  0.46182  0.70889  0.68647  1.0000
  H   H7        1.0  0.96182  0.70889  0.81353  1.0000
  H   H8        1.0  0.53818  0.29111  0.31353  1.0000
  H   H9        1.0  0.14513  0.34188  0.00086  1.0000
  H   H10       1.0  0.35487  0.65812  0.50086  1.0000
  H   H11       1.0  0.85487  0.65811  0.99914  1.0000
  H   H12       1.0  0.64513  0.34188  0.49914  1.0000
  H   H13       1.0  0.12684  0.15287  0.97743  1.0000
  H   H14       1.0  0.37316  0.84713  0.47743  1.0000
  H   H15       1.0  0.87316  0.84713  0.02257  1.0000
  H   H16       1.0  0.62684  0.15287  0.52257  1.0000
  H   H17       1.0  0.33174  0.33961  0.15716  1.0000
  H   H18       1.0  0.16826  0.66039  0.65716  1.0000
  H   H19       1.0  0.66826  0.66039  0.84284  1.0000
  H   H20       1.0  0.83174  0.33961  0.34284  1.0000
  H   H21       1.0  0.26779  0.22171  0.26714  1.0000
  H   H22       1.0  0.23221  0.77829  0.76715  1.0000
  H   H23       1.0  0.73221  0.77828  0.73286  1.0000
  H   H24       1.0  0.76779  0.22171  0.23285  1.0000
  H   H25       1.0  0.30316  0.99156  0.88870  1.0000
  H   H26       1.0  0.19684  0.00844  0.38870  1.0000
  H   H27       1.0  0.69683  0.00844  0.11130  1.0000
  H   H28       1.0  0.80316  0.99157  0.61130  1.0000
  H   H29       1.0  0.74112  0.34829  0.69276  1.0000
  H   H30       1.0  0.75888  0.65171  0.19276  1.0000
  H   H31       1.0  0.25888  0.65171  0.30724  1.0000
  H   H32       1.0  0.24112  0.34829  0.80724  1.0000
  H   H33       1.0  0.30434  0.05531  0.77144  1.0000
  H   H34       1.0  0.19565  0.94468  0.27144  1.0000
  H   H35       1.0  0.69565  0.94468  0.22856  1.0000
  H   H36       1.0  0.80435  0.05531  0.72856  1.0000
  H   H37       1.0  0.55032  0.32328  0.68589  1.0000
  H   H38       1.0  0.94968  0.67672  0.18589  1.0000
  H   H39       1.0  0.44968  0.67672  0.31411  1.0000
  H   H40       1.0  0.05032  0.32328  0.81411  1.0000
  C   C1        1.0  0.34557  0.11433  0.13195  1.0000
  C   C2        1.0  0.15443  0.88567  0.63195  1.0000
  C   C3        1.0  0.65443  0.88567  0.86805  1.0000
  C   C4        1.0  0.84557  0.11433  0.36805  1.0000
  C   C5        1.0  0.09090  0.20993  0.14345  1.0000
  C   C6        1.0  0.40910  0.79007  0.64345  1.0000
  C   C7        1.0  0.90910  0.79007  0.85655  1.0000
  C   C8        1.0  0.59090  0.20993  0.35655  1.0000
  C   C9        1.0  0.90985  0.22557  0.98312  1.0000
  C   C10       1.0  0.59015  0.77444  0.48312  1.0000
  C   C11       1.0  0.09015  0.77444  0.01688  1.0000
  C   C12       1.0  0.40985  0.22557  0.51689  1.0000
  C   C13       1.0  0.07620  0.23331  0.02375  1.0000
  C   C14       1.0  0.42380  0.76669  0.52374  1.0000
  C   C15       1.0  0.92379  0.76669  0.97626  1.0000
  C   C16       1.0  0.57620  0.23331  0.47626  1.0000
  C   C17       1.0  0.26527  0.22992  0.17967  1.0000
  C   C18       1.0  0.23473  0.77007  0.67967  1.0000
  C   C19       1.0  0.73473  0.77007  0.82033  1.0000
  C   C20       1.0  0.76527  0.22993  0.32033  1.0000
  C   C21       1.0  0.57480  0.51144  0.03663  1.0000
  C   C22       1.0  0.92521  0.48856  0.53662  1.0000
  C   C23       1.0  0.42521  0.48856  0.96338  1.0000
  C   C24       1.0  0.07479  0.51144  0.46337  1.0000
  O   O1        1.0  0.58541  0.61069  0.10771  1.0000
  O   O2        1.0  0.91460  0.38932  0.60770  1.0000
  O   O3        1.0  0.41460  0.38931  0.89230  1.0000
  O   O4        1.0  0.08541  0.61069  0.39229  1.0000
  O   O5        1.0  0.44337  0.14617  0.05575  1.0000
  O   O6        1.0  0.05662  0.85383  0.55575  1.0000
  O   O7        1.0  0.55663  0.85384  0.94425  1.0000
  O   O8        1.0  0.94337  0.14617  0.44425  1.0000
  O   O9        1.0  0.30794  0.98316  0.16900  1.0000
  O   O10       1.0  0.19206  0.01684  0.66900  1.0000
  O   O11       1.0  0.69206  0.01684  0.83100  1.0000
  O   O12       1.0  0.80794  0.98316  0.33100  1.0000
  O   O13       1.0  0.89036  0.28816  0.89408  1.0000
  O   O14       1.0  0.60964  0.71184  0.39408  1.0000
  O   O15       1.0  0.10964  0.71184  0.10592  1.0000
  O   O16       1.0  0.39036  0.28817  0.60592  1.0000
  O   O17       1.0  0.78771  0.15813  0.03457  1.0000
  O   O18       1.0  0.71228  0.84187  0.53457  1.0000
  O   O19       1.0  0.21229  0.84187  0.96543  1.0000
  O   O20       1.0  0.28771  0.15813  0.46543  1.0000
  O   O21       1.0  0.64202  0.32466  0.73595  1.0000
  O   O22       1.0  0.85799  0.67534  0.23595  1.0000
  O   O23       1.0  0.35799  0.67534  0.26405  1.0000
  O   O24       1.0  0.14201  0.32466  0.76405  1.0000
  O   O25       1.0  0.35974  0.07200  0.84252  1.0000
  O   O26       1.0  0.14026  0.92800  0.34252  1.0000
  O   O27       1.0  0.64026  0.92800  0.15748  1.0000
  O   O28       1.0  0.85974  0.07200  0.65748  1.0000
  O   O29       1.0  0.67461  0.43211  0.01930  1.0000
  O   O30       1.0  0.82539  0.56789  0.51930  1.0000
  O   O31       1.0  0.32539  0.56789  0.98071  1.0000
  O   O32       1.0  0.17461  0.43211  0.48070  1.0000
