data_image0
_chemical_formula_structural       Ag4H28C20N20O8
_chemical_formula_sum              "Ag4 H28 C20 N20 O8"
_cell_length_a       6.28398
_cell_length_b       10.4754
_cell_length_c       11.9264
_cell_angle_alpha    89.9994
_cell_angle_beta     90
_cell_angle_gamma    101.593

_space_group_name_H-M_alt    "P 1"
_space_group_IT_number       1

loop_
  _space_group_symop_operation_xyz
  'x, y, z'

loop_
  _atom_site_type_symbol
  _atom_site_label
  _atom_site_symmetry_multiplicity
  _atom_site_fract_x
  _atom_site_fract_y
  _atom_site_fract_z
  _atom_site_occupancy
  Ag  Ag1       1.0  0.93129  0.61311  0.62379  1.0000
  Ag  Ag2       1.0  0.06871  0.88689  0.12379  1.0000
  Ag  Ag3       1.0  0.06863  0.38689  0.37623  1.0000
  Ag  Ag4       1.0  0.93136  0.11312  0.87623  1.0000
  H   H1        1.0  0.63112  0.40610  0.72811  1.0000
  H   H2        1.0  0.36890  0.09390  0.22812  1.0000
  H   H3        1.0  0.36890  0.59387  0.27189  1.0000
  H   H4        1.0  0.63109  0.90613  0.77190  1.0000
  H   H5        1.0  0.64147  0.25437  0.79218  1.0000
  H   H6        1.0  0.35854  0.24563  0.29219  1.0000
  H   H7        1.0  0.35857  0.74561  0.20782  1.0000
  H   H8        1.0  0.64143  0.75439  0.70782  1.0000
  H   H9        1.0  0.46499  0.38177  0.02305  1.0000
  H   H10       1.0  0.53502  0.11823  0.52307  1.0000
  H   H11       1.0  0.53507  0.61825  0.97693  1.0000
  H   H12       1.0  0.46494  0.88175  0.47694  1.0000
  H   H13       1.0  0.27469  0.23262  0.99544  1.0000
  H   H14       1.0  0.72531  0.26738  0.49545  1.0000
  H   H15       1.0  0.72537  0.76740  0.00455  1.0000
  H   H16       1.0  0.27463  0.73261  0.50456  1.0000
  H   H17       1.0  0.35405  0.77309  0.90538  1.0000
  H   H18       1.0  0.64594  0.72691  0.40538  1.0000
  H   H19       1.0  0.64594  0.22692  0.09462  1.0000
  H   H20       1.0  0.35404  0.27308  0.59460  1.0000
  H   H21       1.0  0.08023  0.78258  0.87346  1.0000
  H   H22       1.0  0.91977  0.71741  0.37347  1.0000
  H   H23       1.0  0.91976  0.21742  0.12653  1.0000
  H   H24       1.0  0.08023  0.28258  0.62653  1.0000
  H   H25       1.0  0.25990  0.76489  0.76327  1.0000
  H   H26       1.0  0.74010  0.73511  0.26327  1.0000
  H   H27       1.0  0.74009  0.23511  0.23672  1.0000
  H   H28       1.0  0.25992  0.26489  0.73672  1.0000
  C   C1        1.0  0.89983  0.40526  0.82158  1.0000
  C   C2        1.0  0.10018  0.09475  0.32158  1.0000
  C   C3        1.0  0.10020  0.59474  0.17842  1.0000
  C   C4        1.0  0.89981  0.90526  0.67842  1.0000
  C   C5        1.0  0.19481  0.39852  0.93369  1.0000
  C   C6        1.0  0.80518  0.10148  0.43370  1.0000
  C   C7        1.0  0.80523  0.60150  0.06630  1.0000
  C   C8        1.0  0.19477  0.89851  0.56631  1.0000
  C   C9        1.0  0.14934  0.59215  0.85918  1.0000
  C   C10       1.0  0.85066  0.90785  0.35919  1.0000
  C   C11       1.0  0.85067  0.40786  0.14081  1.0000
  C   C12       1.0  0.14933  0.09214  0.64081  1.0000
  C   C13       1.0  0.21658  0.73676  0.85015  1.0000
  C   C14       1.0  0.78342  0.76324  0.35014  1.0000
  C   C15       1.0  0.78341  0.26324  0.14985  1.0000
  C   C16       1.0  0.21658  0.23676  0.64985  1.0000
  C   C17       1.0  0.42991  0.53399  0.54158  1.0000
  C   C18       1.0  0.57009  0.96601  0.04157  1.0000
  C   C19       1.0  0.57002  0.46602  0.45842  1.0000
  C   C20       1.0  0.42997  0.03398  0.95841  1.0000
  N   N1        1.0  0.97315  0.53437  0.80077  1.0000
  N   N2        1.0  0.02685  0.96563  0.30078  1.0000
  N   N3        1.0  0.02685  0.46562  0.19923  1.0000
  N   N4        1.0  0.97314  0.03438  0.69923  1.0000
  N   N5        1.0  0.00763  0.33336  0.88627  1.0000
  N   N6        1.0  0.99238  0.16664  0.38628  1.0000
  N   N7        1.0  0.99242  0.66665  0.11373  1.0000
  N   N8        1.0  0.00758  0.83336  0.61373  1.0000
  N   N9        1.0  0.26445  0.53013  0.92604  1.0000
  N   N10       1.0  0.73555  0.96986  0.42604  1.0000
  N   N11       1.0  0.73559  0.46988  0.07395  1.0000
  N   N12       1.0  0.26442  0.03012  0.57396  1.0000
  N   N13       1.0  0.71224  0.34844  0.77345  1.0000
  N   N14       1.0  0.28777  0.15156  0.27346  1.0000
  N   N15       1.0  0.28778  0.65154  0.22655  1.0000
  N   N16       1.0  0.71220  0.84846  0.72656  1.0000
  N   N17       1.0  0.31676  0.33240  0.99198  1.0000
  N   N18       1.0  0.68325  0.16760  0.49199  1.0000
  N   N19       1.0  0.68330  0.66761  0.00801  1.0000
  N   N20       1.0  0.31671  0.83238  0.50802  1.0000
  O   O1        1.0  0.50593  0.56764  0.63727  1.0000
  O   O2        1.0  0.49407  0.93236  0.13727  1.0000
  O   O3        1.0  0.49404  0.43240  0.36271  1.0000
  O   O4        1.0  0.50595  0.06759  0.86270  1.0000
  O   O5        1.0  0.24699  0.55101  0.50394  1.0000
  O   O6        1.0  0.75300  0.94899  0.00393  1.0000
  O   O7        1.0  0.75290  0.44895  0.49607  1.0000
  O   O8        1.0  0.24709  0.05104  0.99607  1.0000
