data_image0
_chemical_formula_structural       Cd4H50C32N22O4
_chemical_formula_sum              "Cd4 H50 C32 N22 O4"
_cell_length_a       10.3451
_cell_length_b       11.5884
_cell_length_c       11.965
_cell_angle_alpha    61.2607
_cell_angle_beta     75.8624
_cell_angle_gamma    66.3994

_space_group_name_H-M_alt    "P 1"
_space_group_IT_number       1

loop_
  _space_group_symop_operation_xyz
  'x, y, z'

loop_
  _atom_site_type_symbol
  _atom_site_label
  _atom_site_symmetry_multiplicity
  _atom_site_fract_x
  _atom_site_fract_y
  _atom_site_fract_z
  _atom_site_occupancy
  Cd  Cd1       1.0  0.56650  0.14349  0.35598  1.0000
  Cd  Cd2       1.0  0.43350  0.85652  0.64402  1.0000
  Cd  Cd3       1.0  0.42533  0.41083  0.46077  1.0000
  Cd  Cd4       1.0  0.57466  0.58918  0.53923  1.0000
  H   H1        1.0  0.94475  0.64375  0.26580  1.0000
  H   H2        1.0  0.05525  0.35625  0.73420  1.0000
  H   H3        1.0  0.90207  0.55050  0.13667  1.0000
  H   H4        1.0  0.09793  0.44949  0.86333  1.0000
  H   H5        1.0  0.09876  0.36733  0.08420  1.0000
  H   H6        1.0  0.90124  0.63267  0.91580  1.0000
  H   H7        1.0  0.31912  0.23657  0.07705  1.0000
  H   H8        1.0  0.68088  0.76343  0.92295  1.0000
  H   H9        1.0  0.50340  0.07540  0.06896  1.0000
  H   H10       1.0  0.49660  0.92460  0.93104  1.0000
  H   H11       1.0  0.59189  0.96583  0.21294  1.0000
  H   H12       1.0  0.40811  0.03417  0.78706  1.0000
  H   H13       1.0  0.83915  0.96526  0.21707  1.0000
  H   H14       1.0  0.16085  0.03474  0.78293  1.0000
  H   H15       1.0  0.90769  0.08811  0.08405  1.0000
  H   H16       1.0  0.09231  0.91189  0.91596  1.0000
  H   H17       1.0  0.04768  0.75957  0.31579  1.0000
  H   H18       1.0  0.95232  0.24043  0.68421  1.0000
  H   H19       1.0  0.99148  0.61970  0.43921  1.0000
  H   H20       1.0  0.00852  0.38030  0.56079  1.0000
  H   H21       1.0  0.15747  0.57479  0.58609  1.0000
  H   H22       1.0  0.84253  0.42521  0.41391  1.0000
  H   H23       1.0  0.04627  0.75094  0.52785  1.0000
  H   H24       1.0  0.95372  0.24907  0.47215  1.0000
  H   H25       1.0  0.22379  0.70820  0.46291  1.0000
  H   H26       1.0  0.77621  0.29180  0.53709  1.0000
  H   H27       1.0  0.71062  0.99384  0.94768  1.0000
  H   H28       1.0  0.28939  0.00616  0.05232  1.0000
  H   H29       1.0  0.79935  0.87889  0.09174  1.0000
  H   H30       1.0  0.20065  0.12111  0.90826  1.0000
  H   H31       1.0  0.87703  0.99551  0.95848  1.0000
  H   H32       1.0  0.12297  0.00449  0.04152  1.0000
  H   H33       1.0  0.59372  0.32594  0.96576  1.0000
  H   H34       1.0  0.40628  0.67406  0.03424  1.0000
  H   H35       1.0  0.62679  0.23614  0.87169  1.0000
  H   H36       1.0  0.37321  0.76386  0.12831  1.0000
  H   H37       1.0  0.76733  0.26714  0.90051  1.0000
  H   H38       1.0  0.23267  0.73286  0.09949  1.0000
  H   H39       1.0  0.99714  0.09965  0.24567  1.0000
  H   H40       1.0  0.00286  0.90035  0.75433  1.0000
  H   H41       1.0  0.90558  0.98772  0.36829  1.0000
  H   H42       1.0  0.09442  0.01228  0.63171  1.0000
  H   H43       1.0  0.87290  0.15515  0.35848  1.0000
  H   H44       1.0  0.12710  0.84484  0.64152  1.0000
  H   H45       1.0  0.75196  0.35635  0.19918  1.0000
  H   H46       1.0  0.24804  0.64365  0.80082  1.0000
  H   H47       1.0  0.66109  0.35929  0.08939  1.0000
  H   H48       1.0  0.33892  0.64071  0.91061  1.0000
  H   H49       1.0  0.84859  0.32086  0.06692  1.0000
  H   H50       1.0  0.15141  0.67914  0.93308  1.0000
  C   C1        1.0  0.28072  0.41150  0.25763  1.0000
  C   C2        1.0  0.71928  0.58850  0.74237  1.0000
  C   C3        1.0  0.16475  0.51557  0.28631  1.0000
  C   C4        1.0  0.83524  0.48443  0.71369  1.0000
  C   C5        1.0  0.03174  0.56482  0.24263  1.0000
  C   C6        1.0  0.96825  0.43518  0.75737  1.0000
  C   C7        1.0  0.00741  0.51165  0.16892  1.0000
  C   C8        1.0  0.99259  0.48834  0.83108  1.0000
  C   C9        1.0  0.11637  0.41009  0.14069  1.0000
  C   C10       1.0  0.88363  0.58991  0.85931  1.0000
  C   C11       1.0  0.25300  0.35732  0.18436  1.0000
  C   C12       1.0  0.74699  0.64268  0.81564  1.0000
  C   C13       1.0  0.35489  0.25034  0.14787  1.0000
  C   C14       1.0  0.64511  0.74966  0.85213  1.0000
  C   C15       1.0  0.56500  0.07205  0.13461  1.0000
  C   C16       1.0  0.43500  0.92795  0.86539  1.0000
  C   C17       1.0  0.70332  0.09840  0.06097  1.0000
  C   C18       1.0  0.29669  0.90160  0.93903  1.0000
  C   C19       1.0  0.81082  0.07522  0.14620  1.0000
  C   C20       1.0  0.18918  0.92478  0.85380  1.0000
  C   C21       1.0  0.08108  0.65915  0.40052  1.0000
  C   C22       1.0  0.91891  0.34085  0.59948  1.0000
  C   C23       1.0  0.13150  0.67355  0.49970  1.0000
  C   C24       1.0  0.86850  0.32645  0.50030  1.0000
  C   C25       1.0  0.77700  0.98422  0.01269  1.0000
  C   C26       1.0  0.22300  0.01578  0.98731  1.0000
  C   C27       1.0  0.67069  0.24042  0.94379  1.0000
  C   C28       1.0  0.32931  0.75958  0.05621  1.0000
  C   C29       1.0  0.89572  0.09658  0.30224  1.0000
  C   C30       1.0  0.10428  0.90342  0.69776  1.0000
  C   C31       1.0  0.75897  0.30673  0.13858  1.0000
  C   C32       1.0  0.24103  0.69327  0.86142  1.0000
  N   N1        1.0  0.47980  0.17093  0.18788  1.0000
  N   N2        1.0  0.52020  0.82907  0.81212  1.0000
  N   N3        1.0  0.77761  0.15759  0.22009  1.0000
  N   N4        1.0  0.22239  0.84241  0.77991  1.0000
  N   N5        1.0  0.66083  0.90464  0.47969  1.0000
  N   N6        1.0  0.33917  0.09536  0.52031  1.0000
  N   N7        1.0  0.69535  0.81959  0.43944  1.0000
  N   N8        1.0  0.30465  0.18041  0.56056  1.0000
  N   N9        1.0  0.72803  0.73186  0.40410  1.0000
  N   N10       1.0  0.27197  0.26814  0.59590  1.0000
  N   N11       1.0  0.61238  0.20034  0.49518  1.0000
  N   N12       1.0  0.38762  0.79967  0.50482  1.0000
  N   N13       1.0  0.66323  0.11869  0.59734  1.0000
  N   N14       1.0  0.33677  0.88131  0.40266  1.0000
  N   N15       1.0  0.71487  0.04353  0.69443  1.0000
  N   N16       1.0  0.28513  0.95648  0.30557  1.0000
  N   N17       1.0  0.54078  0.57251  0.36692  1.0000
  N   N18       1.0  0.45922  0.42749  0.63307  1.0000
  N   N19       1.0  0.60097  0.61622  0.26277  1.0000
  N   N20       1.0  0.39903  0.38378  0.73723  1.0000
  N   N21       1.0  0.65797  0.65965  0.16264  1.0000
  N   N22       1.0  0.34203  0.34035  0.83736  1.0000
  O   O1        1.0  0.40651  0.37195  0.29750  1.0000
  O   O2        1.0  0.59349  0.62805  0.70250  1.0000
  O   O3        1.0  0.19671  0.56247  0.35936  1.0000
  O   O4        1.0  0.80329  0.43753  0.64064  1.0000
