data_image0
_chemical_formula_structural       Mg2H36C28O12
_chemical_formula_sum              "Mg2 H36 C28 O12"
_cell_length_a       7.93176
_cell_length_b       8.13825
_cell_length_c       12.1165
_cell_angle_alpha    90.0001
_cell_angle_beta     89.9993
_cell_angle_gamma    106.522

_space_group_name_H-M_alt    "P 1"
_space_group_IT_number       1

loop_
  _space_group_symop_operation_xyz
  'x, y, z'

loop_
  _atom_site_type_symbol
  _atom_site_label
  _atom_site_symmetry_multiplicity
  _atom_site_fract_x
  _atom_site_fract_y
  _atom_site_fract_z
  _atom_site_occupancy
  Mg  Mg1       1.0  1.00000  0.50000  0.50000  1.0000
  Mg  Mg2       1.0  1.00000  1.00000  1.00000  1.0000
  H   H1        1.0  0.41471  0.15377  0.36516  1.0000
  H   H2        1.0  0.58530  0.34623  0.86517  1.0000
  H   H3        1.0  0.58529  0.84623  0.63484  1.0000
  H   H4        1.0  0.41471  0.65378  0.13484  1.0000
  H   H5        1.0  0.51639  0.36122  0.42360  1.0000
  H   H6        1.0  0.48360  0.13878  0.92360  1.0000
  H   H7        1.0  0.48360  0.63878  0.57640  1.0000
  H   H8        1.0  0.51640  0.86123  0.07640  1.0000
  H   H9        1.0  0.40174  0.19119  0.50879  1.0000
  H   H10       1.0  0.59827  0.30881  0.00879  1.0000
  H   H11       1.0  0.59827  0.80881  0.49121  1.0000
  H   H12       1.0  0.40174  0.69120  0.99121  1.0000
  H   H13       1.0  0.81075  0.92435  0.30210  1.0000
  H   H14       1.0  0.18924  0.57565  0.80210  1.0000
  H   H15       1.0  0.18925  0.07566  0.69790  1.0000
  H   H16       1.0  0.81076  0.42434  0.19790  1.0000
  H   H17       1.0  0.75363  0.08260  0.22501  1.0000
  H   H18       1.0  0.24637  0.41740  0.72502  1.0000
  H   H19       1.0  0.24637  0.91740  0.77498  1.0000
  H   H20       1.0  0.75363  0.58260  0.27498  1.0000
  H   H21       1.0  0.65405  0.02562  0.35816  1.0000
  H   H22       1.0  0.34595  0.47437  0.85816  1.0000
  H   H23       1.0  0.34595  0.97438  0.64184  1.0000
  H   H24       1.0  0.65405  0.52562  0.14184  1.0000
  H   H25       1.0  0.41094  0.35961  0.23406  1.0000
  H   H26       1.0  0.58906  0.14039  0.73406  1.0000
  H   H27       1.0  0.58905  0.64039  0.76594  1.0000
  H   H28       1.0  0.41095  0.85960  0.26594  1.0000
  H   H29       1.0  0.40009  0.16017  0.16906  1.0000
  H   H30       1.0  0.59992  0.33984  0.66906  1.0000
  H   H31       1.0  0.59991  0.83984  0.83094  1.0000
  H   H32       1.0  0.40008  0.66016  0.33094  1.0000
  H   H33       1.0  0.31169  0.30786  0.10079  1.0000
  H   H34       1.0  0.68831  0.19214  0.60080  1.0000
  H   H35       1.0  0.68831  0.69215  0.89921  1.0000
  H   H36       1.0  0.31169  0.80785  0.39920  1.0000
  C   C1        1.0  0.40129  0.24759  0.42644  1.0000
  C   C2        1.0  0.59870  0.25242  0.92645  1.0000
  C   C3        1.0  0.59870  0.75241  0.57356  1.0000
  C   C4        1.0  0.40131  0.74760  0.07356  1.0000
  C   C5        1.0  0.23176  0.29681  0.41852  1.0000
  C   C6        1.0  0.76823  0.20318  0.91852  1.0000
  C   C7        1.0  0.76823  0.70319  0.58149  1.0000
  C   C8        1.0  0.23177  0.79682  0.08148  1.0000
  C   C9        1.0  0.09969  0.21651  0.33701  1.0000
  C   C10       1.0  0.90031  0.28348  0.83701  1.0000
  C   C11       1.0  0.90031  0.78348  0.66299  1.0000
  C   C12       1.0  0.09969  0.71652  0.16299  1.0000
  C   C13       1.0  0.91534  0.18305  0.36599  1.0000
  C   C14       1.0  0.08465  0.31695  0.86599  1.0000
  C   C15       1.0  0.08465  0.81695  0.63401  1.0000
  C   C16       1.0  0.91535  0.68305  0.13401  1.0000
  C   C17       1.0  0.77476  0.04429  0.30982  1.0000
  C   C18       1.0  0.22524  0.45571  0.80982  1.0000
  C   C19       1.0  0.22523  0.95571  0.69017  1.0000
  C   C20       1.0  0.77477  0.54428  0.19018  1.0000
  C   C21       1.0  0.14819  0.17349  0.22838  1.0000
  C   C22       1.0  0.85182  0.32652  0.72838  1.0000
  C   C23       1.0  0.85181  0.82651  0.77161  1.0000
  C   C24       1.0  0.14818  0.67348  0.27162  1.0000
  C   C25       1.0  0.32988  0.25713  0.18260  1.0000
  C   C26       1.0  0.67011  0.24287  0.68260  1.0000
  C   C27       1.0  0.67012  0.74288  0.81740  1.0000
  C   C28       1.0  0.32989  0.75712  0.31740  1.0000
  O   O1        1.0  0.20819  0.39593  0.49345  1.0000
  O   O2        1.0  0.79179  0.10405  0.99344  1.0000
  O   O3        1.0  0.79179  0.60405  0.50656  1.0000
  O   O4        1.0  0.20821  0.89594  0.00656  1.0000
  O   O5        1.0  0.86299  0.26446  0.44114  1.0000
  O   O6        1.0  0.13700  0.23553  0.94114  1.0000
  O   O7        1.0  0.13700  0.73554  0.55885  1.0000
  O   O8        1.0  0.86300  0.76445  0.05885  1.0000
  O   O9        1.0  0.03854  0.08024  0.16283  1.0000
  O   O10       1.0  0.96146  0.41976  0.66283  1.0000
  O   O11       1.0  0.96146  0.91976  0.83717  1.0000
  O   O12       1.0  0.03855  0.58025  0.33717  1.0000
