data_image0
_chemical_formula_structural       Ag2H38C48N4O8
_chemical_formula_sum              "Ag2 H38 C48 N4 O8"
_cell_length_a       9.69572
_cell_length_b       9.58463
_cell_length_c       12.0465
_cell_angle_alpha    102.911
_cell_angle_beta     103.171
_cell_angle_gamma    108.649

_space_group_name_H-M_alt    "P 1"
_space_group_IT_number       1

loop_
  _space_group_symop_operation_xyz
  'x, y, z'

loop_
  _atom_site_type_symbol
  _atom_site_label
  _atom_site_symmetry_multiplicity
  _atom_site_fract_x
  _atom_site_fract_y
  _atom_site_fract_z
  _atom_site_occupancy
  Ag  Ag1       1.0  0.71944  0.02859  0.57261  1.0000
  Ag  Ag2       1.0  0.28056  0.97141  0.42739  1.0000
  H   H1        1.0  0.34471  0.18874  0.27498  1.0000
  H   H2        1.0  0.65529  0.81127  0.72502  1.0000
  H   H3        1.0  0.85463  0.35607  0.51592  1.0000
  H   H4        1.0  0.14537  0.64393  0.48408  1.0000
  H   H5        1.0  0.11422  0.40178  0.49493  1.0000
  H   H6        1.0  0.88578  0.59822  0.50507  1.0000
  H   H7        1.0  0.50129  0.97187  0.14710  1.0000
  H   H8        1.0  0.49871  0.02813  0.85290  1.0000
  H   H9        1.0  0.52470  0.80832  0.96734  1.0000
  H   H10       1.0  0.47531  0.19168  0.03266  1.0000
  H   H11       1.0  0.78241  0.84818  0.94675  1.0000
  H   H12       1.0  0.21759  0.15183  0.05324  1.0000
  H   H13       1.0  0.01671  0.04612  0.10682  1.0000
  H   H14       1.0  0.98329  0.95388  0.89318  1.0000
  H   H15       1.0  0.69985  0.34470  0.64566  1.0000
  H   H16       1.0  0.30015  0.65529  0.35435  1.0000
  H   H17       1.0  0.69748  0.53145  0.82201  1.0000
  H   H18       1.0  0.30252  0.46855  0.17799  1.0000
  H   H19       1.0  0.82820  0.25990  0.03720  1.0000
  H   H20       1.0  0.17180  0.74010  0.96281  1.0000
  H   H21       1.0  0.82644  0.08431  0.85129  1.0000
  H   H22       1.0  0.17356  0.91569  0.14872  1.0000
  H   H23       1.0  0.83472  0.64334  0.06282  1.0000
  H   H24       1.0  0.16528  0.35667  0.93718  1.0000
  H   H25       1.0  0.63947  0.53117  0.02608  1.0000
  H   H26       1.0  0.36053  0.46883  0.97392  1.0000
  H   H27       1.0  0.90265  0.49893  0.20277  1.0000
  H   H28       1.0  0.09735  0.50107  0.79723  1.0000
  H   H29       1.0  0.70552  0.38049  0.16539  1.0000
  H   H30       1.0  0.29448  0.61951  0.83461  1.0000
  H   H31       1.0  0.57388  0.46330  0.29770  1.0000
  H   H32       1.0  0.42611  0.53669  0.70229  1.0000
  H   H33       1.0  0.55285  0.67607  0.44561  1.0000
  H   H34       1.0  0.44715  0.32393  0.55439  1.0000
  H   H35       1.0  0.92150  0.00914  0.40934  1.0000
  H   H36       1.0  0.07850  0.99087  0.59067  1.0000
  H   H37       1.0  0.95945  0.81231  0.26232  1.0000
  H   H38       1.0  0.04055  0.18769  0.73768  1.0000
  C   C1        1.0  0.73387  0.19213  0.33895  1.0000
  C   C2        1.0  0.26613  0.80787  0.66104  1.0000
  C   C3        1.0  0.86553  0.29301  0.43328  1.0000
  C   C4        1.0  0.13447  0.70698  0.56671  1.0000
  C   C5        1.0  0.01162  0.31861  0.42161  1.0000
  C   C6        1.0  0.98838  0.68139  0.57839  1.0000
  C   C7        1.0  0.02998  0.23831  0.31872  1.0000
  C   C8        1.0  0.97003  0.76169  0.68128  1.0000
  C   C9        1.0  0.89679  0.12433  0.22204  1.0000
  C   C10       1.0  0.10322  0.87567  0.77796  1.0000
  C   C11       1.0  0.74648  0.10284  0.23246  1.0000
  C   C12       1.0  0.25351  0.89716  0.76754  1.0000
  C   C13       1.0  0.61419  0.98683  0.13897  1.0000
  C   C14       1.0  0.38581  0.01316  0.86103  1.0000
  C   C15       1.0  0.62704  0.89561  0.03907  1.0000
  C   C16       1.0  0.37297  0.10439  0.96093  1.0000
  C   C17       1.0  0.77340  0.91845  0.02734  1.0000
  C   C18       1.0  0.22661  0.08155  0.97266  1.0000
  C   C19       1.0  0.90443  0.03022  0.11599  1.0000
  C   C20       1.0  0.09557  0.96978  0.88401  1.0000
  C   C21       1.0  0.58065  0.18090  0.35338  1.0000
  C   C22       1.0  0.41935  0.81910  0.64662  1.0000
  C   C23       1.0  0.19359  0.27812  0.32065  1.0000
  C   C24       1.0  0.80641  0.72189  0.67935  1.0000
  C   C25       1.0  0.72885  0.33011  0.73393  1.0000
  C   C26       1.0  0.27115  0.66989  0.26607  1.0000
  C   C27       1.0  0.72783  0.43442  0.83387  1.0000
  C   C28       1.0  0.27217  0.56558  0.16614  1.0000
  C   C29       1.0  0.76196  0.41308  0.94680  1.0000
  C   C30       1.0  0.23804  0.58692  0.05320  1.0000
  C   C31       1.0  0.80004  0.28540  0.95311  1.0000
  C   C32       1.0  0.19996  0.71460  0.04690  1.0000
  C   C33       1.0  0.79934  0.18561  0.84904  1.0000
  C   C34       1.0  0.20066  0.81439  0.15096  1.0000
  C   C35       1.0  0.75411  0.52611  0.05174  1.0000
  C   C36       1.0  0.24589  0.47389  0.94826  1.0000
  C   C37       1.0  0.78519  0.49618  0.17306  1.0000
  C   C38       1.0  0.21480  0.50382  0.82694  1.0000
  C   C39       1.0  0.76847  0.61871  0.26572  1.0000
  C   C40       1.0  0.23152  0.38129  0.73428  1.0000
  C   C41       1.0  0.65291  0.58314  0.31862  1.0000
  C   C42       1.0  0.34709  0.41686  0.68138  1.0000
  C   C43       1.0  0.64034  0.70146  0.40186  1.0000
  C   C44       1.0  0.35966  0.29853  0.59814  1.0000
  C   C45       1.0  0.84643  0.88695  0.38225  1.0000
  C   C46       1.0  0.15356  0.11305  0.61775  1.0000
  C   C47       1.0  0.86654  0.77545  0.29943  1.0000
  C   C48       1.0  0.13346  0.22456  0.70057  1.0000
  N   N1        1.0  0.76289  0.20545  0.74025  1.0000
  N   N2        1.0  0.23711  0.79455  0.25976  1.0000
  N   N3        1.0  0.73564  0.85186  0.43388  1.0000
  N   N4        1.0  0.26436  0.14813  0.56612  1.0000
  O   O1        1.0  0.55549  0.15806  0.44727  1.0000
  O   O2        1.0  0.44451  0.84194  0.55273  1.0000
  O   O3        1.0  0.48854  0.20011  0.26835  1.0000
  O   O4        1.0  0.51146  0.79989  0.73165  1.0000
  O   O5        1.0  0.29260  0.41089  0.37458  1.0000
  O   O6        1.0  0.70741  0.58912  0.62543  1.0000
  O   O7        1.0  0.22260  0.16048  0.26427  1.0000
  O   O8        1.0  0.77740  0.83952  0.73574  1.0000
