data_image0
_chemical_formula_structural       Cd4H48C72N4O16
_chemical_formula_sum              "Cd4 H48 C72 N4 O16"
_cell_length_a       11.2961
_cell_length_b       11.2959
_cell_length_c       13.476
_cell_angle_alpha    108.035
_cell_angle_beta     108.035
_cell_angle_gamma    91.4818

_space_group_name_H-M_alt    "P 1"
_space_group_IT_number       1

loop_
  _space_group_symop_operation_xyz
  'x, y, z'

loop_
  _atom_site_type_symbol
  _atom_site_label
  _atom_site_symmetry_multiplicity
  _atom_site_fract_x
  _atom_site_fract_y
  _atom_site_fract_z
  _atom_site_occupancy
  Cd  Cd1       1.0  0.57036  0.52214  0.89494  1.0000
  Cd  Cd2       1.0  0.47786  0.42965  0.60506  1.0000
  Cd  Cd3       1.0  0.42964  0.47786  0.10506  1.0000
  Cd  Cd4       1.0  0.52214  0.57035  0.39494  1.0000
  H   H1        1.0  0.19765  0.64057  0.95639  1.0000
  H   H2        1.0  0.35942  0.80235  0.54360  1.0000
  H   H3        1.0  0.80235  0.35943  0.04361  1.0000
  H   H4        1.0  0.64058  0.19765  0.45640  1.0000
  H   H5        1.0  0.96827  0.63545  0.93260  1.0000
  H   H6        1.0  0.36454  0.03173  0.56739  1.0000
  H   H7        1.0  0.03173  0.36455  0.06740  1.0000
  H   H8        1.0  0.63546  0.96827  0.43261  1.0000
  H   H9        1.0  0.22180  0.28092  0.66312  1.0000
  H   H10       1.0  0.71908  0.77820  0.83689  1.0000
  H   H11       1.0  0.77820  0.71908  0.33688  1.0000
  H   H12       1.0  0.28092  0.22180  0.16311  1.0000
  H   H13       1.0  0.07063  0.09807  0.52669  1.0000
  H   H14       1.0  0.90194  0.92937  0.97332  1.0000
  H   H15       1.0  0.92937  0.90193  0.47331  1.0000
  H   H16       1.0  0.09806  0.07063  0.02668  1.0000
  H   H17       1.0  0.84463  0.08391  0.51401  1.0000
  H   H18       1.0  0.91610  0.15537  0.98600  1.0000
  H   H19       1.0  0.15537  0.91609  0.48599  1.0000
  H   H20       1.0  0.08390  0.84463  0.01400  1.0000
  H   H21       1.0  0.77023  0.25730  0.63393  1.0000
  H   H22       1.0  0.74270  0.22976  0.86607  1.0000
  H   H23       1.0  0.22977  0.74270  0.36607  1.0000
  H   H24       1.0  0.25730  0.77023  0.13393  1.0000
  H   H25       1.0  0.48462  0.79828  0.00296  1.0000
  H   H26       1.0  0.20171  0.51538  0.49704  1.0000
  H   H27       1.0  0.51538  0.20171  0.99704  1.0000
  H   H28       1.0  0.79828  0.48462  0.50296  1.0000
  H   H29       1.0  0.58003  0.01025  0.14202  1.0000
  H   H30       1.0  0.98975  0.41996  0.35797  1.0000
  H   H31       1.0  0.41997  0.98976  0.85797  1.0000
  H   H32       1.0  0.01025  0.58004  0.64203  1.0000
  H   H33       1.0  0.94174  0.87646  0.18865  1.0000
  H   H34       1.0  0.12355  0.05827  0.31136  1.0000
  H   H35       1.0  0.05826  0.12354  0.81135  1.0000
  H   H36       1.0  0.87645  0.94174  0.68865  1.0000
  H   H37       1.0  0.83156  0.67278  0.04420  1.0000
  H   H38       1.0  0.32723  0.16845  0.45580  1.0000
  H   H39       1.0  0.16844  0.32722  0.95580  1.0000
  H   H40       1.0  0.67277  0.83155  0.54420  1.0000
  H   H41       1.0  0.89623  0.06090  0.33840  1.0000
  H   H42       1.0  0.93910  0.10377  0.16160  1.0000
  H   H43       1.0  0.10377  0.93910  0.66160  1.0000
  H   H44       1.0  0.06090  0.89623  0.83840  1.0000
  H   H45       1.0  0.76574  0.13849  0.29712  1.0000
  H   H46       1.0  0.86149  0.23425  0.20287  1.0000
  H   H47       1.0  0.23426  0.86151  0.70288  1.0000
  H   H48       1.0  0.13851  0.76575  0.79713  1.0000
  C   C1        1.0  0.17070  0.47742  0.81521  1.0000
  C   C2        1.0  0.52257  0.82930  0.68479  1.0000
  C   C3        1.0  0.82930  0.52258  0.18479  1.0000
  C   C4        1.0  0.47743  0.17070  0.31521  1.0000
  C   C5        1.0  0.12891  0.56681  0.88874  1.0000
  C   C6        1.0  0.43318  0.87109  0.61125  1.0000
  C   C7        1.0  0.87109  0.43319  0.11126  1.0000
  C   C8        1.0  0.56682  0.12891  0.38875  1.0000
  C   C9        1.0  0.00067  0.56330  0.87579  1.0000
  C   C10       1.0  0.43669  0.99933  0.62420  1.0000
  C   C11       1.0  0.99933  0.43670  0.12421  1.0000
  C   C12       1.0  0.56331  0.00067  0.37580  1.0000
  C   C13       1.0  0.91287  0.46885  0.79103  1.0000
  C   C14       1.0  0.53114  0.08712  0.70897  1.0000
  C   C15       1.0  0.08713  0.53115  0.20897  1.0000
  C   C16       1.0  0.46886  0.91288  0.29103  1.0000
  C   C17       1.0  0.95311  0.36956  0.71856  1.0000
  C   C18       1.0  0.63044  0.04689  0.78144  1.0000
  C   C19       1.0  0.04689  0.63044  0.28144  1.0000
  C   C20       1.0  0.36956  0.95311  0.21856  1.0000
  C   C21       1.0  0.08406  0.37534  0.72871  1.0000
  C   C22       1.0  0.62467  0.91593  0.77128  1.0000
  C   C23       1.0  0.91594  0.62466  0.27129  1.0000
  C   C24       1.0  0.37533  0.08407  0.22872  1.0000
  C   C25       1.0  0.12329  0.27544  0.65684  1.0000
  C   C26       1.0  0.72456  0.87671  0.84316  1.0000
  C   C27       1.0  0.87671  0.72456  0.34315  1.0000
  C   C28       1.0  0.27544  0.12329  0.15684  1.0000
  C   C29       1.0  0.03846  0.17341  0.58101  1.0000
  C   C30       1.0  0.82659  0.96154  0.91899  1.0000
  C   C31       1.0  0.96154  0.82659  0.41899  1.0000
  C   C32       1.0  0.17341  0.03846  0.08101  1.0000
  C   C33       1.0  0.91074  0.16586  0.57337  1.0000
  C   C34       1.0  0.83415  0.08926  0.92663  1.0000
  C   C35       1.0  0.08926  0.83414  0.42663  1.0000
  C   C36       1.0  0.16586  0.91074  0.07337  1.0000
  C   C37       1.0  0.86873  0.26199  0.64008  1.0000
  C   C38       1.0  0.73801  0.13126  0.85992  1.0000
  C   C39       1.0  0.13127  0.73800  0.35992  1.0000
  C   C40       1.0  0.26199  0.86873  0.14008  1.0000
  C   C41       1.0  0.30795  0.49193  0.83164  1.0000
  C   C42       1.0  0.50807  0.69205  0.66836  1.0000
  C   C43       1.0  0.69204  0.50807  0.16835  1.0000
  C   C44       1.0  0.49193  0.30795  0.33164  1.0000
  C   C45       1.0  0.77650  0.47641  0.77913  1.0000
  C   C46       1.0  0.52359  0.22349  0.72087  1.0000
  C   C47       1.0  0.22350  0.52359  0.22088  1.0000
  C   C48       1.0  0.47641  0.77651  0.27913  1.0000
  C   C49       1.0  0.58599  0.82057  0.04465  1.0000
  C   C50       1.0  0.17943  0.41401  0.45535  1.0000
  C   C51       1.0  0.41401  0.17943  0.95536  1.0000
  C   C52       1.0  0.82057  0.58599  0.54465  1.0000
  C   C53       1.0  0.64001  0.93849  0.12280  1.0000
  C   C54       1.0  0.06151  0.35999  0.37720  1.0000
  C   C55       1.0  0.35999  0.06152  0.87721  1.0000
  C   C56       1.0  0.93849  0.64001  0.62280  1.0000
  C   C57       1.0  0.76987  0.96206  0.17794  1.0000
  C   C58       1.0  0.03794  0.23013  0.32206  1.0000
  C   C59       1.0  0.23013  0.03794  0.82206  1.0000
  C   C60       1.0  0.96206  0.76987  0.67794  1.0000
  C   C61       1.0  0.84009  0.86473  0.14832  1.0000
  C   C62       1.0  0.13527  0.15991  0.35168  1.0000
  C   C63       1.0  0.15991  0.13527  0.85168  1.0000
  C   C64       1.0  0.86473  0.84009  0.64832  1.0000
  C   C65       1.0  0.77979  0.75046  0.06877  1.0000
  C   C66       1.0  0.24955  0.22021  0.43123  1.0000
  C   C67       1.0  0.22021  0.24954  0.93123  1.0000
  C   C68       1.0  0.75045  0.77979  0.56877  1.0000
  C   C69       1.0  0.83468  0.08404  0.26778  1.0000
  C   C70       1.0  0.91595  0.16531  0.23222  1.0000
  C   C71       1.0  0.16532  0.91596  0.73222  1.0000
  C   C72       1.0  0.08405  0.83468  0.76778  1.0000
  N   N1        1.0  0.65427  0.72765  0.01806  1.0000
  N   N2        1.0  0.27235  0.34573  0.48194  1.0000
  N   N3        1.0  0.34573  0.27235  0.98194  1.0000
  N   N4        1.0  0.72766  0.65427  0.51806  1.0000
  O   O1        1.0  0.38438  0.53270  0.93270  1.0000
  O   O2        1.0  0.46729  0.61562  0.56730  1.0000
  O   O3        1.0  0.61562  0.46730  0.06730  1.0000
  O   O4        1.0  0.53271  0.38438  0.43270  1.0000
  O   O5        1.0  0.34583  0.46865  0.74977  1.0000
  O   O6        1.0  0.53135  0.65418  0.75023  1.0000
  O   O7        1.0  0.65417  0.53135  0.25023  1.0000
  O   O8        1.0  0.46865  0.34582  0.24977  1.0000
  O   O9        1.0  0.69741  0.44730  0.68260  1.0000
  O   O10       1.0  0.55270  0.30258  0.81741  1.0000
  O   O11       1.0  0.30259  0.55270  0.31740  1.0000
  O   O12       1.0  0.44730  0.69742  0.18259  1.0000
  O   O13       1.0  0.75589  0.51590  0.87105  1.0000
  O   O14       1.0  0.48410  0.24411  0.62894  1.0000
  O   O15       1.0  0.24411  0.48410  0.12895  1.0000
  O   O16       1.0  0.51590  0.75589  0.37106  1.0000
