data_image0
_chemical_formula_structural       Sn4P2H6C6O14
_chemical_formula_sum              "Sn4 P2 H6 C6 O14"
_cell_length_a       4.7345
_cell_length_b       6.10496
_cell_length_c       15.0948
_cell_angle_alpha    89.9985
_cell_angle_beta     89.9994
_cell_angle_gamma    99.6514

_space_group_name_H-M_alt    "P 1"
_space_group_IT_number       1

loop_
  _space_group_symop_operation_xyz
  'x, y, z'

loop_
  _atom_site_type_symbol
  _atom_site_label
  _atom_site_symmetry_multiplicity
  _atom_site_fract_x
  _atom_site_fract_y
  _atom_site_fract_z
  _atom_site_occupancy
  Sn  Sn1       1.0  0.20279  0.10267  0.60417  1.0000
  Sn  Sn2       1.0  0.79724  0.89721  0.10416  1.0000
  Sn  Sn3       1.0  0.79722  0.89720  0.39582  1.0000
  Sn  Sn4       1.0  0.20277  0.10278  0.89581  1.0000
  P   P1        1.0  0.76123  0.27589  0.75000  1.0000
  P   P2        1.0  0.23878  0.72410  0.25000  1.0000
  H   H1        1.0  0.87318  0.64431  0.80937  1.0000
  H   H2        1.0  0.12680  0.35569  0.30936  1.0000
  H   H3        1.0  0.12681  0.35570  0.19064  1.0000
  H   H4        1.0  0.87320  0.64433  0.69065  1.0000
  H   H5        1.0  0.53995  0.60044  0.75001  1.0000
  H   H6        1.0  0.46005  0.39957  0.25000  1.0000
  C   C1        1.0  0.76198  0.57039  0.75001  1.0000
  C   C2        1.0  0.23803  0.42962  0.25001  1.0000
  C   C3        1.0  0.42497  0.57394  0.53110  1.0000
  C   C4        1.0  0.57504  0.42608  0.03110  1.0000
  C   C5        1.0  0.57496  0.42605  0.46890  1.0000
  C   C6        1.0  0.42504  0.57398  0.96889  1.0000
  O   O1        1.0  0.61787  0.17469  0.83604  1.0000
  O   O2        1.0  0.38212  0.82527  0.33604  1.0000
  O   O3        1.0  0.38217  0.82528  0.16396  1.0000
  O   O4        1.0  0.61784  0.17474  0.66397  1.0000
  O   O5        1.0  0.07439  0.22840  0.74999  1.0000
  O   O6        1.0  0.92558  0.77156  0.25000  1.0000
  O   O7        1.0  0.49996  0.78149  0.52401  1.0000
  O   O8        1.0  0.50003  0.21855  0.02401  1.0000
  O   O9        1.0  0.49994  0.21853  0.47599  1.0000
  O   O10       1.0  0.50003  0.78150  0.97599  1.0000
  O   O11       1.0  0.23778  0.47814  0.58496  1.0000
  O   O12       1.0  0.76224  0.52187  0.08495  1.0000
  O   O13       1.0  0.76214  0.52184  0.41504  1.0000
  O   O14       1.0  0.23788  0.47821  0.91503  1.0000
