data_image0
_chemical_formula_structural       Ag8H24C42N8O24
_chemical_formula_sum              "Ag8 H24 C42 N8 O24"
_cell_length_a       8.05286
_cell_length_b       11.709
_cell_length_c       14.4523
_cell_angle_alpha    65.9973
_cell_angle_beta     76.0585
_cell_angle_gamma    87.3035

_space_group_name_H-M_alt    "P 1"
_space_group_IT_number       1

loop_
  _space_group_symop_operation_xyz
  'x, y, z'

loop_
  _atom_site_type_symbol
  _atom_site_label
  _atom_site_symmetry_multiplicity
  _atom_site_fract_x
  _atom_site_fract_y
  _atom_site_fract_z
  _atom_site_occupancy
  Ag  Ag1       1.0  0.59896  0.94906  0.57278  1.0000
  Ag  Ag2       1.0  0.40104  0.05094  0.42722  1.0000
  Ag  Ag3       1.0  0.00145  0.13764  0.39528  1.0000
  Ag  Ag4       1.0  0.99855  0.86236  0.60472  1.0000
  Ag  Ag5       1.0  0.62396  0.21581  0.51409  1.0000
  Ag  Ag6       1.0  0.37604  0.78419  0.48591  1.0000
  Ag  Ag7       1.0  0.05035  0.37626  0.38833  1.0000
  Ag  Ag8       1.0  0.94965  0.62374  0.61167  1.0000
  H   H1        1.0  0.42576  0.43987  0.38771  1.0000
  H   H2        1.0  0.57424  0.56012  0.61229  1.0000
  H   H3        1.0  0.36443  0.24832  0.70776  1.0000
  H   H4        1.0  0.63557  0.75168  0.29224  1.0000
  H   H5        1.0  0.19997  0.58811  0.41953  1.0000
  H   H6        1.0  0.80004  0.41189  0.58047  1.0000
  H   H7        1.0  0.69382  0.96010  0.97772  1.0000
  H   H8        1.0  0.30618  0.03989  0.02228  1.0000
  H   H9        1.0  0.96845  0.86447  0.01331  1.0000
  H   H10       1.0  0.03155  0.13553  0.98669  1.0000
  H   H11       1.0  0.63910  0.38301  0.89389  1.0000
  H   H12       1.0  0.36090  0.61699  0.10611  1.0000
  H   H13       1.0  0.22429  0.90217  0.86379  1.0000
  H   H14       1.0  0.77571  0.09783  0.13621  1.0000
  H   H15       1.0  0.05252  0.46354  0.77411  1.0000
  H   H16       1.0  0.94748  0.53646  0.22589  1.0000
  H   H17       1.0  0.16497  0.32618  0.82794  1.0000
  H   H18       1.0  0.83503  0.67382  0.17206  1.0000
  H   H19       1.0  0.97402  0.31583  0.78855  1.0000
  H   H20       1.0  0.02597  0.68417  0.21144  1.0000
  H   H21       1.0  0.91828  0.40762  0.93461  1.0000
  H   H22       1.0  0.08172  0.59238  0.06539  1.0000
  H   H23       1.0  0.92030  0.36551  0.11767  1.0000
  H   H24       1.0  0.07969  0.63449  0.88233  1.0000
  C   C1        1.0  0.36065  0.43005  0.46617  1.0000
  C   C2        1.0  0.63934  0.56995  0.53383  1.0000
  C   C3        1.0  0.19135  0.39787  0.66201  1.0000
  C   C4        1.0  0.80865  0.60214  0.33799  1.0000
  C   C5        1.0  0.32398  0.32239  0.64339  1.0000
  C   C6        1.0  0.67601  0.67761  0.35661  1.0000
  C   C7        1.0  0.23392  0.50916  0.48367  1.0000
  C   C8        1.0  0.76608  0.49084  0.51633  1.0000
  C   C9        1.0  0.93469  0.15154  0.61469  1.0000
  C   C10       1.0  0.06531  0.84846  0.38531  1.0000
  C   C11       1.0  0.94016  0.06925  0.72601  1.0000
  C   C12       1.0  0.05984  0.93075  0.27399  1.0000
  C   C13       1.0  0.80035  0.04838  0.81179  1.0000
  C   C14       1.0  0.19965  0.95163  0.18821  1.0000
  C   C15       1.0  0.09247  0.01185  0.74726  1.0000
  C   C16       1.0  0.90753  0.98815  0.25275  1.0000
  C   C17       1.0  0.64990  0.32862  0.17641  1.0000
  C   C18       1.0  0.35010  0.67138  0.82359  1.0000
  C   C19       1.0  0.24331  0.01686  0.66066  1.0000
  C   C20       1.0  0.75669  0.98314  0.33934  1.0000
  C   C21       1.0  0.67002  0.29847  0.28474  1.0000
  C   C22       1.0  0.32998  0.70153  0.71526  1.0000
  C   C23       1.0  0.32408  0.29644  0.23797  1.0000
  C   C24       1.0  0.67592  0.70356  0.76203  1.0000
  C   C25       1.0  0.80711  0.97387  0.91453  1.0000
  C   C26       1.0  0.19289  0.02613  0.08547  1.0000
  C   C27       1.0  0.96040  0.92132  0.93356  1.0000
  C   C28       1.0  0.03960  0.07868  0.06644  1.0000
  C   C29       1.0  0.64610  0.36671  0.97245  1.0000
  C   C30       1.0  0.35390  0.63329  0.02755  1.0000
  C   C31       1.0  0.49024  0.32027  0.15442  1.0000
  C   C32       1.0  0.50976  0.67973  0.84558  1.0000
  C   C33       1.0  0.10276  0.94180  0.85049  1.0000
  C   C34       1.0  0.89724  0.05820  0.14951  1.0000
  C   C35       1.0  0.09109  0.37420  0.76974  1.0000
  C   C36       1.0  0.90890  0.62580  0.23026  1.0000
  C   C37       1.0  0.79963  0.38076  0.99523  1.0000
  C   C38       1.0  0.20037  0.61924  0.00477  1.0000
  C   C39       1.0  0.49493  0.33675  0.05164  1.0000
  C   C40       1.0  0.50507  0.66325  0.94836  1.0000
  C   C41       1.0  0.80076  0.36000  0.09692  1.0000
  C   C42       1.0  0.19924  0.64001  0.90308  1.0000
  N   N1        1.0  0.40825  0.33850  0.54654  1.0000
  N   N2        1.0  0.59175  0.66150  0.45346  1.0000
  N   N3        1.0  0.15055  0.49340  0.58088  1.0000
  N   N4        1.0  0.84945  0.50660  0.41912  1.0000
  N   N5        1.0  0.64020  0.10836  0.79567  1.0000
  N   N6        1.0  0.35980  0.89164  0.20433  1.0000
  N   N7        1.0  0.33724  0.32509  0.02184  1.0000
  N   N8        1.0  0.66276  0.67491  0.97816  1.0000
  O   O1        1.0  0.64923  0.20767  0.71609  1.0000
  O   O2        1.0  0.35077  0.79234  0.28391  1.0000
  O   O3        1.0  0.50492  0.05946  0.86158  1.0000
  O   O4        1.0  0.49508  0.94054  0.13842  1.0000
  O   O5        1.0  0.26102  0.18374  0.28462  1.0000
  O   O6        1.0  0.73898  0.81625  0.71538  1.0000
  O   O7        1.0  0.85332  0.10579  0.56947  1.0000
  O   O8        1.0  0.14668  0.89421  0.43053  1.0000
  O   O9        1.0  0.26569  0.39085  0.25358  1.0000
  O   O10       1.0  0.73431  0.60915  0.74642  1.0000
  O   O11       1.0  0.20811  0.02192  0.57696  1.0000
  O   O12       1.0  0.79189  0.97808  0.42304  1.0000
  O   O13       1.0  0.01402  0.25622  0.57439  1.0000
  O   O14       1.0  0.98598  0.74378  0.42561  1.0000
  O   O15       1.0  0.53469  0.26236  0.35957  1.0000
  O   O16       1.0  0.46531  0.73764  0.64043  1.0000
  O   O17       1.0  0.39087  0.01094  0.67761  1.0000
  O   O18       1.0  0.60913  0.98906  0.32239  1.0000
  O   O19       1.0  0.19824  0.32481  0.08196  1.0000
  O   O20       1.0  0.80175  0.67519  0.91804  1.0000
  O   O21       1.0  0.81938  0.30834  0.29539  1.0000
  O   O22       1.0  0.18062  0.69166  0.70460  1.0000
  O   O23       1.0  0.35060  0.31590  0.93744  1.0000
  O   O24       1.0  0.64940  0.68410  0.06255  1.0000
