data_image0
_chemical_formula_structural       ZnH16C24N2O4F6
_chemical_formula_sum              "Zn1 H16 C24 N2 O4 F6"
_cell_length_a       7.09281
_cell_length_b       9.16791
_cell_length_c       11.3104
_cell_angle_alpha    73.3369
_cell_angle_beta     71.7199
_cell_angle_gamma    67.2609

_space_group_name_H-M_alt    "P 1"
_space_group_IT_number       1

loop_
  _space_group_symop_operation_xyz
  'x, y, z'

loop_
  _atom_site_type_symbol
  _atom_site_label
  _atom_site_symmetry_multiplicity
  _atom_site_fract_x
  _atom_site_fract_y
  _atom_site_fract_z
  _atom_site_occupancy
  Zn  Zn1       1.0  0.95939  0.00009  0.00000  1.0000
  H   H1        1.0  0.14858  0.23865  0.02205  1.0000
  H   H2        1.0  0.40925  0.76143  0.97789  1.0000
  H   H3        1.0  0.50902  0.23854  0.02282  1.0000
  H   H4        1.0  0.77025  0.76170  0.97712  1.0000
  H   H5        1.0  0.90361  0.71344  0.39348  1.0000
  H   H6        1.0  0.01055  0.28650  0.60645  1.0000
  H   H7        1.0  0.79414  0.81180  0.54290  1.0000
  H   H8        1.0  0.14900  0.18806  0.45713  1.0000
  H   H9        1.0  0.66847  0.26882  0.28571  1.0000
  H   H10       1.0  0.22284  0.73110  0.71440  1.0000
  H   H11       1.0  0.63048  0.94952  0.72378  1.0000
  H   H12       1.0  0.30369  0.05032  0.27627  1.0000
  H   H13       1.0  0.50169  0.40841  0.46830  1.0000
  H   H14       1.0  0.37821  0.59144  0.53181  1.0000
  H   H15       1.0  0.48151  0.24994  0.68973  1.0000
  H   H16       1.0  0.42097  0.74989  0.31036  1.0000
  C   C1        1.0  0.28859  0.13271  0.01234  1.0000
  C   C2        1.0  0.43358  0.86742  0.98762  1.0000
  C   C3        1.0  0.83794  0.95649  0.28551  1.0000
  C   C4        1.0  0.07988  0.04349  0.71451  1.0000
  C   C5        1.0  0.74258  0.03125  0.40054  1.0000
  C   C6        1.0  0.17424  0.96867  0.59951  1.0000
  C   C7        1.0  0.48481  0.13268  0.01258  1.0000
  C   C8        1.0  0.62997  0.86752  0.98739  1.0000
  C   C9        1.0  0.00903  0.70179  0.19889  1.0000
  C   C10       1.0  0.91004  0.29829  0.80101  1.0000
  C   C11       1.0  0.91649  0.78542  0.29855  1.0000
  C   C12       1.0  0.00053  0.21458  0.70139  1.0000
  C   C13       1.0  0.08890  0.51614  0.23325  1.0000
  C   C14       1.0  0.83878  0.48394  0.76665  1.0000
  C   C15       1.0  0.73077  0.94247  0.52489  1.0000
  C   C16       1.0  0.19809  0.05740  0.47516  1.0000
  C   C17       1.0  0.65928  0.20016  0.38222  1.0000
  C   C18       1.0  0.24144  0.79975  0.61787  1.0000
  C   C19       1.0  0.63779  0.02070  0.62805  1.0000
  C   C20       1.0  0.28640  0.97915  0.37200  1.0000
  C   C21       1.0  0.56612  0.27756  0.48532  1.0000
  C   C22       1.0  0.32873  0.72230  0.51478  1.0000
  C   C23       1.0  0.55479  0.18855  0.60901  1.0000
  C   C24       1.0  0.35208  0.81130  0.39108  1.0000
  N   N1        1.0  0.65365  0.00012  0.99999  1.0000
  N   N2        1.0  0.26486  0.00004  0.99999  1.0000
  O   O1        1.0  0.04451  0.75279  0.07902  1.0000
  O   O2        1.0  0.87667  0.24735  0.92089  1.0000
  O   O3        1.0  0.84236  0.05374  0.17916  1.0000
  O   O4        1.0  0.07511  0.94630  0.82087  1.0000
  F   F1        1.0  0.02994  0.45569  0.35928  1.0000
  F   F2        1.0  0.84548  0.54444  0.64062  1.0000
  F   F3        1.0  0.01834  0.44928  0.16923  1.0000
  F   F4        1.0  0.63734  0.55070  0.83068  1.0000
  F   F5        1.0  0.30420  0.45792  0.20017  1.0000
  F   F6        1.0  0.96270  0.54223  0.79976  1.0000
