data_image0
_chemical_formula_structural       ZnH16C24N2O4F6
_chemical_formula_sum              "Zn1 H16 C24 N2 O4 F6"
_cell_length_a       7.16136
_cell_length_b       8.88966
_cell_length_c       10.9863
_cell_angle_alpha    92.0735
_cell_angle_beta     106.627
_cell_angle_gamma    112.986

_space_group_name_H-M_alt    "P 1"
_space_group_IT_number       1

loop_
  _space_group_symop_operation_xyz
  'x, y, z'

loop_
  _atom_site_type_symbol
  _atom_site_label
  _atom_site_symmetry_multiplicity
  _atom_site_fract_x
  _atom_site_fract_y
  _atom_site_fract_z
  _atom_site_occupancy
  Zn  Zn1       1.0  1.00000  0.50000  1.00000  1.0000
  H   H1        1.0  0.34674  0.78067  0.39912  1.0000
  H   H2        1.0  0.65326  0.21933  0.60088  1.0000
  H   H3        1.0  0.42882  0.66517  0.54152  1.0000
  H   H4        1.0  0.57119  0.33483  0.45848  1.0000
  H   H5        1.0  0.43487  0.52150  0.72802  1.0000
  H   H6        1.0  0.56513  0.47851  0.27198  1.0000
  H   H7        1.0  0.17316  0.22757  0.70331  1.0000
  H   H8        1.0  0.82684  0.77243  0.29669  1.0000
  H   H9        1.0  0.90469  0.08111  0.48795  1.0000
  H   H10       1.0  0.09531  0.91890  0.51205  1.0000
  H   H11       1.0  0.90615  0.22588  0.29779  1.0000
  H   H12       1.0  0.09385  0.77413  0.70221  1.0000
  H   H13       1.0  0.43942  0.75102  0.98833  1.0000
  H   H14       1.0  0.56058  0.24898  0.01167  1.0000
  H   H15       1.0  0.20539  0.24997  0.01230  1.0000
  H   H16       1.0  0.79461  0.75003  0.98770  1.0000
  C   C1        1.0  0.36372  0.99016  0.23683  1.0000
  C   C2        1.0  0.63629  0.00984  0.76316  1.0000
  C   C3        1.0  0.25096  0.79977  0.20205  1.0000
  C   C4        1.0  0.74905  0.20023  0.79795  1.0000
  C   C5        1.0  0.26115  0.70991  0.30257  1.0000
  C   C6        1.0  0.73885  0.29009  0.69743  1.0000
  C   C7        1.0  0.15596  0.53398  0.28908  1.0000
  C   C8        1.0  0.84404  0.46603  0.71092  1.0000
  C   C9        1.0  0.16489  0.45486  0.40639  1.0000
  C   C10       1.0  0.83511  0.54515  0.59361  1.0000
  C   C11       1.0  0.31222  0.53772  0.52857  1.0000
  C   C12       1.0  0.68777  0.46228  0.47143  1.0000
  C   C13       1.0  0.31630  0.45594  0.63449  1.0000
  C   C14       1.0  0.68371  0.54407  0.36552  1.0000
  C   C15       1.0  0.17091  0.29144  0.62035  1.0000
  C   C16       1.0  0.82909  0.70857  0.37966  1.0000
  C   C17       1.0  0.02134  0.20852  0.49924  1.0000
  C   C18       1.0  0.97866  0.79148  0.50076  1.0000
  C   C19       1.0  0.02001  0.28891  0.39297  1.0000
  C   C20       1.0  0.97999  0.71109  0.60703  1.0000
  C   C21       1.0  0.46777  0.63922  0.99354  1.0000
  C   C22       1.0  0.53223  0.36078  0.00646  1.0000
  C   C23       1.0  0.33803  0.36128  0.00673  1.0000
  C   C24       1.0  0.66197  0.63872  0.99327  1.0000
  N   N1        1.0  0.30700  0.50050  0.00026  1.0000
  N   N2        1.0  0.69300  0.49949  0.99974  1.0000
  O   O1        1.0  0.15839  0.75134  0.08057  1.0000
  O   O2        1.0  0.84160  0.24866  0.91943  1.0000
  O   O3        1.0  0.04911  0.43691  0.18133  1.0000
  O   O4        1.0  0.95089  0.56309  0.81867  1.0000
  F   F1        1.0  0.47022  0.04881  0.36521  1.0000
  F   F2        1.0  0.52979  0.95119  0.63478  1.0000
  F   F3        1.0  0.51121  0.05326  0.17452  1.0000
  F   F4        1.0  0.48878  0.94674  0.82547  1.0000
  F   F5        1.0  0.21997  0.05896  0.19909  1.0000
  F   F6        1.0  0.78003  0.94104  0.80091  1.0000
