data_image0
_chemical_formula_structural       ZnH12C20S2N2O4F6
_chemical_formula_sum              "Zn1 H12 C20 S2 N2 O4 F6"
_cell_length_a       7.06632
_cell_length_b       8.91053
_cell_length_c       10.7614
_cell_angle_alpha    76.1998
_cell_angle_beta     70.9087
_cell_angle_gamma    66.6455

_space_group_name_H-M_alt    "P 1"
_space_group_IT_number       1

loop_
  _space_group_symop_operation_xyz
  'x, y, z'

loop_
  _atom_site_type_symbol
  _atom_site_label
  _atom_site_symmetry_multiplicity
  _atom_site_fract_x
  _atom_site_fract_y
  _atom_site_fract_z
  _atom_site_occupancy
  Zn  Zn1       1.0  0.79398  0.99992  0.00004  1.0000
  H   H1        1.0  0.00456  0.15375  0.41348  1.0000
  H   H2        1.0  0.57168  0.84642  0.58629  1.0000
  H   H3        1.0  0.24909  0.75299  0.97331  1.0000
  H   H4        1.0  0.97564  0.24740  0.02665  1.0000
  H   H5        1.0  0.85989  0.27279  0.59024  1.0000
  H   H6        1.0  0.72304  0.72729  0.40980  1.0000
  H   H7        1.0  0.61164  0.75269  0.97303  1.0000
  H   H8        1.0  0.33787  0.24711  0.02710  1.0000
  H   H9        1.0  0.19927  0.93023  0.24909  1.0000
  H   H10       1.0  0.37874  0.06971  0.75078  1.0000
  H   H11       1.0  0.29060  0.62878  0.37748  1.0000
  H   H12       1.0  0.29648  0.37117  0.62255  1.0000
  C   C1        1.0  0.05680  0.02169  0.44474  1.0000
  C   C2        1.0  0.52330  0.97844  0.55504  1.0000
  C   C3        1.0  0.02714  0.95267  0.57666  1.0000
  C   C4        1.0  0.55637  0.04751  0.42315  1.0000
  C   C5        1.0  0.27118  0.86251  0.98516  1.0000
  C   C6        1.0  0.11888  0.13773  0.01493  1.0000
  C   C7        1.0  0.74776  0.29491  0.79540  1.0000
  C   C8        1.0  0.83760  0.70495  0.20468  1.0000
  C   C9        1.0  0.92805  0.02893  0.69907  1.0000
  C   C10       1.0  0.65602  0.97107  0.30081  1.0000
  C   C11       1.0  0.66941  0.48384  0.76473  1.0000
  C   C12       1.0  0.91733  0.51602  0.23544  1.0000
  C   C13       1.0  0.84482  0.20460  0.68891  1.0000
  C   C14       1.0  0.73804  0.79538  0.31111  1.0000
  C   C15       1.0  0.46842  0.86241  0.98503  1.0000
  C   C16       1.0  0.31609  0.13759  0.01493  1.0000
  C   C17       1.0  0.16153  0.90185  0.35627  1.0000
  C   C18       1.0  0.41961  0.09813  0.64361  1.0000
  C   C19       1.0  0.21044  0.74323  0.42145  1.0000
  C   C20       1.0  0.37486  0.25679  0.57852  1.0000
  S   S1        1.0  0.12941  0.73957  0.58958  1.0000
  S   S2        1.0  0.45803  0.26062  0.41038  1.0000
  N   N1        1.0  0.09841  0.00013  0.00009  1.0000
  N   N2        1.0  0.48889  0.99997  0.99994  1.0000
  O   O1        1.0  0.70956  0.24778  0.92029  1.0000
  O   O2        1.0  0.87731  0.75204  0.07979  1.0000
  O   O3        1.0  0.92352  0.93139  0.80760  1.0000
  O   O4        1.0  0.66289  0.06847  0.19222  1.0000
  F   F1        1.0  0.45405  0.55018  0.81896  1.0000
  F   F2        1.0  0.82227  0.45002  0.18097  1.0000
  F   F3        1.0  0.70586  0.54193  0.63286  1.0000
  F   F4        1.0  0.87987  0.45791  0.36732  1.0000
  F   F5        1.0  0.76624  0.54919  0.81839  1.0000
  F   F6        1.0  0.13301  0.45030  0.18210  1.0000
