data_image0
_chemical_formula_structural       Cu4H48C68I4N12
_chemical_formula_sum              "Cu4 H48 C68 I4 N12"
_cell_length_a       12.9175
_cell_length_b       13.0995
_cell_length_c       13.053
_cell_angle_alpha    76.056
_cell_angle_beta     60.3429
_cell_angle_gamma    60.8561

_space_group_name_H-M_alt    "P 1"
_space_group_IT_number       1

loop_
  _space_group_symop_operation_xyz
  'x, y, z'

loop_
  _atom_site_type_symbol
  _atom_site_label
  _atom_site_symmetry_multiplicity
  _atom_site_fract_x
  _atom_site_fract_y
  _atom_site_fract_z
  _atom_site_occupancy
  Cu  Cu1       1.0  0.10424  0.61297  0.53491  1.0000
  Cu  Cu2       1.0  0.25190  0.38791  0.46622  1.0000
  Cu  Cu3       1.0  0.35918  0.53453  0.38865  1.0000
  Cu  Cu4       1.0  0.28318  0.46551  0.61189  1.0000
  H   H1        1.0  0.88666  0.43804  0.04617  1.0000
  H   H2        1.0  0.37137  0.56123  0.95213  1.0000
  H   H3        1.0  0.06968  0.04749  0.55871  1.0000
  H   H4        1.0  0.67518  0.95278  0.44102  1.0000
  H   H5        1.0  0.12177  0.29610  0.93907  1.0000
  H   H6        1.0  0.35632  0.70452  0.05998  1.0000
  H   H7        1.0  0.94057  0.94009  0.70195  1.0000
  H   H8        1.0  0.58229  0.06028  0.29849  1.0000
  H   H9        1.0  0.09807  0.81721  0.41521  1.0000
  H   H10       1.0  0.32999  0.18397  0.58578  1.0000
  H   H11       1.0  0.48585  0.41509  0.18442  1.0000
  H   H12       1.0  0.08844  0.58263  0.81566  1.0000
  H   H13       1.0  0.05838  0.02074  0.34482  1.0000
  H   H14       1.0  0.42342  0.98046  0.65507  1.0000
  H   H15       1.0  0.59664  0.34524  0.97930  1.0000
  H   H16       1.0  0.92415  0.65250  0.02066  1.0000
  H   H17       1.0  0.60764  0.79137  0.77799  1.0000
  H   H18       1.0  0.17743  0.20755  0.22321  1.0000
  H   H19       1.0  0.61420  0.77739  0.20897  1.0000
  H   H20       1.0  0.59961  0.22304  0.79122  1.0000
  H   H21       1.0  0.83922  0.63685  0.67787  1.0000
  H   H22       1.0  0.15433  0.36297  0.32369  1.0000
  H   H23       1.0  0.48117  0.67753  0.36532  1.0000
  H   H24       1.0  0.52400  0.32227  0.63502  1.0000
  H   H25       1.0  0.02775  0.01557  0.14795  1.0000
  H   H26       1.0  0.19075  0.98395  0.85231  1.0000
  H   H27       1.0  0.82336  0.14802  0.98496  1.0000
  H   H28       1.0  0.95383  0.85457  0.01436  1.0000
  H   H29       1.0  0.72301  0.36784  0.20579  1.0000
  H   H30       1.0  0.29781  0.63044  0.79258  1.0000
  H   H31       1.0  0.07269  0.20701  0.62959  1.0000
  H   H32       1.0  0.90732  0.79452  0.36932  1.0000
  H   H33       1.0  0.64992  0.14652  0.59717  1.0000
  H   H34       1.0  0.39339  0.85333  0.40232  1.0000
  H   H35       1.0  0.75451  0.59706  0.85139  1.0000
  H   H36       1.0  0.20316  0.40248  0.14927  1.0000
  H   H37       1.0  0.83455  0.18533  0.43866  1.0000
  H   H38       1.0  0.45815  0.81521  0.56058  1.0000
  H   H39       1.0  0.72802  0.43901  0.81279  1.0000
  H   H40       1.0  0.98169  0.55958  0.18741  1.0000
  H   H41       1.0  0.49939  0.11432  0.71694  1.0000
  H   H42       1.0  0.33107  0.88485  0.28215  1.0000
  H   H43       1.0  0.78596  0.71714  0.88372  1.0000
  H   H44       1.0  0.38653  0.28175  0.11673  1.0000
  H   H45       1.0  0.79353  0.15667  0.25238  1.0000
  H   H46       1.0  0.20307  0.84156  0.74713  1.0000
  H   H47       1.0  0.95464  0.25245  0.84260  1.0000
  H   H48       1.0  0.04674  0.74991  0.15602  1.0000
  C   C1        1.0  0.09119  0.14695  0.03771  1.0000
  C   C2        1.0  0.27516  0.85309  0.96193  1.0000
  C   C3        1.0  0.87088  0.03861  0.85223  1.0000
  C   C4        1.0  0.76037  0.96316  0.14753  1.0000
  C   C5        1.0  0.91784  0.34549  0.06853  1.0000
  C   C6        1.0  0.33210  0.65381  0.93019  1.0000
  C   C7        1.0  0.01540  0.06959  0.65205  1.0000
  C   C8        1.0  0.73598  0.93123  0.34755  1.0000
  C   C9        1.0  0.22941  0.06267  0.97852  1.0000
  C   C10       1.0  0.26986  0.93775  0.02144  1.0000
  C   C11       1.0  0.79081  0.97948  0.93695  1.0000
  C   C12       1.0  0.70638  0.02225  0.06285  1.0000
  C   C13       1.0  0.04954  0.26667  0.00853  1.0000
  C   C14       1.0  0.32432  0.73332  0.99064  1.0000
  C   C15       1.0  0.94302  0.00951  0.73152  1.0000
  C   C16       1.0  0.68320  0.99142  0.26842  1.0000
  C   C17       1.0  0.76612  0.95944  0.60082  1.0000
  C   C18       1.0  0.32638  0.04068  0.39948  1.0000
  C   C19       1.0  0.63387  0.60027  0.04016  1.0000
  C   C20       1.0  0.27502  0.39849  0.96041  1.0000
  C   C21       1.0  0.89623  0.86497  0.54848  1.0000
  C   C22       1.0  0.30961  0.13557  0.45216  1.0000
  C   C23       1.0  0.55531  0.54796  0.13566  1.0000
  C   C24       1.0  0.24022  0.45056  0.86486  1.0000
  C   C25       1.0  0.00090  0.88989  0.45665  1.0000
  C   C26       1.0  0.34712  0.11105  0.54390  1.0000
  C   C27       1.0  0.54214  0.45648  0.11090  1.0000
  C   C28       1.0  0.11178  0.54161  0.88940  1.0000
  C   C29       1.0  0.97835  0.00308  0.41797  1.0000
  C   C30       1.0  0.39904  0.99784  0.58201  1.0000
  C   C31       1.0  0.60380  0.41808  0.99681  1.0000
  C   C32       1.0  0.02101  0.58001  0.00338  1.0000
  C   C33       1.0  0.65978  0.93288  0.68984  1.0000
  C   C34       1.0  0.28262  0.06678  0.31072  1.0000
  C   C35       1.0  0.65115  0.68919  0.06665  1.0000
  C   C36       1.0  0.40698  0.31009  0.93381  1.0000
  C   C37       1.0  0.68699  0.81552  0.71433  1.0000
  C   C38       1.0  0.21704  0.18396  0.28673  1.0000
  C   C39       1.0  0.59858  0.71372  0.18494  1.0000
  C   C40       1.0  0.49683  0.28612  0.81543  1.0000
  C   C41       1.0  0.81637  0.72917  0.65871  1.0000
  C   C42       1.0  0.20438  0.27075  0.34256  1.0000
  C   C43       1.0  0.52406  0.65820  0.27227  1.0000
  C   C44       1.0  0.45468  0.34135  0.72810  1.0000
  C   C45       1.0  0.99738  0.10816  0.12563  1.0000
  C   C46       1.0  0.23076  0.89132  0.87420  1.0000
  C   C47       1.0  0.87670  0.12606  0.89151  1.0000
  C   C48       1.0  0.89214  0.87613  0.10788  1.0000
  C   C49       1.0  0.82588  0.30634  0.15734  1.0000
  C   C50       1.0  0.29012  0.69242  0.84149  1.0000
  C   C51       1.0  0.01809  0.15824  0.69159  1.0000
  C   C52       1.0  0.86613  0.84317  0.30757  1.0000
  C   C53       1.0  0.74809  0.07461  0.55998  1.0000
  C   C54       1.0  0.38256  0.92554  0.43975  1.0000
  C   C55       1.0  0.69304  0.55979  0.92410  1.0000
  C   C56       1.0  0.17777  0.43916  0.07637  1.0000
  C   C57       1.0  0.85149  0.09631  0.47051  1.0000
  C   C58       1.0  0.41806  0.90422  0.52907  1.0000
  C   C59       1.0  0.67882  0.47063  0.90253  1.0000
  C   C60       1.0  0.05369  0.52791  0.09772  1.0000
  C   C61       1.0  0.52685  0.02442  0.75045  1.0000
  C   C62       1.0  0.30177  0.97510  0.24962  1.0000
  C   C63       1.0  0.72387  0.75025  0.97445  1.0000
  C   C64       1.0  0.44839  0.24918  0.02581  1.0000
  C   C65       1.0  0.86558  0.18741  0.18465  1.0000
  C   C66       1.0  0.23781  0.81138  0.81479  1.0000
  C   C67       1.0  0.95031  0.18507  0.81159  1.0000
  C   C68       1.0  0.94463  0.81695  0.18743  1.0000
  I   I1        1.0  0.18665  0.56468  0.31267  1.0000
  I   I2        1.0  0.06276  0.43693  0.68792  1.0000
  I   I3        1.0  0.49997  0.31344  0.43461  1.0000
  I   I4        1.0  0.24679  0.68786  0.56574  1.0000
  N   N1        1.0  0.31574  0.09355  0.88812  1.0000
  N   N2        1.0  0.29636  0.90669  0.11178  1.0000
  N   N3        1.0  0.79593  0.88907  0.90552  1.0000
  N   N4        1.0  0.59009  0.11187  0.09435  1.0000
  N   N5        1.0  0.92033  0.75051  0.58193  1.0000
  N   N6        1.0  0.25276  0.24993  0.41914  1.0000
  N   N7        1.0  0.49697  0.58144  0.25096  1.0000
  N   N8        1.0  0.33028  0.41755  0.74946  1.0000
  N   N9        1.0  0.43912  0.99942  0.84373  1.0000
  N   N10       1.0  0.28159  0.00069  0.15686  1.0000
  N   N11       1.0  0.71679  0.84374  0.00007  1.0000
  N   N12       1.0  0.56042  0.15681  0.99984  1.0000
