data_image0
_chemical_formula_structural       Tb2H30C40N12O20
_chemical_formula_sum              "Tb2 H30 C40 N12 O20"
_cell_length_a       9.39024
_cell_length_b       9.44776
_cell_length_c       13.447
_cell_angle_alpha    73.726
_cell_angle_beta     81.7937
_cell_angle_gamma    68.1628

_space_group_name_H-M_alt    "P 1"
_space_group_IT_number       1

loop_
  _space_group_symop_operation_xyz
  'x, y, z'

loop_
  _atom_site_type_symbol
  _atom_site_label
  _atom_site_symmetry_multiplicity
  _atom_site_fract_x
  _atom_site_fract_y
  _atom_site_fract_z
  _atom_site_occupancy
  Tb  Tb1       1.0  0.23418  0.55113  0.48463  1.0000
  Tb  Tb2       1.0  0.76582  0.44887  0.51537  1.0000
  H   H1        1.0  0.25344  0.86765  0.34531  1.0000
  H   H2        1.0  0.74656  0.13235  0.65469  1.0000
  H   H3        1.0  0.42686  0.73775  0.36387  1.0000
  H   H4        1.0  0.57314  0.26225  0.63613  1.0000
  H   H5        1.0  0.00989  0.89704  0.42039  1.0000
  H   H6        1.0  0.99010  0.10296  0.57961  1.0000
  H   H7        1.0  0.90807  0.78509  0.46654  1.0000
  H   H8        1.0  0.09192  0.21491  0.53347  1.0000
  H   H9        1.0  0.67963  0.02606  0.45867  1.0000
  H   H10       1.0  0.32037  0.97394  0.54133  1.0000
  H   H11       1.0  0.53888  0.90223  0.21350  1.0000
  H   H12       1.0  0.46111  0.09777  0.78650  1.0000
  H   H13       1.0  0.16188  0.55688  0.95320  1.0000
  H   H14       1.0  0.83813  0.44312  0.04680  1.0000
  H   H15       1.0  0.57589  0.54575  0.22633  1.0000
  H   H16       1.0  0.42411  0.45425  0.77367  1.0000
  H   H17       1.0  0.05259  0.18515  0.80804  1.0000
  H   H18       1.0  0.94741  0.81485  0.19196  1.0000
  H   H19       1.0  0.34869  0.86896  0.07983  1.0000
  H   H20       1.0  0.65131  0.13104  0.92017  1.0000
  H   H21       1.0  0.25421  0.27405  0.04077  1.0000
  H   H22       1.0  0.74579  0.72595  0.95923  1.0000
  H   H23       1.0  0.23675  0.69632  0.01104  1.0000
  H   H24       1.0  0.76325  0.30368  0.98896  1.0000
  H   H25       1.0  0.45680  0.18181  0.11483  1.0000
  H   H26       1.0  0.54320  0.81820  0.88517  1.0000
  H   H27       1.0  0.03485  0.02374  0.77016  1.0000
  H   H28       1.0  0.96515  0.97627  0.22984  1.0000
  H   H29       1.0  0.82844  0.75299  0.68433  1.0000
  H   H30       1.0  0.17156  0.24701  0.31567  1.0000
  C   C1        1.0  0.57752  0.21886  0.33068  1.0000
  C   C2        1.0  0.42248  0.78114  0.66932  1.0000
  C   C3        1.0  0.62969  0.06007  0.38339  1.0000
  C   C4        1.0  0.37032  0.93992  0.61661  1.0000
  C   C5        1.0  0.54871  0.99081  0.24666  1.0000
  C   C6        1.0  0.45129  0.00919  0.75334  1.0000
  C   C7        1.0  0.61380  0.94538  0.34335  1.0000
  C   C8        1.0  0.38620  0.05462  0.65665  1.0000
  C   C9        1.0  0.06399  0.52943  0.82859  1.0000
  C   C10       1.0  0.93601  0.47057  0.17141  1.0000
  C   C11       1.0  0.66632  0.77759  0.40252  1.0000
  C   C12       1.0  0.33368  0.22241  0.59747  1.0000
  C   C13       1.0  0.96744  0.46745  0.68153  1.0000
  C   C14       1.0  0.03257  0.53256  0.31848  1.0000
  C   C15       1.0  0.14207  0.47350  0.92069  1.0000
  C   C16       1.0  0.85793  0.52650  0.07931  1.0000
  C   C17       1.0  0.59074  0.33295  0.38431  1.0000
  C   C18       1.0  0.40926  0.66704  0.61569  1.0000
  C   C19       1.0  0.49056  0.54890  0.17861  1.0000
  C   C20       1.0  0.50944  0.45110  0.82139  1.0000
  C   C21       1.0  0.07808  0.26683  0.83928  1.0000
  C   C22       1.0  0.92192  0.73317  0.16072  1.0000
  C   C23       1.0  0.51287  0.26225  0.23382  1.0000
  C   C24       1.0  0.48714  0.73774  0.76618  1.0000
  C   C25       1.0  0.16018  0.20901  0.92969  1.0000
  C   C26       1.0  0.83982  0.79100  0.07032  1.0000
  C   C27       1.0  0.19251  0.31441  0.96990  1.0000
  C   C28       1.0  0.80749  0.68559  0.03011  1.0000
  C   C29       1.0  0.31948  0.61885  0.06916  1.0000
  C   C30       1.0  0.68052  0.38115  0.93083  1.0000
  C   C31       1.0  0.50128  0.14738  0.19158  1.0000
  C   C32       1.0  0.49872  0.85262  0.80842  1.0000
  C   C33       1.0  0.21347  0.03649  0.97734  1.0000
  C   C34       1.0  0.78654  0.96351  0.02266  1.0000
  C   C35       1.0  0.00819  0.92548  0.76256  1.0000
  C   C36       1.0  0.99181  0.07452  0.23744  1.0000
  C   C37       1.0  0.90223  0.79131  0.71739  1.0000
  C   C38       1.0  0.09777  0.20869  0.28261  1.0000
  C   C39       1.0  0.03287  0.42502  0.78583  1.0000
  C   C40       1.0  0.96713  0.57498  0.21417  1.0000
  N   N1        1.0  0.45724  0.42151  0.17621  1.0000
  N   N2        1.0  0.54276  0.57849  0.82379  1.0000
  N   N3        1.0  0.40510  0.67494  0.11185  1.0000
  N   N4        1.0  0.59490  0.32505  0.88815  1.0000
  N   N5        1.0  0.01508  0.69397  0.78365  1.0000
  N   N6        1.0  0.98492  0.30603  0.21636  1.0000
  N   N7        1.0  0.34722  0.46627  0.10546  1.0000
  N   N8        1.0  0.65278  0.53373  0.89454  1.0000
  N   N9        1.0  0.89523  0.93940  0.70217  1.0000
  N   N10       1.0  0.10477  0.06060  0.29783  1.0000
  N   N11       1.0  0.08358  0.77998  0.81286  1.0000
  N   N12       1.0  0.91641  0.22002  0.18714  1.0000
  O   O1        1.0  0.75186  0.73227  0.47987  1.0000
  O   O2        1.0  0.24813  0.26773  0.52013  1.0000
  O   O3        1.0  0.62518  0.67887  0.37599  1.0000
  O   O4        1.0  0.37481  0.32113  0.62401  1.0000
  O   O5        1.0  0.04074  0.52299  0.60322  1.0000
  O   O6        1.0  0.95926  0.47701  0.39678  1.0000
  O   O7        1.0  0.31550  0.75474  0.37301  1.0000
  O   O8        1.0  0.68450  0.24527  0.62699  1.0000
  O   O9        1.0  0.01321  0.79153  0.45793  1.0000
  O   O10       1.0  0.98678  0.20847  0.54208  1.0000
  O   O11       1.0  0.46848  0.43026  0.41351  1.0000
  O   O12       1.0  0.53152  0.56973  0.58649  1.0000
  O   O13       1.0  0.84738  0.43927  0.67646  1.0000
  O   O14       1.0  0.15262  0.56074  0.32355  1.0000
  O   O15       1.0  0.72482  0.32133  0.39987  1.0000
  O   O16       1.0  0.27519  0.67866  0.60013  1.0000
  O   O17       1.0  0.17566  0.94680  0.94453  1.0000
  O   O18       1.0  0.82434  0.05320  0.05547  1.0000
  O   O19       1.0  0.30793  0.99029  0.05515  1.0000
  O   O20       1.0  0.69207  0.00971  0.94485  1.0000
