data_image0
_chemical_formula_structural       Dy2H30C40N12O20
_chemical_formula_sum              "Dy2 H30 C40 N12 O20"
_cell_length_a       9.49354
_cell_length_b       9.30728
_cell_length_c       13.443
_cell_angle_alpha    81.8572
_cell_angle_beta     73.9788
_cell_angle_gamma    67.2349

_space_group_name_H-M_alt    "P 1"
_space_group_IT_number       1

loop_
  _space_group_symop_operation_xyz
  'x, y, z'

loop_
  _atom_site_type_symbol
  _atom_site_label
  _atom_site_symmetry_multiplicity
  _atom_site_fract_x
  _atom_site_fract_y
  _atom_site_fract_z
  _atom_site_occupancy
  Dy  Dy1       1.0  0.44610  0.26667  0.01358  1.0000
  Dy  Dy2       1.0  0.55390  0.73333  0.98642  1.0000
  H   H1        1.0  0.10034  0.49337  0.08099  1.0000
  H   H2        1.0  0.89966  0.50662  0.91901  1.0000
  H   H3        1.0  0.21162  0.59436  0.03273  1.0000
  H   H4        1.0  0.78838  0.40564  0.96727  1.0000
  H   H5        1.0  0.13402  0.24920  0.15213  1.0000
  H   H6        1.0  0.86599  0.75080  0.84787  1.0000
  H   H7        1.0  0.26535  0.07235  0.13451  1.0000
  H   H8        1.0  0.73466  0.92765  0.86550  1.0000
  H   H9        1.0  0.86787  0.84769  0.58080  1.0000
  H   H10       1.0  0.13213  0.15229  0.41920  1.0000
  H   H11       1.0  0.97639  0.82040  0.04064  1.0000
  H   H12       1.0  0.02360  0.17960  0.95936  1.0000
  H   H13       1.0  0.09667  0.96382  0.28679  1.0000
  H   H14       1.0  0.90333  0.03619  0.71321  1.0000
  H   H15       1.0  0.55497  0.66228  0.45351  1.0000
  H   H16       1.0  0.44503  0.33772  0.54649  1.0000
  H   H17       1.0  0.81746  0.04564  0.38511  1.0000
  H   H18       1.0  0.18254  0.95437  0.61488  1.0000
  H   H19       1.0  0.30252  0.26600  0.48981  1.0000
  H   H20       1.0  0.69748  0.73399  0.51019  1.0000
  H   H21       1.0  0.75795  0.33369  0.17697  1.0000
  H   H22       1.0  0.24204  0.66631  0.82303  1.0000
  H   H23       1.0  0.45757  0.92464  0.27140  1.0000
  H   H24       1.0  0.54242  0.07536  0.72860  1.0000
  H   H25       1.0  0.27309  0.75455  0.54119  1.0000
  H   H26       1.0  0.72691  0.24545  0.45881  1.0000
  H   H27       1.0  0.18758  0.55344  0.30594  1.0000
  H   H28       1.0  0.81242  0.44656  0.69406  1.0000
  H   H29       1.0  0.02126  0.53062  0.27889  1.0000
  H   H30       1.0  0.97874  0.46938  0.72111  1.0000
  C   C1        1.0  0.94188  0.87072  0.11611  1.0000
  C   C2        1.0  0.05812  0.12929  0.88389  1.0000
  C   C3        1.0  0.78310  0.92292  0.16866  1.0000
  C   C4        1.0  0.21690  0.07708  0.83134  1.0000
  C   C5        1.0  0.66932  0.90841  0.11555  1.0000
  C   C6        1.0  0.33067  0.09159  0.88445  1.0000
  C   C7        1.0  0.22377  0.83364  0.09791  1.0000
  C   C8        1.0  0.77622  0.16637  0.90208  1.0000
  C   C9        1.0  0.05563  0.88722  0.15651  1.0000
  C   C10       1.0  0.94436  0.11279  0.84349  1.0000
  C   C11       1.0  0.73870  0.98850  0.26565  1.0000
  C   C12       1.0  0.26130  0.01151  0.73435  1.0000
  C   C13       1.0  0.52977  0.56430  0.32775  1.0000
  C   C14       1.0  0.47023  0.43571  0.67225  1.0000
  C   C15       1.0  0.00901  0.95330  0.25334  1.0000
  C   C16       1.0  0.99098  0.04670  0.74666  1.0000
  C   C17       1.0  0.46775  0.46866  0.17974  1.0000
  C   C18       1.0  0.53225  0.53134  0.82026  1.0000
  C   C19       1.0  0.42613  0.53314  0.28454  1.0000
  C   C20       1.0  0.57387  0.46687  0.71545  1.0000
  C   C21       1.0  0.47250  0.64282  0.42031  1.0000
  C   C22       1.0  0.52750  0.35718  0.57969  1.0000
  C   C23       1.0  0.85252  0.00085  0.30816  1.0000
  C   C24       1.0  0.14748  0.99915  0.69183  1.0000
  C   C25       1.0  0.38067  0.18299  0.43083  1.0000
  C   C26       1.0  0.61933  0.81700  0.56917  1.0000
  C   C27       1.0  0.79401  0.40431  0.21486  1.0000
  C   C28       1.0  0.20599  0.59568  0.78514  1.0000
  C   C29       1.0  0.45341  0.01049  0.31993  1.0000
  C   C30       1.0  0.54659  0.98952  0.68007  1.0000
  C   C31       1.0  0.31365  0.69338  0.46962  1.0000
  C   C32       1.0  0.68635  0.30661  0.53038  1.0000
  C   C33       1.0  0.26814  0.57888  0.33794  1.0000
  C   C34       1.0  0.73186  0.42112  0.66206  1.0000
  C   C35       1.0  0.92465  0.50610  0.26726  1.0000
  C   C36       1.0  0.07535  0.49390  0.73274  1.0000
  C   C37       1.0  0.03692  0.71402  0.47682  1.0000
  C   C38       1.0  0.96307  0.28597  0.52317  1.0000
  C   C39       1.0  0.20921  0.66108  0.42895  1.0000
  C   C40       1.0  0.79080  0.33892  0.57105  1.0000
  N   N1        1.0  0.57942  0.04415  0.32320  1.0000
  N   N2        1.0  0.42058  0.95585  0.67680  1.0000
  N   N3        1.0  0.69444  0.51509  0.28378  1.0000
  N   N4        1.0  0.30556  0.48492  0.71622  1.0000
  N   N5        1.0  0.32657  0.09671  0.38701  1.0000
  N   N6        1.0  0.67343  0.90328  0.61299  1.0000
  N   N7        1.0  0.53284  0.15500  0.39487  1.0000
  N   N8        1.0  0.46716  0.84499  0.60513  1.0000
  N   N9        1.0  0.94116  0.39618  0.20248  1.0000
  N   N10       1.0  0.05883  0.60382  0.79752  1.0000
  N   N11       1.0  0.77833  0.58096  0.31754  1.0000
  N   N12       1.0  0.22167  0.41904  0.68246  1.0000
  O   O1        1.0  0.52961  0.53884  0.10287  1.0000
  O   O2        1.0  0.47039  0.46116  0.89713  1.0000
  O   O3        1.0  0.32140  0.87476  0.12527  1.0000
  O   O4        1.0  0.67859  0.12524  0.87472  1.0000
  O   O5        1.0  0.27053  0.74688  0.02046  1.0000
  O   O6        1.0  0.72947  0.25312  0.97954  1.0000
  O   O7        1.0  0.20329  0.48942  0.03887  1.0000
  O   O8        1.0  0.79670  0.51058  0.96113  1.0000
  O   O9        1.0  0.57199  0.03182  0.08425  1.0000
  O   O10       1.0  0.42802  0.96817  0.91574  1.0000
  O   O11       1.0  0.68023  0.77210  0.10288  1.0000
  O   O12       1.0  0.31977  0.22789  0.89713  1.0000
  O   O13       1.0  0.24691  0.18537  0.12323  1.0000
  O   O14       1.0  0.75310  0.81463  0.87678  1.0000
  O   O15       1.0  0.43268  0.35299  0.17282  1.0000
  O   O16       1.0  0.56732  0.64702  0.82718  1.0000
  O   O17       1.0  0.94847  0.67622  0.44325  1.0000
  O   O18       1.0  0.05154  0.32379  0.55675  1.0000
  O   O19       1.0  0.98911  0.80783  0.55611  1.0000
  O   O20       1.0  0.01089  0.19215  0.44390  1.0000
