data_image0
_chemical_formula_structural       Sm2H30C40N12O20
_chemical_formula_sum              "Sm2 H30 C40 N12 O20"
_cell_length_a       9.31962
_cell_length_b       9.43813
_cell_length_c       13.4559
_cell_angle_alpha    73.2569
_cell_angle_beta     81.6676
_cell_angle_gamma    69.5185

_space_group_name_H-M_alt    "P 1"
_space_group_IT_number       1

loop_
  _space_group_symop_operation_xyz
  'x, y, z'

loop_
  _atom_site_type_symbol
  _atom_site_label
  _atom_site_symmetry_multiplicity
  _atom_site_fract_x
  _atom_site_fract_y
  _atom_site_fract_z
  _atom_site_occupancy
  Sm  Sm1       1.0  0.23862  0.54183  0.48273  1.0000
  Sm  Sm2       1.0  0.76137  0.45817  0.51727  1.0000
  H   H1        1.0  0.91064  0.77624  0.47057  1.0000
  H   H2        1.0  0.08936  0.22376  0.52943  1.0000
  H   H3        1.0  0.02162  0.84091  0.50926  1.0000
  H   H4        1.0  0.97838  0.15909  0.49073  1.0000
  H   H5        1.0  0.26017  0.87214  0.35140  1.0000
  H   H6        1.0  0.73984  0.12786  0.64860  1.0000
  H   H7        1.0  0.43114  0.74282  0.36262  1.0000
  H   H8        1.0  0.56886  0.25719  0.63738  1.0000
  H   H9        1.0  0.68935  0.02981  0.45509  1.0000
  H   H10       1.0  0.31064  0.97019  0.54491  1.0000
  H   H11       1.0  0.54104  0.90989  0.21096  1.0000
  H   H12       1.0  0.45897  0.09010  0.78904  1.0000
  H   H13       1.0  0.46157  0.18842  0.11313  1.0000
  H   H14       1.0  0.53844  0.81157  0.88687  1.0000
  H   H15       1.0  0.58028  0.55410  0.22721  1.0000
  H   H16       1.0  0.41972  0.44589  0.77279  1.0000
  H   H17       1.0  0.24418  0.69837  0.01122  1.0000
  H   H18       1.0  0.75582  0.30163  0.98878  1.0000
  H   H19       1.0  0.15974  0.56563  0.94929  1.0000
  H   H20       1.0  0.84028  0.43437  0.05071  1.0000
  H   H21       1.0  0.25890  0.28467  0.03868  1.0000
  H   H22       1.0  0.74109  0.71532  0.96132  1.0000
  H   H23       1.0  0.05231  0.17867  0.81597  1.0000
  H   H24       1.0  0.94769  0.82133  0.18401  1.0000
  H   H25       1.0  0.35252  0.87657  0.08205  1.0000
  H   H26       1.0  0.64749  0.12342  0.91794  1.0000
  H   H27       1.0  0.80579  0.73295  0.69749  1.0000
  H   H28       1.0  0.19422  0.26706  0.30250  1.0000
  H   H29       1.0  0.01513  0.03390  0.74504  1.0000
  H   H30       1.0  0.98487  0.96611  0.25497  1.0000
  C   C1        1.0  0.60558  0.33255  0.38247  1.0000
  C   C2        1.0  0.39441  0.66745  0.61754  1.0000
  C   C3        1.0  0.58749  0.22261  0.32790  1.0000
  C   C4        1.0  0.41251  0.77739  0.67210  1.0000
  C   C5        1.0  0.63809  0.06448  0.38033  1.0000
  C   C6        1.0  0.36191  0.93552  0.61968  1.0000
  C   C7        1.0  0.61910  0.95112  0.34062  1.0000
  C   C8        1.0  0.38090  0.04887  0.65939  1.0000
  C   C9        1.0  0.55351  0.99716  0.24416  1.0000
  C   C10       1.0  0.44649  0.00284  0.75585  1.0000
  C   C11       1.0  0.50739  0.15341  0.18948  1.0000
  C   C12       1.0  0.49262  0.84658  0.81052  1.0000
  C   C13       1.0  0.52102  0.26741  0.23164  1.0000
  C   C14       1.0  0.47898  0.73259  0.76836  1.0000
  C   C15       1.0  0.49659  0.55509  0.17868  1.0000
  C   C16       1.0  0.50342  0.44490  0.82133  1.0000
  C   C17       1.0  0.32699  0.62216  0.06892  1.0000
  C   C18       1.0  0.67301  0.37784  0.93108  1.0000
  C   C19       1.0  0.02875  0.42178  0.78948  1.0000
  C   C20       1.0  0.97124  0.57823  0.21051  1.0000
  C   C21       1.0  0.05802  0.53032  0.82951  1.0000
  C   C22       1.0  0.94198  0.46968  0.17049  1.0000
  C   C23       1.0  0.14045  0.47920  0.91923  1.0000
  C   C24       1.0  0.85955  0.52080  0.08076  1.0000
  C   C25       1.0  0.19445  0.32110  0.96949  1.0000
  C   C26       1.0  0.80555  0.67890  0.03050  1.0000
  C   C27       1.0  0.16154  0.21219  0.93270  1.0000
  C   C28       1.0  0.83845  0.78780  0.06730  1.0000
  C   C29       1.0  0.07692  0.26457  0.84396  1.0000
  C   C30       1.0  0.92308  0.73543  0.15603  1.0000
  C   C31       1.0  0.21570  0.04054  0.98140  1.0000
  C   C32       1.0  0.78429  0.95946  0.01858  1.0000
  C   C33       1.0  0.95948  0.46008  0.68731  1.0000
  C   C34       1.0  0.04051  0.53993  0.31269  1.0000
  C   C35       1.0  0.88212  0.78033  0.72107  1.0000
  C   C36       1.0  0.11788  0.21968  0.27893  1.0000
  C   C37       1.0  0.66754  0.78471  0.40059  1.0000
  C   C38       1.0  0.33246  0.21529  0.59941  1.0000
  C   C39       1.0  0.98949  0.92936  0.74833  1.0000
  C   C40       1.0  0.01052  0.07064  0.25168  1.0000
  N   N1        1.0  0.41084  0.68020  0.11263  1.0000
  N   N2        1.0  0.58916  0.31980  0.88737  1.0000
  N   N3        1.0  0.35600  0.46939  0.10371  1.0000
  N   N4        1.0  0.64400  0.53061  0.89629  1.0000
  N   N5        1.0  0.87180  0.93058  0.69717  1.0000
  N   N6        1.0  0.12820  0.06942  0.30283  1.0000
  N   N7        1.0  0.07079  0.78918  0.80154  1.0000
  N   N8        1.0  0.92921  0.21082  0.19847  1.0000
  N   N9        1.0  0.46529  0.42630  0.17476  1.0000
  N   N10       1.0  0.53471  0.57369  0.82525  1.0000
  N   N11       1.0  0.00207  0.69340  0.78309  1.0000
  N   N12       1.0  0.99793  0.30660  0.21691  1.0000
  O   O1        1.0  0.48655  0.42831  0.41413  1.0000
  O   O2        1.0  0.51344  0.57169  0.58588  1.0000
  O   O3        1.0  0.74137  0.31913  0.39780  1.0000
  O   O4        1.0  0.25862  0.68088  0.60220  1.0000
  O   O5        1.0  0.03408  0.50553  0.60457  1.0000
  O   O6        1.0  0.96590  0.49448  0.39543  1.0000
  O   O7        1.0  0.01427  0.79013  0.45746  1.0000
  O   O8        1.0  0.98573  0.20987  0.54254  1.0000
  O   O9        1.0  0.31994  0.75847  0.37499  1.0000
  O   O10       1.0  0.68006  0.24152  0.62501  1.0000
  O   O11       1.0  0.17663  0.94938  0.95054  1.0000
  O   O12       1.0  0.82339  0.05063  0.04944  1.0000
  O   O13       1.0  0.31223  0.99677  0.05775  1.0000
  O   O14       1.0  0.68778  0.00323  0.94224  1.0000
  O   O15       1.0  0.74647  0.74071  0.48144  1.0000
  O   O16       1.0  0.25353  0.25928  0.51857  1.0000
  O   O17       1.0  0.62890  0.68528  0.37221  1.0000
  O   O18       1.0  0.37110  0.31472  0.62779  1.0000
  O   O19       1.0  0.83259  0.43845  0.68749  1.0000
  O   O20       1.0  0.16741  0.56156  0.31251  1.0000
