data_image0
_chemical_formula_structural       Cu7H14C20N18
_chemical_formula_sum              "Cu7 H14 C20 N18"
_cell_length_a       8.34674
_cell_length_b       9.40238
_cell_length_c       9.72729
_cell_angle_alpha    67.8188
_cell_angle_beta     70.8356
_cell_angle_gamma    81.1237

_space_group_name_H-M_alt    "P 1"
_space_group_IT_number       1

loop_
  _space_group_symop_operation_xyz
  'x, y, z'

loop_
  _atom_site_type_symbol
  _atom_site_label
  _atom_site_symmetry_multiplicity
  _atom_site_fract_x
  _atom_site_fract_y
  _atom_site_fract_z
  _atom_site_occupancy
  Cu  Cu1       1.0  0.44220  0.66920  0.06636  1.0000
  Cu  Cu2       1.0  0.55779  0.33080  0.93365  1.0000
  Cu  Cu3       1.0  0.51994  0.21964  0.59360  1.0000
  Cu  Cu4       1.0  0.48007  0.78038  0.40639  1.0000
  Cu  Cu5       1.0  0.97695  0.94865  0.31798  1.0000
  Cu  Cu6       1.0  0.02304  0.05133  0.68205  1.0000
  Cu  Cu7       1.0  0.99999  0.00002  0.99995  1.0000
  H   H1        1.0  0.06401  0.46720  0.65498  1.0000
  H   H2        1.0  0.93599  0.53279  0.34503  1.0000
  H   H3        1.0  0.80059  0.54113  0.56880  1.0000
  H   H4        1.0  0.19941  0.45886  0.43121  1.0000
  H   H5        1.0  0.59571  0.73611  0.65142  1.0000
  H   H6        1.0  0.40428  0.26388  0.34859  1.0000
  H   H7        1.0  0.12179  0.77141  0.92834  1.0000
  H   H8        1.0  0.87820  0.22858  0.07167  1.0000
  H   H9        1.0  0.54201  0.91853  0.79449  1.0000
  H   H10       1.0  0.45799  0.08147  0.20550  1.0000
  H   H11       1.0  0.66700  0.91438  0.90092  1.0000
  H   H12       1.0  0.33300  0.08562  0.09908  1.0000
  H   H13       1.0  0.25750  0.38764  0.78079  1.0000
  H   H14       1.0  0.74250  0.61236  0.21920  1.0000
  C   C1        1.0  0.99432  0.62562  0.78137  1.0000
  C   C2        1.0  0.00568  0.37438  0.21862  1.0000
  C   C3        1.0  0.97329  0.55344  0.68785  1.0000
  C   C4        1.0  0.02671  0.44656  0.31215  1.0000
  C   C5        1.0  0.82649  0.59538  0.63994  1.0000
  C   C6        1.0  0.17351  0.40462  0.36007  1.0000
  C   C7        1.0  0.71073  0.70230  0.68739  1.0000
  C   C8        1.0  0.28927  0.29770  0.31261  1.0000
  C   C9        1.0  0.74197  0.76288  0.78783  1.0000
  C   C10       1.0  0.25803  0.23712  0.21216  1.0000
  C   C11       1.0  0.19068  0.67133  0.90499  1.0000
  C   C12       1.0  0.80931  0.32866  0.09501  1.0000
  C   C13       1.0  0.26037  0.47575  0.82614  1.0000
  C   C14       1.0  0.73963  0.52426  0.17386  1.0000
  C   C15       1.0  0.16158  0.84108  0.23760  1.0000
  C   C16       1.0  0.83842  0.15889  0.76245  1.0000
  C   C17       1.0  0.68867  0.11264  0.48795  1.0000
  C   C18       1.0  0.31133  0.88736  0.51205  1.0000
  C   C19       1.0  0.20482  0.08065  0.86192  1.0000
  C   C20       1.0  0.79520  0.91937  0.13805  1.0000
  N   N1        1.0  0.33312  0.60930  0.93654  1.0000
  N   N2        1.0  0.66687  0.39070  0.06347  1.0000
  N   N3        1.0  0.37785  0.48472  0.88575  1.0000
  N   N4        1.0  0.62215  0.51528  0.11425  1.0000
  N   N5        1.0  0.14082  0.59164  0.83474  1.0000
  N   N6        1.0  0.85918  0.40836  0.16526  1.0000
  N   N7        1.0  0.88461  0.72754  0.83122  1.0000
  N   N8        1.0  0.11540  0.27246  0.16877  1.0000
  N   N9        1.0  0.61883  0.85140  0.85895  1.0000
  N   N10       1.0  0.38117  0.14860  0.14104  1.0000
  N   N11       1.0  0.27976  0.77507  0.17903  1.0000
  N   N12       1.0  0.72023  0.22491  0.82099  1.0000
  N   N13       1.0  0.80000  0.04787  0.42095  1.0000
  N   N14       1.0  0.19999  0.95213  0.57904  1.0000
  N   N15       1.0  0.33394  0.13232  0.77079  1.0000
  N   N16       1.0  0.66607  0.86770  0.22920  1.0000
  N   N17       1.0  0.49955  0.43318  0.52142  1.0000
  N   N18       1.0  0.50047  0.56683  0.47858  1.0000
