data_image0
_chemical_formula_structural       Cu4H14C18S4N14
_chemical_formula_sum              "Cu4 H14 C18 S4 N14"
_cell_length_a       5.72426
_cell_length_b       9.47411
_cell_length_c       11.3888
_cell_angle_alpha    90.0011
_cell_angle_beta     89.999
_cell_angle_gamma    93.4687

_space_group_name_H-M_alt    "P 1"
_space_group_IT_number       1

loop_
  _space_group_symop_operation_xyz
  'x, y, z'

loop_
  _atom_site_type_symbol
  _atom_site_label
  _atom_site_symmetry_multiplicity
  _atom_site_fract_x
  _atom_site_fract_y
  _atom_site_fract_z
  _atom_site_occupancy
  Cu  Cu1       1.0  0.32293  0.46810  0.79021  1.0000
  Cu  Cu2       1.0  0.67705  0.53189  0.29020  1.0000
  Cu  Cu3       1.0  0.47270  0.43858  0.55249  1.0000
  Cu  Cu4       1.0  0.52729  0.56142  0.05249  1.0000
  H   H1        1.0  0.45210  0.11185  0.14619  1.0000
  H   H2        1.0  0.54790  0.88816  0.64620  1.0000
  H   H3        1.0  0.60180  0.97183  0.09231  1.0000
  H   H4        1.0  0.39819  0.02816  0.59232  1.0000
  H   H5        1.0  0.86155  0.01037  0.74754  1.0000
  H   H6        1.0  0.13845  0.98962  0.24755  1.0000
  H   H7        1.0  0.16410  0.83106  0.75454  1.0000
  H   H8        1.0  0.83592  0.16893  0.25455  1.0000
  H   H9        1.0  0.45687  0.83823  0.91689  1.0000
  H   H10       1.0  0.54313  0.16177  0.41691  1.0000
  H   H11       1.0  0.60037  0.16775  0.76200  1.0000
  H   H12       1.0  0.39965  0.83225  0.26200  1.0000
  H   H13       1.0  0.94428  0.33499  0.06587  1.0000
  H   H14       1.0  0.05573  0.66502  0.56587  1.0000
  C   C1        1.0  0.98774  0.10546  0.91142  1.0000
  C   C2        1.0  0.01227  0.89454  0.41142  1.0000
  C   C3        1.0  0.98640  0.00923  0.81938  1.0000
  C   C4        1.0  0.01361  0.99076  0.31938  1.0000
  C   C5        1.0  0.15906  0.91090  0.82317  1.0000
  C   C6        1.0  0.84094  0.08909  0.32318  1.0000
  C   C7        1.0  0.32119  0.91397  0.91348  1.0000
  C   C8        1.0  0.67881  0.08603  0.41349  1.0000
  C   C9        1.0  0.30163  0.01522  0.00339  1.0000
  C   C10       1.0  0.69837  0.98479  0.50340  1.0000
  C   C11       1.0  0.64250  0.23293  0.83825  1.0000
  C   C12       1.0  0.35751  0.76707  0.33825  1.0000
  C   C13       1.0  0.81799  0.31890  0.99565  1.0000
  C   C14       1.0  0.18202  0.68110  0.49566  1.0000
  C   C15       1.0  0.84772  0.59255  0.76812  1.0000
  C   C16       1.0  0.15228  0.40745  0.26812  1.0000
  C   C17       1.0  0.95658  0.32811  0.58318  1.0000
  C   C18       1.0  0.04341  0.67189  0.08318  1.0000
  S   S1        1.0  0.59236  0.65514  0.74497  1.0000
  S   S2        1.0  0.40762  0.34486  0.24497  1.0000
  S   S3        1.0  0.21186  0.26714  0.61290  1.0000
  S   S4        1.0  0.78812  0.73286  0.11290  1.0000
  N   N1        1.0  0.44819  0.01996  0.09925  1.0000
  N   N2        1.0  0.55181  0.98005  0.59927  1.0000
  N   N3        1.0  0.13427  0.10906  0.00228  1.0000
  N   N4        1.0  0.86573  0.89095  0.50229  1.0000
  N   N5        1.0  0.82314  0.21309  0.91420  1.0000
  N   N6        1.0  0.17687  0.78691  0.41420  1.0000
  N   N7        1.0  0.52986  0.34347  0.87237  1.0000
  N   N8        1.0  0.47015  0.65653  0.37237  1.0000
  N   N9        1.0  0.64112  0.39752  0.97254  1.0000
  N   N10       1.0  0.35890  0.60249  0.47254  1.0000
  N   N11       1.0  0.02861  0.54214  0.78521  1.0000
  N   N12       1.0  0.97137  0.45786  0.28522  1.0000
  N   N13       1.0  0.77348  0.37404  0.56419  1.0000
  N   N14       1.0  0.22651  0.62596  0.06419  1.0000
