data_image0
_chemical_formula_structural       Cd3H40C48I6N16
_chemical_formula_sum              "Cd3 H40 C48 I6 N16"
_cell_length_a       8.49178
_cell_length_b       13.1776
_cell_length_c       13.9066
_cell_angle_alpha    71.8403
_cell_angle_beta     83.1517
_cell_angle_gamma    80.9806

_space_group_name_H-M_alt    "P 1"
_space_group_IT_number       1

loop_
  _space_group_symop_operation_xyz
  'x, y, z'

loop_
  _atom_site_type_symbol
  _atom_site_label
  _atom_site_symmetry_multiplicity
  _atom_site_fract_x
  _atom_site_fract_y
  _atom_site_fract_z
  _atom_site_occupancy
  Cd  Cd1       1.0  0.50000  0.50000  0.50000  1.0000
  Cd  Cd2       1.0  0.74247  0.20892  0.08789  1.0000
  Cd  Cd3       1.0  0.25753  0.79108  0.91211  1.0000
  H   H1        1.0  0.28619  0.29598  0.67220  1.0000
  H   H2        1.0  0.71381  0.70402  0.32780  1.0000
  H   H3        1.0  0.14559  0.13159  0.73059  1.0000
  H   H4        1.0  0.85441  0.86840  0.26941  1.0000
  H   H5        1.0  0.99853  0.08158  0.61432  1.0000
  H   H6        1.0  0.00146  0.91843  0.38568  1.0000
  H   H7        1.0  0.97301  0.19617  0.43404  1.0000
  H   H8        1.0  0.02699  0.80383  0.56596  1.0000
  H   H9        1.0  0.08748  0.32337  0.25342  1.0000
  H   H10       1.0  0.91252  0.67663  0.74658  1.0000
  H   H11       1.0  0.14404  0.45551  0.20796  1.0000
  H   H12       1.0  0.85597  0.54450  0.79204  1.0000
  H   H13       1.0  0.84385  0.43891  0.42034  1.0000
  H   H14       1.0  0.15615  0.56109  0.57966  1.0000
  H   H15       1.0  0.45009  0.55991  0.25053  1.0000
  H   H16       1.0  0.54991  0.44009  0.74947  1.0000
  H   H17       1.0  0.61109  0.54513  0.09100  1.0000
  H   H18       1.0  0.38891  0.45487  0.90900  1.0000
  H   H19       1.0  0.90171  0.47248  0.09972  1.0000
  H   H20       1.0  0.09829  0.52752  0.90028  1.0000
  H   H21       1.0  0.42632  0.70252  0.63195  1.0000
  H   H22       1.0  0.57368  0.29748  0.36805  1.0000
  H   H23       1.0  0.37893  0.88305  0.65621  1.0000
  H   H24       1.0  0.62107  0.11695  0.34378  1.0000
  H   H25       1.0  0.30968  0.04695  0.51467  1.0000
  H   H26       1.0  0.69031  0.95305  0.48532  1.0000
  H   H27       1.0  0.28829  0.03804  0.34070  1.0000
  H   H28       1.0  0.71170  0.96196  0.65930  1.0000
  H   H29       1.0  0.23766  0.95903  0.19973  1.0000
  H   H30       1.0  0.76235  0.04097  0.80027  1.0000
  H   H31       1.0  0.26730  0.83478  0.16935  1.0000
  H   H32       1.0  0.73270  0.16522  0.83065  1.0000
  H   H33       1.0  0.45269  0.07278  0.16537  1.0000
  H   H34       1.0  0.54731  0.92722  0.83463  1.0000
  H   H35       1.0  0.88316  0.99524  0.01522  1.0000
  H   H36       1.0  0.11684  0.00476  0.98478  1.0000
  H   H37       1.0  0.81312  0.81520  0.02415  1.0000
  H   H38       1.0  0.18689  0.18480  0.97585  1.0000
  H   H39       1.0  0.54689  0.76256  0.11065  1.0000
  H   H40       1.0  0.45312  0.23744  0.88935  1.0000
  C   C1        1.0  0.20838  0.33769  0.51932  1.0000
  C   C2        1.0  0.79162  0.66230  0.48068  1.0000
  C   C3        1.0  0.21952  0.27429  0.62096  1.0000
  C   C4        1.0  0.78048  0.72570  0.37905  1.0000
  C   C5        1.0  0.14101  0.18347  0.65243  1.0000
  C   C6        1.0  0.85899  0.81652  0.34757  1.0000
  C   C7        1.0  0.05373  0.15566  0.58566  1.0000
  C   C8        1.0  0.94626  0.84434  0.41434  1.0000
  C   C9        1.0  0.03967  0.21805  0.48539  1.0000
  C   C10       1.0  0.96033  0.78195  0.51461  1.0000
  C   C11       1.0  0.11924  0.30980  0.45377  1.0000
  C   C12       1.0  0.88077  0.69020  0.54623  1.0000
  C   C13       1.0  0.07056  0.40258  0.26716  1.0000
  C   C14       1.0  0.92945  0.59743  0.73284  1.0000
  C   C15       1.0  0.89663  0.44883  0.26141  1.0000
  C   C16       1.0  0.10337  0.55117  0.73859  1.0000
  C   C17       1.0  0.79799  0.46083  0.34558  1.0000
  C   C18       1.0  0.20201  0.53917  0.65442  1.0000
  C   C19       1.0  0.57697  0.52919  0.25097  1.0000
  C   C20       1.0  0.42304  0.47081  0.74903  1.0000
  C   C21       1.0  0.66742  0.52050  0.16262  1.0000
  C   C22       1.0  0.33258  0.47950  0.83738  1.0000
  C   C23       1.0  0.82866  0.48005  0.16781  1.0000
  C   C24       1.0  0.17134  0.51995  0.83219  1.0000
  C   C25       1.0  0.37963  0.76814  0.47125  1.0000
  C   C26       1.0  0.62036  0.23186  0.52875  1.0000
  C   C27       1.0  0.39510  0.77381  0.56888  1.0000
  C   C28       1.0  0.60490  0.22619  0.43112  1.0000
  C   C29       1.0  0.36846  0.87541  0.58156  1.0000
  C   C30       1.0  0.63154  0.12459  0.41844  1.0000
  C   C31       1.0  0.32919  0.96920  0.50033  1.0000
  C   C32       1.0  0.67081  0.03080  0.49967  1.0000
  C   C33       1.0  0.31722  0.96535  0.40296  1.0000
  C   C34       1.0  0.68278  0.03465  0.59704  1.0000
  C   C35       1.0  0.34338  0.86246  0.39020  1.0000
  C   C36       1.0  0.65662  0.13754  0.60980  1.0000
  C   C37       1.0  0.32147  0.88569  0.20240  1.0000
  C   C38       1.0  0.67853  0.11431  0.79760  1.0000
  C   C39       1.0  0.48081  0.91242  0.14754  1.0000
  C   C40       1.0  0.51919  0.08758  0.85246  1.0000
  C   C41       1.0  0.53001  0.01162  0.13749  1.0000
  C   C42       1.0  0.46999  0.98838  0.86251  1.0000
  C   C43       1.0  0.76994  0.96895  0.05274  1.0000
  C   C44       1.0  0.23006  0.03105  0.94726  1.0000
  C   C45       1.0  0.73004  0.86874  0.05785  1.0000
  C   C46       1.0  0.26996  0.13126  0.94215  1.0000
  C   C47       1.0  0.58300  0.83996  0.10618  1.0000
  C   C48       1.0  0.41700  0.16004  0.89382  1.0000
  I   I1        1.0  0.86148  0.31154  0.89382  1.0000
  I   I2        1.0  0.13852  0.68846  0.10618  1.0000
  I   I3        1.0  0.99096  0.13660  0.21703  1.0000
  I   I4        1.0  0.00905  0.86340  0.78297  1.0000
  I   I5        1.0  0.44451  0.29761  0.14673  1.0000
  I   I6        1.0  0.55549  0.70239  0.85327  1.0000
  N   N1        1.0  0.13563  0.38908  0.36307  1.0000
  N   N2        1.0  0.86437  0.61092  0.63693  1.0000
  N   N3        1.0  0.22827  0.46023  0.37062  1.0000
  N   N4        1.0  0.77173  0.53977  0.62938  1.0000
  N   N5        1.0  0.27276  0.43031  0.46356  1.0000
  N   N6        1.0  0.72724  0.56968  0.53644  1.0000
  N   N7        1.0  0.64168  0.49985  0.34091  1.0000
  N   N8        1.0  0.35832  0.50015  0.65909  1.0000
  N   N9        1.0  0.33880  0.82516  0.30897  1.0000
  N   N10       1.0  0.66120  0.17484  0.69103  1.0000
  N   N11       1.0  0.37017  0.71722  0.33592  1.0000
  N   N12       1.0  0.62983  0.28278  0.66408  1.0000
  N   N13       1.0  0.39377  0.68214  0.43297  1.0000
  N   N14       1.0  0.60623  0.31786  0.56703  1.0000
  N   N15       1.0  0.67172  0.03945  0.09135  1.0000
  N   N16       1.0  0.32828  0.96055  0.90865  1.0000
