data_image0
_chemical_formula_structural       Cd2H32C32I4N16
_chemical_formula_sum              "Cd2 H32 C32 I4 N16"
_cell_length_a       8.15103
_cell_length_b       8.79889
_cell_length_c       16.5374
_cell_angle_alpha    90.0001
_cell_angle_beta     90
_cell_angle_gamma    116.063

_space_group_name_H-M_alt    "P 1"
_space_group_IT_number       1

loop_
  _space_group_symop_operation_xyz
  'x, y, z'

loop_
  _atom_site_type_symbol
  _atom_site_label
  _atom_site_symmetry_multiplicity
  _atom_site_fract_x
  _atom_site_fract_y
  _atom_site_fract_z
  _atom_site_occupancy
  Cd  Cd1       1.0  1.00000  0.50000  0.50000  1.0000
  Cd  Cd2       1.0  1.00000  0.00000  0.00000  1.0000
  H   H1        1.0  0.52371  0.32830  0.44645  1.0000
  H   H2        1.0  0.47629  0.17170  0.94645  1.0000
  H   H3        1.0  0.47629  0.67170  0.55355  1.0000
  H   H4        1.0  0.52371  0.82830  0.05355  1.0000
  H   H5        1.0  0.86428  0.08500  0.42149  1.0000
  H   H6        1.0  0.13572  0.41500  0.92149  1.0000
  H   H7        1.0  0.13572  0.91500  0.57851  1.0000
  H   H8        1.0  0.86428  0.58500  0.07851  1.0000
  H   H9        1.0  0.22149  0.06334  0.42015  1.0000
  H   H10       1.0  0.77851  0.43666  0.92015  1.0000
  H   H11       1.0  0.77851  0.93665  0.57985  1.0000
  H   H12       1.0  0.22149  0.56335  0.07985  1.0000
  H   H13       1.0  0.23215  0.87264  0.39482  1.0000
  H   H14       1.0  0.76785  0.62736  0.89482  1.0000
  H   H15       1.0  0.76785  0.12736  0.60518  1.0000
  H   H16       1.0  0.23215  0.37264  0.10518  1.0000
  H   H17       1.0  0.50419  0.08273  0.23782  1.0000
  H   H18       1.0  0.49581  0.41727  0.73782  1.0000
  H   H19       1.0  0.49581  0.91727  0.76218  1.0000
  H   H20       1.0  0.50419  0.58273  0.26218  1.0000
  H   H21       1.0  0.39487  0.09091  0.09876  1.0000
  H   H22       1.0  0.60513  0.40909  0.59876  1.0000
  H   H23       1.0  0.60513  0.90909  0.90124  1.0000
  H   H24       1.0  0.39487  0.59091  0.40124  1.0000
  H   H25       1.0  0.87864  0.99957  0.18047  1.0000
  H   H26       1.0  0.12136  0.50043  0.68047  1.0000
  H   H27       1.0  0.12136  0.00043  0.81953  1.0000
  H   H28       1.0  0.87864  0.49957  0.31953  1.0000
  H   H29       1.0  0.96221  0.97238  0.32352  1.0000
  H   H30       1.0  0.03779  0.52762  0.82352  1.0000
  H   H31       1.0  0.03779  0.02762  0.67648  1.0000
  H   H32       1.0  0.96221  0.47238  0.17648  1.0000
  C   C1        1.0  0.57834  0.23909  0.43164  1.0000
  C   C2        1.0  0.42166  0.26091  0.93164  1.0000
  C   C3        1.0  0.42166  0.76091  0.56836  1.0000
  C   C4        1.0  0.57834  0.73909  0.06836  1.0000
  C   C5        1.0  0.74657  0.11161  0.41748  1.0000
  C   C6        1.0  0.25343  0.38839  0.91748  1.0000
  C   C7        1.0  0.25343  0.88839  0.58252  1.0000
  C   C8        1.0  0.74657  0.61161  0.08252  1.0000
  C   C9        1.0  0.28683  0.00747  0.37929  1.0000
  C   C10       1.0  0.71316  0.49253  0.87929  1.0000
  C   C11       1.0  0.71316  0.99253  0.62071  1.0000
  C   C12       1.0  0.28684  0.50747  0.12071  1.0000
  C   C13       1.0  0.24087  0.02596  0.29275  1.0000
  C   C14       1.0  0.75913  0.47404  0.79275  1.0000
  C   C15       1.0  0.75913  0.97404  0.70725  1.0000
  C   C16       1.0  0.24087  0.52596  0.20725  1.0000
  C   C17       1.0  0.36335  0.06132  0.22846  1.0000
  C   C18       1.0  0.63665  0.43868  0.72846  1.0000
  C   C19       1.0  0.63665  0.93867  0.77154  1.0000
  C   C20       1.0  0.36335  0.56132  0.27154  1.0000
  C   C21       1.0  0.30283  0.06722  0.15017  1.0000
  C   C22       1.0  0.69717  0.43278  0.65017  1.0000
  C   C23       1.0  0.69717  0.93278  0.84983  1.0000
  C   C24       1.0  0.30283  0.56722  0.34983  1.0000
  C   C25       1.0  0.01487  0.01376  0.19603  1.0000
  C   C26       1.0  0.98513  0.48624  0.69603  1.0000
  C   C27       1.0  0.98513  0.98624  0.80397  1.0000
  C   C28       1.0  0.01487  0.51376  0.30397  1.0000
  C   C29       1.0  0.06312  0.00256  0.27545  1.0000
  C   C30       1.0  0.93688  0.49744  0.77545  1.0000
  C   C31       1.0  0.93688  0.99744  0.72455  1.0000
  C   C32       1.0  0.06312  0.50256  0.22455  1.0000
  I   I1        1.0  0.80272  0.70382  0.45839  1.0000
  I   I2        1.0  0.19728  0.79619  0.95839  1.0000
  I   I3        1.0  0.19727  0.29618  0.54161  1.0000
  I   I4        1.0  0.80272  0.20382  0.04161  1.0000
  N   N1        1.0  0.48016  0.08582  0.39853  1.0000
  N   N2        1.0  0.51984  0.41418  0.89853  1.0000
  N   N3        1.0  0.51984  0.91418  0.60147  1.0000
  N   N4        1.0  0.48016  0.58582  0.10147  1.0000
  N   N5        1.0  0.58560  0.00197  0.38876  1.0000
  N   N6        1.0  0.41440  0.49803  0.88876  1.0000
  N   N7        1.0  0.41440  0.99803  0.61124  1.0000
  N   N8        1.0  0.58560  0.50197  0.11124  1.0000
  N   N9        1.0  0.74834  0.25904  0.44458  1.0000
  N   N10       1.0  0.25166  0.24096  0.94458  1.0000
  N   N11       1.0  0.25166  0.74096  0.55542  1.0000
  N   N12       1.0  0.74834  0.75904  0.05542  1.0000
  N   N13       1.0  0.13166  0.04344  0.13390  1.0000
  N   N14       1.0  0.86834  0.45656  0.63390  1.0000
  N   N15       1.0  0.86834  0.95656  0.86610  1.0000
  N   N16       1.0  0.13166  0.54344  0.36610  1.0000
