data_image0
_chemical_formula_structural       Cd4H24C32S8N20
_chemical_formula_sum              "Cd4 H24 C32 S8 N20"
_cell_length_a       9.91983
_cell_length_b       9.91987
_cell_length_c       12.2825
_cell_angle_alpha    83.1281
_cell_angle_beta     83.1286
_cell_angle_gamma    83.511

_space_group_name_H-M_alt    "P 1"
_space_group_IT_number       1

loop_
  _space_group_symop_operation_xyz
  'x, y, z'

loop_
  _atom_site_type_symbol
  _atom_site_label
  _atom_site_symmetry_multiplicity
  _atom_site_fract_x
  _atom_site_fract_y
  _atom_site_fract_z
  _atom_site_occupancy
  Cd  Cd1       1.0  0.64469  0.23821  0.94601  1.0000
  Cd  Cd2       1.0  0.76179  0.35531  0.55399  1.0000
  Cd  Cd3       1.0  0.35531  0.76179  0.05399  1.0000
  Cd  Cd4       1.0  0.23822  0.64469  0.44602  1.0000
  H   H1        1.0  0.77808  0.32116  0.15746  1.0000
  H   H2        1.0  0.67884  0.22193  0.34254  1.0000
  H   H3        1.0  0.22192  0.67884  0.84254  1.0000
  H   H4        1.0  0.32116  0.77807  0.65746  1.0000
  H   H5        1.0  0.00374  0.36798  0.21132  1.0000
  H   H6        1.0  0.63202  0.99626  0.28868  1.0000
  H   H7        1.0  0.99626  0.63202  0.78868  1.0000
  H   H8        1.0  0.36798  0.00374  0.71133  1.0000
  H   H9        1.0  0.20748  0.35951  0.06889  1.0000
  H   H10       1.0  0.64048  0.79252  0.43112  1.0000
  H   H11       1.0  0.79252  0.64049  0.93111  1.0000
  H   H12       1.0  0.35951  0.20748  0.56889  1.0000
  H   H13       1.0  0.18016  0.30280  0.88224  1.0000
  H   H14       1.0  0.69720  0.81985  0.61776  1.0000
  H   H15       1.0  0.81984  0.69721  0.11775  1.0000
  H   H16       1.0  0.30280  0.18016  0.38224  1.0000
  H   H17       1.0  0.01903  0.24855  0.64912  1.0000
  H   H18       1.0  0.75146  0.98097  0.85088  1.0000
  H   H19       1.0  0.98097  0.75146  0.35088  1.0000
  H   H20       1.0  0.24854  0.01903  0.14912  1.0000
  H   H21       1.0  0.11428  0.32220  0.72931  1.0000
  H   H22       1.0  0.67780  0.88572  0.77069  1.0000
  H   H23       1.0  0.88572  0.67779  0.27069  1.0000
  H   H24       1.0  0.32220  0.11428  0.22931  1.0000
  C   C1        1.0  0.87005  0.31716  0.09900  1.0000
  C   C2        1.0  0.68284  0.12996  0.40100  1.0000
  C   C3        1.0  0.12995  0.68284  0.90100  1.0000
  C   C4        1.0  0.31716  0.87004  0.59900  1.0000
  C   C5        1.0  0.99514  0.34377  0.12843  1.0000
  C   C6        1.0  0.65622  0.00486  0.37157  1.0000
  C   C7        1.0  0.00486  0.65623  0.87157  1.0000
  C   C8        1.0  0.34376  0.99514  0.62843  1.0000
  C   C9        1.0  0.10789  0.33911  0.04935  1.0000
  C   C10       1.0  0.66089  0.89211  0.45065  1.0000
  C   C11       1.0  0.89211  0.66089  0.95065  1.0000
  C   C12       1.0  0.33911  0.10789  0.54935  1.0000
  C   C13       1.0  0.09184  0.30840  0.94404  1.0000
  C   C14       1.0  0.69160  0.90816  0.55596  1.0000
  C   C15       1.0  0.90816  0.69160  0.05596  1.0000
  C   C16       1.0  0.30840  0.09184  0.44404  1.0000
  C   C17       1.0  0.96330  0.28221  0.92089  1.0000
  C   C18       1.0  0.71779  0.03670  0.57911  1.0000
  C   C19       1.0  0.03670  0.71779  0.07911  1.0000
  C   C20       1.0  0.28221  0.96330  0.42089  1.0000
  C   C21       1.0  0.94019  0.24648  0.81078  1.0000
  C   C22       1.0  0.75352  0.05981  0.68922  1.0000
  C   C23       1.0  0.05981  0.75352  0.18922  1.0000
  C   C24       1.0  0.24648  0.94019  0.31078  1.0000
  C   C25       1.0  0.55339  0.58000  0.86950  1.0000
  C   C26       1.0  0.42001  0.44661  0.63049  1.0000
  C   C27       1.0  0.44661  0.42001  0.13049  1.0000
  C   C28       1.0  0.58000  0.55339  0.36950  1.0000
  C   C29       1.0  0.62688  0.92076  0.07709  1.0000
  C   C30       1.0  0.07925  0.37312  0.42291  1.0000
  C   C31       1.0  0.37312  0.07924  0.92291  1.0000
  C   C32       1.0  0.92076  0.62688  0.57709  1.0000
  S   S1        1.0  0.49042  0.73985  0.85029  1.0000
  S   S2        1.0  0.26016  0.50957  0.64970  1.0000
  S   S3        1.0  0.50958  0.26016  0.14970  1.0000
  S   S4        1.0  0.73985  0.49043  0.35029  1.0000
  S   S5        1.0  0.56115  0.80349  0.16587  1.0000
  S   S6        1.0  0.19651  0.43885  0.33413  1.0000
  S   S7        1.0  0.43885  0.19651  0.83413  1.0000
  S   S8        1.0  0.80349  0.56115  0.66587  1.0000
  N   N1        1.0  0.85463  0.28705  0.99826  1.0000
  N   N2        1.0  0.71295  0.14538  0.50174  1.0000
  N   N3        1.0  0.14537  0.71294  0.00174  1.0000
  N   N4        1.0  0.28705  0.85463  0.49826  1.0000
  N   N5        1.0  0.82460  0.19668  0.80287  1.0000
  N   N6        1.0  0.80332  0.17540  0.69714  1.0000
  N   N7        1.0  0.17540  0.80332  0.19714  1.0000
  N   N8        1.0  0.19668  0.82460  0.30286  1.0000
  N   N9        1.0  0.04013  0.25976  0.72690  1.0000
  N   N10       1.0  0.74024  0.95987  0.77310  1.0000
  N   N11       1.0  0.95987  0.74024  0.27310  1.0000
  N   N12       1.0  0.25976  0.04013  0.22690  1.0000
  N   N13       1.0  0.60164  0.46587  0.88290  1.0000
  N   N14       1.0  0.53414  0.39836  0.61709  1.0000
  N   N15       1.0  0.39836  0.53414  0.11709  1.0000
  N   N16       1.0  0.46587  0.60164  0.38290  1.0000
  N   N17       1.0  0.67951  0.00430  0.01408  1.0000
  N   N18       1.0  0.99569  0.32049  0.48592  1.0000
  N   N19       1.0  0.32049  0.99569  0.98592  1.0000
  N   N20       1.0  0.00431  0.67951  0.51408  1.0000
