data_image0
_chemical_formula_structural       Zn4H44C60N4O16
_chemical_formula_sum              "Zn4 H44 C60 N4 O16"
_cell_length_a       6.92552
_cell_length_b       9.3879
_cell_length_c       21.8416
_cell_angle_alpha    90
_cell_angle_beta     90
_cell_angle_gamma    111.109

_space_group_name_H-M_alt    "P 1"
_space_group_IT_number       1

loop_
  _space_group_symop_operation_xyz
  'x, y, z'

loop_
  _atom_site_type_symbol
  _atom_site_label
  _atom_site_symmetry_multiplicity
  _atom_site_fract_x
  _atom_site_fract_y
  _atom_site_fract_z
  _atom_site_occupancy
  Zn  Zn1       1.0  0.67245  0.44883  0.74562  1.0000
  Zn  Zn2       1.0  0.82754  0.05117  0.24562  1.0000
  Zn  Zn3       1.0  0.32755  0.55117  0.25439  1.0000
  Zn  Zn4       1.0  0.17245  0.94883  0.75438  1.0000
  H   H1        1.0  0.66772  0.71161  0.82587  1.0000
  H   H2        1.0  0.83228  0.78838  0.32587  1.0000
  H   H3        1.0  0.33228  0.28838  0.17413  1.0000
  H   H4        1.0  0.16771  0.21161  0.67413  1.0000
  H   H5        1.0  0.40643  0.76754  0.88985  1.0000
  H   H6        1.0  0.09358  0.73246  0.38985  1.0000
  H   H7        1.0  0.59358  0.23246  0.11015  1.0000
  H   H8        1.0  0.90641  0.26754  0.61015  1.0000
  H   H9        1.0  0.99517  0.30095  0.85805  1.0000
  H   H10       1.0  0.50482  0.19905  0.35804  1.0000
  H   H11       1.0  0.00481  0.69905  0.14196  1.0000
  H   H12       1.0  0.49517  0.80095  0.64195  1.0000
  H   H13       1.0  0.26575  0.26794  0.79363  1.0000
  H   H14       1.0  0.23422  0.23206  0.29363  1.0000
  H   H15       1.0  0.73422  0.73206  0.20637  1.0000
  H   H16       1.0  0.76576  0.76794  0.70637  1.0000
  H   H17       1.0  0.07212  0.67916  0.94126  1.0000
  H   H18       1.0  0.42788  0.82084  0.44126  1.0000
  H   H19       1.0  0.92788  0.32084  0.05874  1.0000
  H   H20       1.0  0.57212  0.17916  0.55874  1.0000
  H   H21       1.0  0.77563  0.36032  0.90119  1.0000
  H   H22       1.0  0.72437  0.13968  0.40119  1.0000
  H   H23       1.0  0.22437  0.63968  0.09881  1.0000
  H   H24       1.0  0.27563  0.86032  0.59880  1.0000
  H   H25       1.0  0.83441  0.71962  0.99517  1.0000
  H   H26       1.0  0.66560  0.78039  0.49516  1.0000
  H   H27       1.0  0.16559  0.28039  0.00484  1.0000
  H   H28       1.0  0.33441  0.21963  0.50484  1.0000
  H   H29       1.0  0.45070  0.26200  0.94212  1.0000
  H   H30       1.0  0.04930  0.23801  0.44212  1.0000
  H   H31       1.0  0.54930  0.73800  0.05788  1.0000
  H   H32       1.0  0.95071  0.76201  0.55788  1.0000
  H   H33       1.0  0.83423  0.45932  0.50790  1.0000
  H   H34       1.0  0.66577  0.04068  0.00789  1.0000
  H   H35       1.0  0.16578  0.54069  0.49211  1.0000
  H   H36       1.0  0.33423  0.95932  0.99210  1.0000
  H   H37       1.0  0.31536  0.52436  0.59496  1.0000
  H   H38       1.0  0.18465  0.97564  0.09496  1.0000
  H   H39       1.0  0.68466  0.47566  0.40504  1.0000
  H   H40       1.0  0.81536  0.02435  0.90504  1.0000
  H   H41       1.0  0.13438  0.54209  0.72061  1.0000
  H   H42       1.0  0.36561  0.95790  0.22060  1.0000
  H   H43       1.0  0.86560  0.45790  0.27940  1.0000
  H   H44       1.0  0.63438  0.04209  0.77939  1.0000
  C   C1        1.0  0.51509  0.62470  0.83367  1.0000
  C   C2        1.0  0.98491  0.87529  0.33366  1.0000
  C   C3        1.0  0.48491  0.37529  0.16634  1.0000
  C   C4        1.0  0.01509  0.12470  0.66633  1.0000
  C   C5        1.0  0.36973  0.65401  0.87020  1.0000
  C   C6        1.0  0.13027  0.84599  0.37019  1.0000
  C   C7        1.0  0.63027  0.34599  0.12981  1.0000
  C   C8        1.0  0.86973  0.15400  0.62980  1.0000
  C   C9        1.0  0.17448  0.53923  0.88024  1.0000
  C   C10       1.0  0.32552  0.96077  0.38023  1.0000
  C   C11       1.0  0.82552  0.46077  0.11977  1.0000
  C   C12       1.0  0.67448  0.03923  0.61976  1.0000
  C   C13       1.0  0.13980  0.39674  0.85237  1.0000
  C   C14       1.0  0.36020  0.10326  0.35237  1.0000
  C   C15       1.0  0.86020  0.60326  0.14763  1.0000
  C   C16       1.0  0.63979  0.89673  0.64763  1.0000
  C   C17       1.0  0.29044  0.37664  0.81595  1.0000
  C   C18       1.0  0.20954  0.12335  0.31595  1.0000
  C   C19       1.0  0.70954  0.62335  0.18405  1.0000
  C   C20       1.0  0.79045  0.87664  0.68405  1.0000
  C   C21       1.0  0.02060  0.56885  0.91801  1.0000
  C   C22       1.0  0.47940  0.93115  0.41801  1.0000
  C   C23       1.0  0.97940  0.43114  0.08199  1.0000
  C   C24       1.0  0.52060  0.06885  0.58199  1.0000
  C   C25       1.0  0.82405  0.46921  0.92570  1.0000
  C   C26       1.0  0.67595  0.03079  0.42570  1.0000
  C   C27       1.0  0.17596  0.53079  0.07430  1.0000
  C   C28       1.0  0.32405  0.96921  0.57430  1.0000
  C   C29       1.0  0.66380  0.48894  0.96362  1.0000
  C   C30       1.0  0.83620  0.01107  0.46362  1.0000
  C   C31       1.0  0.33620  0.51107  0.03638  1.0000
  C   C32       1.0  0.16380  0.98894  0.53637  1.0000
  C   C33       1.0  0.68847  0.62303  0.99693  1.0000
  C   C34       1.0  0.81153  0.87697  0.49692  1.0000
  C   C35       1.0  0.31153  0.37697  0.00307  1.0000
  C   C36       1.0  0.18847  0.12304  0.50307  1.0000
  C   C37       1.0  0.47170  0.36650  0.96766  1.0000
  C   C38       1.0  0.02830  0.13351  0.46766  1.0000
  C   C39       1.0  0.52830  0.63350  0.03234  1.0000
  C   C40       1.0  0.97171  0.86650  0.53233  1.0000
  C   C41       1.0  0.67995  0.48424  0.61893  1.0000
  C   C42       1.0  0.82006  0.01575  0.11892  1.0000
  C   C43       1.0  0.32007  0.51577  0.38108  1.0000
  C   C44       1.0  0.17995  0.98424  0.88107  1.0000
  C   C45       1.0  0.58508  0.49189  0.55767  1.0000
  C   C46       1.0  0.91493  0.00812  0.05766  1.0000
  C   C47       1.0  0.41495  0.50813  0.44234  1.0000
  C   C48       1.0  0.08508  0.99188  0.94234  1.0000
  C   C49       1.0  0.68771  0.47713  0.50400  1.0000
  C   C50       1.0  0.81231  0.02288  0.00400  1.0000
  C   C51       1.0  0.31232  0.52289  0.49601  1.0000
  C   C52       1.0  0.18771  0.97712  0.99600  1.0000
  C   C53       1.0  0.39600  0.51452  0.55326  1.0000
  C   C54       1.0  0.10401  0.98549  0.05325  1.0000
  C   C55       1.0  0.60402  0.48551  0.44675  1.0000
  C   C56       1.0  0.89600  0.01451  0.94675  1.0000
  C   C57       1.0  0.10514  0.64460  0.73576  1.0000
  C   C58       1.0  0.39484  0.85539  0.23576  1.0000
  C   C59       1.0  0.89484  0.35540  0.26424  1.0000
  C   C60       1.0  0.60515  0.14460  0.76424  1.0000
  N   N1        1.0  0.47664  0.48835  0.80613  1.0000
  N   N2        1.0  0.02335  0.01164  0.30613  1.0000
  N   N3        1.0  0.52335  0.51163  0.19387  1.0000
  N   N4        1.0  0.97664  0.98836  0.69386  1.0000
  O   O1        1.0  0.55462  0.46314  0.66538  1.0000
  O   O2        1.0  0.94538  0.03686  0.16538  1.0000
  O   O3        1.0  0.44540  0.53687  0.33463  1.0000
  O   O4        1.0  0.05462  0.96313  0.83462  1.0000
  O   O5        1.0  0.86612  0.49784  0.62239  1.0000
  O   O6        1.0  0.63387  0.00214  0.12239  1.0000
  O   O7        1.0  0.13389  0.50215  0.37761  1.0000
  O   O8        1.0  0.36613  0.99784  0.87761  1.0000
  O   O9        1.0  0.25217  0.77238  0.72993  1.0000
  O   O10       1.0  0.24782  0.72761  0.22993  1.0000
  O   O11       1.0  0.74782  0.22761  0.27007  1.0000
  O   O12       1.0  0.75217  0.27238  0.77007  1.0000
  O   O13       1.0  0.93033  0.63131  0.75823  1.0000
  O   O14       1.0  0.56965  0.86869  0.25823  1.0000
  O   O15       1.0  0.06966  0.36869  0.24177  1.0000
  O   O16       1.0  0.43033  0.13130  0.74177  1.0000
