data_image0
_chemical_formula_structural       Cd2H24C30S4N12
_chemical_formula_sum              "Cd2 H24 C30 S4 N12"
_cell_length_a       8.0484
_cell_length_b       10.6674
_cell_length_c       10.8746
_cell_angle_alpha    61.9055
_cell_angle_beta     87.3284
_cell_angle_gamma    89.9501

_space_group_name_H-M_alt    "P 1"
_space_group_IT_number       1

loop_
  _space_group_symop_operation_xyz
  'x, y, z'

loop_
  _atom_site_type_symbol
  _atom_site_label
  _atom_site_symmetry_multiplicity
  _atom_site_fract_x
  _atom_site_fract_y
  _atom_site_fract_z
  _atom_site_occupancy
  Cd  Cd1       1.0  0.23877  0.66067  0.54948  1.0000
  Cd  Cd2       1.0  0.76123  0.33933  0.45051  1.0000
  H   H1        1.0  0.97115  0.52011  0.82456  1.0000
  H   H2        1.0  0.02885  0.47990  0.17544  1.0000
  H   H3        1.0  0.79353  0.59189  0.97661  1.0000
  H   H4        1.0  0.20647  0.40811  0.02338  1.0000
  H   H5        1.0  0.81191  0.84444  0.93100  1.0000
  H   H6        1.0  0.18809  0.15556  0.06900  1.0000
  H   H7        1.0  0.00285  0.01512  0.73787  1.0000
  H   H8        1.0  0.99715  0.98488  0.26213  1.0000
  H   H9        1.0  0.46867  0.83980  0.33291  1.0000
  H   H10       1.0  0.53133  0.16020  0.66709  1.0000
  H   H11       1.0  0.47538  0.24189  0.17847  1.0000
  H   H12       1.0  0.52462  0.75811  0.82153  1.0000
  H   H13       1.0  0.64421  0.40467  0.96403  1.0000
  H   H14       1.0  0.35579  0.59533  0.03597  1.0000
  H   H15       1.0  0.82963  0.30451  0.84343  1.0000
  H   H16       1.0  0.17037  0.69549  0.15657  1.0000
  H   H17       1.0  0.84361  0.04441  0.93546  1.0000
  H   H18       1.0  0.15639  0.95559  0.06454  1.0000
  H   H19       1.0  0.66916  0.88084  0.14752  1.0000
  H   H20       1.0  0.33084  0.11916  0.85248  1.0000
  H   H21       1.0  0.28848  0.15488  0.44203  1.0000
  H   H22       1.0  0.71152  0.84512  0.55797  1.0000
  H   H23       1.0  0.13314  0.14008  0.56545  1.0000
  H   H24       1.0  0.86685  0.85992  0.43455  1.0000
  C   C1        1.0  0.97431  0.62878  0.80937  1.0000
  C   C2        1.0  0.02569  0.37122  0.19062  1.0000
  C   C3        1.0  0.87629  0.66918  0.89324  1.0000
  C   C4        1.0  0.12371  0.33083  0.10676  1.0000
  C   C5        1.0  0.88732  0.80953  0.86758  1.0000
  C   C6        1.0  0.11268  0.19047  0.13242  1.0000
  C   C7        1.0  0.99462  0.90469  0.75950  1.0000
  C   C8        1.0  0.00538  0.09531  0.24050  1.0000
  C   C9        1.0  0.08841  0.85650  0.67921  1.0000
  C   C10       1.0  0.91159  0.14351  0.32079  1.0000
  C   C11       1.0  0.19975  0.95381  0.55852  1.0000
  C   C12       1.0  0.80025  0.04619  0.44148  1.0000
  C   C13       1.0  0.46404  0.95391  0.30206  1.0000
  C   C14       1.0  0.53596  0.04610  0.69794  1.0000
  C   C15       1.0  0.56176  0.05109  0.17721  1.0000
  C   C16       1.0  0.43824  0.94890  0.82279  1.0000
  C   C17       1.0  0.55634  0.19957  0.12454  1.0000
  C   C18       1.0  0.44367  0.80044  0.87547  1.0000
  C   C19       1.0  0.65185  0.28994  0.00548  1.0000
  C   C20       1.0  0.34816  0.71006  0.99452  1.0000
  C   C21       1.0  0.75527  0.23407  0.93706  1.0000
  C   C22       1.0  0.24473  0.76593  0.06294  1.0000
  C   C23       1.0  0.76169  0.08714  0.98859  1.0000
  C   C24       1.0  0.23831  0.91286  0.01141  1.0000
  C   C25       1.0  0.66501  0.99584  0.10727  1.0000
  C   C26       1.0  0.33499  0.00416  0.89273  1.0000
  C   C27       1.0  0.92262  0.67231  0.34988  1.0000
  C   C28       1.0  0.07737  0.32769  0.65012  1.0000
  C   C29       1.0  0.39447  0.50707  0.36362  1.0000
  C   C30       1.0  0.60554  0.49293  0.63638  1.0000
  S   S1        1.0  0.81712  0.62007  0.25786  1.0000
  S   S2        1.0  0.18288  0.37993  0.74214  1.0000
  S   S3        1.0  0.46046  0.39005  0.31715  1.0000
  S   S4        1.0  0.53954  0.60994  0.68286  1.0000
  N   N1        1.0  0.07783  0.71952  0.70580  1.0000
  N   N2        1.0  0.92217  0.28049  0.29420  1.0000
  N   N3        1.0  0.28373  0.89973  0.48698  1.0000
  N   N4        1.0  0.71627  0.10027  0.51302  1.0000
  N   N5        1.0  0.37511  0.00030  0.37380  1.0000
  N   N6        1.0  0.62489  0.99970  0.62620  1.0000
  N   N7        1.0  0.21122  0.09098  0.52555  1.0000
  N   N8        1.0  0.78878  0.90902  0.47445  1.0000
  N   N9        1.0  0.99689  0.71476  0.41527  1.0000
  N   N10       1.0  0.00311  0.28524  0.58473  1.0000
  N   N11       1.0  0.34834  0.59448  0.39414  1.0000
  N   N12       1.0  0.65166  0.40551  0.60587  1.0000
