data_image0
_chemical_formula_structural       Mn2H36C20N4O16
_chemical_formula_sum              "Mn2 H36 C20 N4 O16"
_cell_length_a       7.92183
_cell_length_b       8.45216
_cell_length_c       11.8107
_cell_angle_alpha    88.8858
_cell_angle_beta     89.9496
_cell_angle_gamma    113.41

_space_group_name_H-M_alt    "P 1"
_space_group_IT_number       1

loop_
  _space_group_symop_operation_xyz
  'x, y, z'

loop_
  _atom_site_type_symbol
  _atom_site_label
  _atom_site_symmetry_multiplicity
  _atom_site_fract_x
  _atom_site_fract_y
  _atom_site_fract_z
  _atom_site_occupancy
  Mn  Mn1       1.0  1.00000  1.00000  1.00000  1.0000
  Mn  Mn2       1.0  0.50000  0.00000  0.50000  1.0000
  H   H1        1.0  0.02244  0.84423  0.24448  1.0000
  H   H2        1.0  0.53435  0.83785  0.24967  1.0000
  H   H3        1.0  0.97754  0.15577  0.75552  1.0000
  H   H4        1.0  0.46565  0.16215  0.75034  1.0000
  H   H5        1.0  0.77706  0.33392  0.17556  1.0000
  H   H6        1.0  0.28487  0.32229  0.31436  1.0000
  H   H7        1.0  0.22294  0.66608  0.82443  1.0000
  H   H8        1.0  0.71514  0.67771  0.68564  1.0000
  H   H9        1.0  0.01025  0.39393  0.13431  1.0000
  H   H10       1.0  0.52017  0.37791  0.34802  1.0000
  H   H11       1.0  0.98976  0.60608  0.86569  1.0000
  H   H12       1.0  0.47984  0.62209  0.65199  1.0000
  H   H13       1.0  0.87077  0.48125  0.05858  1.0000
  H   H14       1.0  0.38536  0.45875  0.43141  1.0000
  H   H15       1.0  0.12924  0.51875  0.94142  1.0000
  H   H16       1.0  0.61464  0.54125  0.56860  1.0000
  H   H17       1.0  0.07894  0.49723  0.34589  1.0000
  H   H18       1.0  0.57483  0.50404  0.13232  1.0000
  H   H19       1.0  0.92105  0.50277  0.65411  1.0000
  H   H20       1.0  0.42517  0.49596  0.86769  1.0000
  H   H21       1.0  0.84578  0.46121  0.37421  1.0000
  H   H22       1.0  0.33647  0.45931  0.12035  1.0000
  H   H23       1.0  0.15421  0.53878  0.62579  1.0000
  H   H24       1.0  0.66353  0.54069  0.87965  1.0000
  H   H25       1.0  0.02456  0.67499  0.38224  1.0000
  H   H26       1.0  0.50536  0.67738  0.10554  1.0000
  H   H27       1.0  0.97543  0.32501  0.61776  1.0000
  H   H28       1.0  0.49464  0.32262  0.89446  1.0000
  H   H29       1.0  0.94725  0.88050  0.79616  1.0000
  H   H30       1.0  0.44037  0.87596  0.71639  1.0000
  H   H31       1.0  0.05275  0.11950  0.20384  1.0000
  H   H32       1.0  0.55963  0.12404  0.28361  1.0000
  H   H33       1.0  0.75553  0.88198  0.84387  1.0000
  H   H34       1.0  0.24594  0.86161  0.66428  1.0000
  H   H35       1.0  0.24447  0.11803  0.15612  1.0000
  H   H36       1.0  0.75406  0.13839  0.33572  1.0000
  C   C1        1.0  0.62458  0.00194  0.03267  1.0000
  C   C2        1.0  0.11408  0.98733  0.46371  1.0000
  C   C3        1.0  0.37541  0.99805  0.96733  1.0000
  C   C4        1.0  0.88593  0.01268  0.53629  1.0000
  C   C5        1.0  0.52959  0.96080  0.92268  1.0000
  C   C6        1.0  0.02653  0.95294  0.57723  1.0000
  C   C7        1.0  0.47040  0.03919  0.07732  1.0000
  C   C8        1.0  0.97348  0.04706  0.42277  1.0000
  C   C9        1.0  0.98135  0.74521  0.17950  1.0000
  C   C10       1.0  0.49789  0.73342  0.31426  1.0000
  C   C11       1.0  0.01864  0.25479  0.82050  1.0000
  C   C12       1.0  0.50211  0.26658  0.68574  1.0000
  C   C13       1.0  0.89962  0.44062  0.14216  1.0000
  C   C14       1.0  0.40963  0.42525  0.34575  1.0000
  C   C15       1.0  0.10039  0.55938  0.85784  1.0000
  C   C16       1.0  0.59037  0.57475  0.65426  1.0000
  C   C17       1.0  0.97583  0.55331  0.33707  1.0000
  C   C18       1.0  0.46885  0.55346  0.15054  1.0000
  C   C19       1.0  0.02416  0.44668  0.66293  1.0000
  C   C20       1.0  0.53115  0.44654  0.84946  1.0000
  N   N1        1.0  0.95167  0.58577  0.21786  1.0000
  N   N2        1.0  0.45847  0.57715  0.27175  1.0000
  N   N3        1.0  0.04832  0.41423  0.78214  1.0000
  N   N4        1.0  0.54153  0.42285  0.72825  1.0000
  O   O1        1.0  0.77261  0.00290  0.07436  1.0000
  O   O2        1.0  0.24941  0.97112  0.41725  1.0000
  O   O3        1.0  0.22738  0.99709  0.92564  1.0000
  O   O4        1.0  0.75060  0.02889  0.58275  1.0000
  O   O5        1.0  0.56864  0.91234  0.82901  1.0000
  O   O6        1.0  0.05765  0.89523  0.67099  1.0000
  O   O7        1.0  0.43136  0.08766  0.17099  1.0000
  O   O8        1.0  0.94236  0.10477  0.32901  1.0000
  O   O9        1.0  0.96476  0.78059  0.07677  1.0000
  O   O10       1.0  0.49495  0.76178  0.41803  1.0000
  O   O11       1.0  0.03524  0.21941  0.92323  1.0000
  O   O12       1.0  0.50506  0.23823  0.58198  1.0000
  O   O13       1.0  0.87021  0.86451  0.86608  1.0000
  O   O14       1.0  0.36297  0.84695  0.64648  1.0000
  O   O15       1.0  0.12979  0.13549  0.13391  1.0000
  O   O16       1.0  0.63703  0.15305  0.35351  1.0000
