data_image0
_chemical_formula_structural       Ni2H36C20N4O16
_chemical_formula_sum              "Ni2 H36 C20 N4 O16"
_cell_length_a       7.84116
_cell_length_b       8.54788
_cell_length_c       11.806
_cell_angle_alpha    90.0003
_cell_angle_beta     90
_cell_angle_gamma    114.499

_space_group_name_H-M_alt    "P 1"
_space_group_IT_number       1

loop_
  _space_group_symop_operation_xyz
  'x, y, z'

loop_
  _atom_site_type_symbol
  _atom_site_label
  _atom_site_symmetry_multiplicity
  _atom_site_fract_x
  _atom_site_fract_y
  _atom_site_fract_z
  _atom_site_occupancy
  Ni  Ni1       1.0  0.00001  1.00000  1.00000  1.0000
  Ni  Ni2       1.0  0.50000  0.00000  0.50000  1.0000
  H   H1        1.0  0.01594  0.82813  0.24551  1.0000
  H   H2        1.0  0.51594  0.82813  0.25449  1.0000
  H   H3        1.0  0.98405  0.17187  0.75449  1.0000
  H   H4        1.0  0.48406  0.17188  0.74552  1.0000
  H   H5        1.0  0.76979  0.31543  0.18685  1.0000
  H   H6        1.0  0.26981  0.31544  0.31315  1.0000
  H   H7        1.0  0.23020  0.68456  0.81315  1.0000
  H   H8        1.0  0.73019  0.68456  0.68685  1.0000
  H   H9        1.0  0.00953  0.37463  0.15279  1.0000
  H   H10       1.0  0.50954  0.37465  0.34721  1.0000
  H   H11       1.0  0.99046  0.62536  0.84721  1.0000
  H   H12       1.0  0.49045  0.62535  0.65279  1.0000
  H   H13       1.0  0.87356  0.45312  0.06800  1.0000
  H   H14       1.0  0.37357  0.45313  0.43200  1.0000
  H   H15       1.0  0.12643  0.54687  0.93200  1.0000
  H   H16       1.0  0.62642  0.54687  0.56801  1.0000
  H   H17       1.0  0.07643  0.50286  0.36220  1.0000
  H   H18       1.0  0.57643  0.50285  0.13780  1.0000
  H   H19       1.0  0.92356  0.49714  0.63780  1.0000
  H   H20       1.0  0.42356  0.49716  0.86221  1.0000
  H   H21       1.0  0.83446  0.45371  0.38249  1.0000
  H   H22       1.0  0.33446  0.45371  0.11751  1.0000
  H   H23       1.0  0.16553  0.54629  0.61751  1.0000
  H   H24       1.0  0.66553  0.54630  0.88249  1.0000
  H   H25       1.0  0.00758  0.67276  0.39006  1.0000
  H   H26       1.0  0.50757  0.67275  0.10994  1.0000
  H   H27       1.0  0.99241  0.32724  0.60994  1.0000
  H   H28       1.0  0.49242  0.32725  0.89007  1.0000
  H   H29       1.0  0.95502  0.89672  0.79616  1.0000
  H   H30       1.0  0.45501  0.89671  0.70383  1.0000
  H   H31       1.0  0.04499  0.10328  0.20383  1.0000
  H   H32       1.0  0.54499  0.10329  0.29617  1.0000
  H   H33       1.0  0.75888  0.89001  0.84106  1.0000
  H   H34       1.0  0.25887  0.89001  0.65893  1.0000
  H   H35       1.0  0.24113  0.10999  0.15894  1.0000
  H   H36       1.0  0.74113  0.10999  0.34107  1.0000
  C   C1        1.0  0.62139  0.99555  0.03403  1.0000
  C   C2        1.0  0.12138  0.99556  0.46596  1.0000
  C   C3        1.0  0.37862  0.00444  0.96597  1.0000
  C   C4        1.0  0.87862  0.00444  0.53402  1.0000
  C   C5        1.0  0.53522  0.97000  0.92043  1.0000
  C   C6        1.0  0.03522  0.97000  0.57956  1.0000
  C   C7        1.0  0.46480  0.02999  0.07957  1.0000
  C   C8        1.0  0.96479  0.02999  0.42043  1.0000
  C   C9        1.0  0.97832  0.72478  0.18189  1.0000
  C   C10       1.0  0.47832  0.72478  0.31810  1.0000
  C   C11       1.0  0.02168  0.27522  0.81810  1.0000
  C   C12       1.0  0.52167  0.27522  0.68191  1.0000
  C   C13       1.0  0.89719  0.41974  0.15423  1.0000
  C   C14       1.0  0.39720  0.41975  0.34577  1.0000
  C   C15       1.0  0.10280  0.58025  0.84577  1.0000
  C   C16       1.0  0.60280  0.58025  0.65424  1.0000
  C   C17       1.0  0.96653  0.54882  0.34715  1.0000
  C   C18       1.0  0.46653  0.54882  0.15285  1.0000
  C   C19       1.0  0.03346  0.45118  0.65285  1.0000
  C   C20       1.0  0.53347  0.45119  0.84716  1.0000
  N   N1        1.0  0.94685  0.57062  0.22618  1.0000
  N   N2        1.0  0.44686  0.57062  0.27382  1.0000
  N   N3        1.0  0.05314  0.42938  0.77381  1.0000
  N   N4        1.0  0.55314  0.42938  0.72619  1.0000
  O   O1        1.0  0.76411  0.98857  0.07845  1.0000
  O   O2        1.0  0.26411  0.98858  0.42154  1.0000
  O   O3        1.0  0.23590  0.01143  0.92154  1.0000
  O   O4        1.0  0.73590  0.01143  0.57845  1.0000
  O   O5        1.0  0.57890  0.93292  0.82440  1.0000
  O   O6        1.0  0.07890  0.93292  0.67560  1.0000
  O   O7        1.0  0.42111  0.06708  0.17561  1.0000
  O   O8        1.0  0.92111  0.06709  0.32439  1.0000
  O   O9        1.0  0.96661  0.75167  0.07845  1.0000
  O   O10       1.0  0.46661  0.75168  0.42156  1.0000
  O   O11       1.0  0.03339  0.24832  0.92155  1.0000
  O   O12       1.0  0.53339  0.24832  0.57845  1.0000
  O   O13       1.0  0.86901  0.86446  0.86305  1.0000
  O   O14       1.0  0.36901  0.86446  0.63695  1.0000
  O   O15       1.0  0.13100  0.13554  0.13695  1.0000
  O   O16       1.0  0.63100  0.13554  0.36305  1.0000
