data_image0
_chemical_formula_structural       Cu2H36C20N4O16
_chemical_formula_sum              "Cu2 H36 C20 N4 O16"
_cell_length_a       7.79773
_cell_length_b       8.73166
_cell_length_c       11.1234
_cell_angle_alpha    106.471
_cell_angle_beta     90.0003
_cell_angle_gamma    90.0004

_space_group_name_H-M_alt    "P 1"
_space_group_IT_number       1

loop_
  _space_group_symop_operation_xyz
  'x, y, z'

loop_
  _atom_site_type_symbol
  _atom_site_label
  _atom_site_symmetry_multiplicity
  _atom_site_fract_x
  _atom_site_fract_y
  _atom_site_fract_z
  _atom_site_occupancy
  Cu  Cu1       1.0  0.00000  1.00000  0.00000  1.0000
  Cu  Cu2       1.0  0.50000  0.50000  0.50000  1.0000
  H   H1        1.0  0.88914  0.38008  0.16014  1.0000
  H   H2        1.0  0.61086  0.88008  0.66015  1.0000
  H   H3        1.0  0.11085  0.61991  0.83985  1.0000
  H   H4        1.0  0.38914  0.11992  0.33985  1.0000
  H   H5        1.0  0.58205  0.54980  0.93502  1.0000
  H   H6        1.0  0.91795  0.04980  0.43503  1.0000
  H   H7        1.0  0.41795  0.45020  0.06497  1.0000
  H   H8        1.0  0.08205  0.95020  0.56497  1.0000
  H   H9        1.0  0.74636  0.41215  0.86158  1.0000
  H   H10       1.0  0.75364  0.91215  0.36159  1.0000
  H   H11       1.0  0.25364  0.58785  0.13842  1.0000
  H   H12       1.0  0.24636  0.08785  0.63841  1.0000
  H   H13       1.0  0.78801  0.62293  0.91153  1.0000
  H   H14       1.0  0.71199  0.12292  0.41153  1.0000
  H   H15       1.0  0.21199  0.37707  0.08847  1.0000
  H   H16       1.0  0.28801  0.87708  0.58847  1.0000
  H   H17       1.0  0.62305  0.68698  0.17194  1.0000
  H   H18       1.0  0.87694  0.18698  0.67194  1.0000
  H   H19       1.0  0.37695  0.31302  0.82806  1.0000
  H   H20       1.0  0.12306  0.81302  0.32806  1.0000
  H   H21       1.0  0.83999  0.74468  0.15238  1.0000
  H   H22       1.0  0.66000  0.24468  0.65238  1.0000
  H   H23       1.0  0.16001  0.25532  0.84762  1.0000
  H   H24       1.0  0.34001  0.75533  0.34762  1.0000
  H   H25       1.0  0.79149  0.61514  0.24789  1.0000
  H   H26       1.0  0.70850  0.11514  0.74789  1.0000
  H   H27       1.0  0.20851  0.38486  0.75211  1.0000
  H   H28       1.0  0.29150  0.88486  0.25211  1.0000
  H   H29       1.0  0.18650  0.88493  0.80949  1.0000
  H   H30       1.0  0.31350  0.38494  0.30948  1.0000
  H   H31       1.0  0.81350  0.11506  0.19051  1.0000
  H   H32       1.0  0.68650  0.61506  0.69052  1.0000
  H   H33       1.0  0.99318  0.84093  0.77060  1.0000
  H   H34       1.0  0.50683  0.34092  0.27060  1.0000
  H   H35       1.0  0.00683  0.15908  0.22940  1.0000
  H   H36       1.0  0.49317  0.65907  0.72941  1.0000
  C   C1        1.0  0.62354  0.95737  0.97228  1.0000
  C   C2        1.0  0.87645  0.45736  0.47228  1.0000
  C   C3        1.0  0.37646  0.04263  0.02771  1.0000
  C   C4        1.0  0.12355  0.54263  0.52772  1.0000
  C   C5        1.0  0.55010  0.07987  0.08114  1.0000
  C   C6        1.0  0.94990  0.57987  0.58114  1.0000
  C   C7        1.0  0.44990  0.92013  0.91886  1.0000
  C   C8        1.0  0.05010  0.42012  0.41885  1.0000
  C   C9        1.0  0.85035  0.37324  0.06310  1.0000
  C   C10       1.0  0.64965  0.87323  0.56311  1.0000
  C   C11       1.0  0.14964  0.62676  0.93689  1.0000
  C   C12       1.0  0.35035  0.12677  0.43689  1.0000
  C   C13       1.0  0.72013  0.52415  0.93345  1.0000
  C   C14       1.0  0.77986  0.02414  0.43345  1.0000
  C   C15       1.0  0.27987  0.47585  0.06655  1.0000
  C   C16       1.0  0.22014  0.97586  0.56655  1.0000
  C   C17       1.0  0.75737  0.64691  0.16240  1.0000
  C   C18       1.0  0.74262  0.14691  0.66240  1.0000
  C   C19       1.0  0.24263  0.35309  0.83760  1.0000
  C   C20       1.0  0.25738  0.85310  0.33760  1.0000
  N   N1        1.0  0.77581  0.50832  0.05389  1.0000
  N   N2        1.0  0.72418  0.00832  0.55390  1.0000
  N   N3        1.0  0.22419  0.49168  0.94610  1.0000
  N   N4        1.0  0.27582  0.99168  0.44610  1.0000
  O   O1        1.0  0.76929  0.90307  0.93599  1.0000
  O   O2        1.0  0.73071  0.40307  0.43598  1.0000
  O   O3        1.0  0.23071  0.09693  0.06402  1.0000
  O   O4        1.0  0.26929  0.59693  0.56402  1.0000
  O   O5        1.0  0.61139  0.17292  0.17923  1.0000
  O   O6        1.0  0.88861  0.67292  0.67923  1.0000
  O   O7        1.0  0.38861  0.82708  0.82077  1.0000
  O   O8        1.0  0.11139  0.32708  0.32077  1.0000
  O   O9        1.0  0.87545  0.25142  0.97384  1.0000
  O   O10       1.0  0.62455  0.75142  0.47385  1.0000
  O   O11       1.0  0.12454  0.74857  0.02615  1.0000
  O   O12       1.0  0.37545  0.24859  0.52615  1.0000
  O   O13       1.0  0.06788  0.93079  0.81739  1.0000
  O   O14       1.0  0.43213  0.43079  0.31738  1.0000
  O   O15       1.0  0.93213  0.06921  0.18261  1.0000
  O   O16       1.0  0.56788  0.56921  0.68262  1.0000
