data_image0
_chemical_formula_structural       Zn2H36C20N4O16
_chemical_formula_sum              "Zn2 H36 C20 N4 O16"
_cell_length_a       7.99631
_cell_length_b       8.51069
_cell_length_c       11.8331
_cell_angle_alpha    89.9999
_cell_angle_beta     90.0001
_cell_angle_gamma    113.633

_space_group_name_H-M_alt    "P 1"
_space_group_IT_number       1

loop_
  _space_group_symop_operation_xyz
  'x, y, z'

loop_
  _atom_site_type_symbol
  _atom_site_label
  _atom_site_symmetry_multiplicity
  _atom_site_fract_x
  _atom_site_fract_y
  _atom_site_fract_z
  _atom_site_occupancy
  Zn  Zn1       1.0  0.00000  0.00000  0.00000  1.0000
  Zn  Zn2       1.0  0.50000  1.00000  0.50000  1.0000
  H   H1        1.0  0.00204  0.83403  0.24431  1.0000
  H   H2        1.0  0.50204  0.83403  0.25570  1.0000
  H   H3        1.0  0.99796  0.16597  0.75570  1.0000
  H   H4        1.0  0.49796  0.16597  0.74430  1.0000
  H   H5        1.0  0.77747  0.32323  0.18317  1.0000
  H   H6        1.0  0.27747  0.32323  0.31683  1.0000
  H   H7        1.0  0.22253  0.67677  0.81683  1.0000
  H   H8        1.0  0.72253  0.67677  0.68317  1.0000
  H   H9        1.0  0.01455  0.38304  0.15929  1.0000
  H   H10       1.0  0.51455  0.38303  0.34071  1.0000
  H   H11       1.0  0.98545  0.61697  0.84071  1.0000
  H   H12       1.0  0.48545  0.61697  0.65929  1.0000
  H   H13       1.0  0.88848  0.46168  0.06741  1.0000
  H   H14       1.0  0.38848  0.46168  0.43259  1.0000
  H   H15       1.0  0.11153  0.53832  0.93259  1.0000
  H   H16       1.0  0.61152  0.53832  0.56741  1.0000
  H   H17       1.0  0.06968  0.52097  0.36703  1.0000
  H   H18       1.0  0.56968  0.52097  0.13297  1.0000
  H   H19       1.0  0.93032  0.47903  0.63297  1.0000
  H   H20       1.0  0.43032  0.47903  0.86703  1.0000
  H   H21       1.0  0.82862  0.45355  0.37914  1.0000
  H   H22       1.0  0.32862  0.45355  0.12086  1.0000
  H   H23       1.0  0.17138  0.54645  0.62086  1.0000
  H   H24       1.0  0.67138  0.54645  0.87914  1.0000
  H   H25       1.0  0.97740  0.67696  0.39051  1.0000
  H   H26       1.0  0.47740  0.67695  0.10949  1.0000
  H   H27       1.0  0.02260  0.32305  0.60949  1.0000
  H   H28       1.0  0.52260  0.32304  0.89051  1.0000
  H   H29       1.0  0.94617  0.88423  0.79022  1.0000
  H   H30       1.0  0.44617  0.88423  0.70978  1.0000
  H   H31       1.0  0.05383  0.11577  0.20978  1.0000
  H   H32       1.0  0.55383  0.11577  0.29022  1.0000
  H   H33       1.0  0.75505  0.87860  0.83950  1.0000
  H   H34       1.0  0.25505  0.87860  0.66050  1.0000
  H   H35       1.0  0.24495  0.12140  0.16050  1.0000
  H   H36       1.0  0.74495  0.12140  0.33950  1.0000
  C   C1        1.0  0.61886  0.99649  0.03525  1.0000
  C   C2        1.0  0.11886  0.99649  0.46474  1.0000
  C   C3        1.0  0.38114  0.00351  0.96475  1.0000
  C   C4        1.0  0.88114  0.00351  0.53525  1.0000
  C   C5        1.0  0.53148  0.96040  0.92260  1.0000
  C   C6        1.0  0.03148  0.96040  0.57740  1.0000
  C   C7        1.0  0.46852  0.03959  0.07740  1.0000
  C   C8        1.0  0.96852  0.03959  0.42260  1.0000
  C   C9        1.0  0.97310  0.73103  0.18135  1.0000
  C   C10       1.0  0.47310  0.73102  0.31865  1.0000
  C   C11       1.0  0.02690  0.26897  0.81865  1.0000
  C   C12       1.0  0.52690  0.26897  0.68135  1.0000
  C   C13       1.0  0.90350  0.42764  0.15472  1.0000
  C   C14       1.0  0.40350  0.42764  0.34528  1.0000
  C   C15       1.0  0.09650  0.57236  0.84528  1.0000
  C   C16       1.0  0.59650  0.57236  0.65472  1.0000
  C   C17       1.0  0.95445  0.55597  0.34770  1.0000
  C   C18       1.0  0.45445  0.55597  0.15230  1.0000
  C   C19       1.0  0.04555  0.44403  0.65231  1.0000
  C   C20       1.0  0.54555  0.44403  0.84769  1.0000
  N   N1        1.0  0.94227  0.57752  0.22623  1.0000
  N   N2        1.0  0.44227  0.57752  0.27377  1.0000
  N   N3        1.0  0.05773  0.42248  0.77377  1.0000
  N   N4        1.0  0.55773  0.42248  0.72623  1.0000
  O   O1        1.0  0.75884  0.99144  0.08084  1.0000
  O   O2        1.0  0.25884  0.99145  0.41915  1.0000
  O   O3        1.0  0.24116  0.00856  0.91916  1.0000
  O   O4        1.0  0.74116  0.00855  0.58084  1.0000
  O   O5        1.0  0.56926  0.91181  0.82861  1.0000
  O   O6        1.0  0.06926  0.91181  0.67139  1.0000
  O   O7        1.0  0.43074  0.08819  0.17139  1.0000
  O   O8        1.0  0.93074  0.08819  0.32861  1.0000
  O   O9        1.0  0.96985  0.75815  0.07728  1.0000
  O   O10       1.0  0.46985  0.75815  0.42272  1.0000
  O   O11       1.0  0.03015  0.24186  0.92273  1.0000
  O   O12       1.0  0.53015  0.24186  0.57727  1.0000
  O   O13       1.0  0.86752  0.85871  0.85922  1.0000
  O   O14       1.0  0.36752  0.85871  0.64078  1.0000
  O   O15       1.0  0.13248  0.14129  0.14078  1.0000
  O   O16       1.0  0.63248  0.14129  0.35922  1.0000
