data_image0
_chemical_formula_structural       Cs2K2H4C22N8O8
_chemical_formula_sum              "Cs2 K2 H4 C22 N8 O8"
_cell_length_a       8.36608
_cell_length_b       9.29227
_cell_length_c       10.6188
_cell_angle_alpha    115.253
_cell_angle_beta     100.862
_cell_angle_gamma    104.349

_space_group_name_H-M_alt    "P 1"
_space_group_IT_number       1

loop_
  _space_group_symop_operation_xyz
  'x, y, z'

loop_
  _atom_site_type_symbol
  _atom_site_label
  _atom_site_symmetry_multiplicity
  _atom_site_fract_x
  _atom_site_fract_y
  _atom_site_fract_z
  _atom_site_occupancy
  Cs  Cs1       1.0  0.86990  0.19736  0.60052  1.0000
  Cs  Cs2       1.0  0.13010  0.80263  0.39948  1.0000
  K   K1        1.0  0.41291  0.37575  0.78937  1.0000
  K   K2        1.0  0.58710  0.62425  0.21064  1.0000
  H   H1        1.0  0.12672  0.42887  0.98623  1.0000
  H   H2        1.0  0.87329  0.57114  0.01377  1.0000
  H   H3        1.0  0.15421  0.58275  0.95735  1.0000
  H   H4        1.0  0.84579  0.41725  0.04265  1.0000
  C   C1        1.0  0.07206  0.89503  0.84642  1.0000
  C   C2        1.0  0.92794  0.10497  0.15358  1.0000
  C   C3        1.0  0.16809  0.89870  0.97850  1.0000
  C   C4        1.0  0.83190  0.10130  0.02150  1.0000
  C   C5        1.0  0.32753  0.05294  0.05701  1.0000
  C   C6        1.0  0.67247  0.94706  0.94299  1.0000
  C   C7        1.0  0.33019  0.14553  0.97615  1.0000
  C   C8        1.0  0.66981  0.85447  0.02386  1.0000
  C   C9        1.0  0.17228  0.04093  0.83901  1.0000
  C   C10       1.0  0.82772  0.95907  0.16099  1.0000
  C   C11       1.0  0.91057  0.77074  0.74249  1.0000
  C   C12       1.0  0.08943  0.22926  0.25752  1.0000
  C   C13       1.0  0.82029  0.62765  0.75173  1.0000
  C   C14       1.0  0.17971  0.37235  0.24827  1.0000
  C   C15       1.0  0.82515  0.78122  0.62033  1.0000
  C   C16       1.0  0.17485  0.21878  0.37967  1.0000
  C   C17       1.0  0.45734  0.10207  0.18679  1.0000
  C   C18       1.0  0.54266  0.89793  0.81321  1.0000
  C   C19       1.0  0.45491  0.99843  0.25329  1.0000
  C   C20       1.0  0.54509  0.00157  0.74672  1.0000
  C   C21       1.0  0.60713  0.25630  0.26080  1.0000
  C   C22       1.0  0.39286  0.74369  0.73919  1.0000
  N   N1        1.0  0.73804  0.50570  0.75201  1.0000
  N   N2        1.0  0.26196  0.49430  0.24799  1.0000
  N   N3        1.0  0.74988  0.78553  0.51787  1.0000
  N   N4        1.0  0.25012  0.21448  0.48213  1.0000
  N   N5        1.0  0.46782  0.92002  0.31413  1.0000
  N   N6        1.0  0.53218  0.07999  0.68587  1.0000
  N   N7        1.0  0.73585  0.37894  0.32933  1.0000
  N   N8        1.0  0.26417  0.62107  0.67067  1.0000
  O   O1        1.0  0.12199  0.79078  0.01873  1.0000
  O   O2        1.0  0.87800  0.20922  0.98127  1.0000
  O   O3        1.0  0.44271  0.28412  0.00958  1.0000
  O   O4        1.0  0.55729  0.71588  0.99043  1.0000
  O   O5        1.0  0.13992  0.07520  0.73731  1.0000
  O   O6        1.0  0.86008  0.92480  0.26269  1.0000
  O   O7        1.0  0.15234  0.46502  0.91610  1.0000
  O   O8        1.0  0.84765  0.53497  0.08389  1.0000
