data_image0
_chemical_formula_structural       Cu2H48C52Br4N4O10
_chemical_formula_sum              "Cu2 H48 C52 Br4 N4 O10"
_cell_length_a       9.65027
_cell_length_b       10.7456
_cell_length_c       13.287
_cell_angle_alpha    99.4094
_cell_angle_beta     101.902
_cell_angle_gamma    90.593

_space_group_name_H-M_alt    "P 1"
_space_group_IT_number       1

loop_
  _space_group_symop_operation_xyz
  'x, y, z'

loop_
  _atom_site_type_symbol
  _atom_site_label
  _atom_site_symmetry_multiplicity
  _atom_site_fract_x
  _atom_site_fract_y
  _atom_site_fract_z
  _atom_site_occupancy
  Cu  Cu1       1.0  0.00000  0.00000  0.00000  1.0000
  Cu  Cu2       1.0  0.50000  0.00000  1.00000  1.0000
  H   H1        1.0  0.82914  0.19604  0.08240  1.0000
  H   H2        1.0  0.17086  0.80397  0.91761  1.0000
  H   H3        1.0  0.84151  0.34378  0.24984  1.0000
  H   H4        1.0  0.15850  0.65622  0.75016  1.0000
  H   H5        1.0  0.24106  0.18832  0.36812  1.0000
  H   H6        1.0  0.75894  0.81168  0.63188  1.0000
  H   H7        1.0  0.21366  0.04855  0.19568  1.0000
  H   H8        1.0  0.78634  0.95145  0.80432  1.0000
  H   H9        1.0  0.15484  0.40475  0.45937  1.0000
  H   H10       1.0  0.84516  0.59525  0.54064  1.0000
  H   H11       1.0  0.02326  0.30515  0.48534  1.0000
  H   H12       1.0  0.97675  0.69485  0.51467  1.0000
  H   H13       1.0  0.97239  0.43497  0.42042  1.0000
  H   H14       1.0  0.02761  0.56503  0.57958  1.0000
  H   H15       1.0  0.21840  0.63827  0.43444  1.0000
  H   H16       1.0  0.78161  0.36173  0.56556  1.0000
  H   H17       1.0  0.29452  0.45317  0.32243  1.0000
  H   H18       1.0  0.70549  0.54683  0.67757  1.0000
  H   H19       1.0  0.23625  0.43376  0.13077  1.0000
  H   H20       1.0  0.76375  0.56624  0.86922  1.0000
  H   H21       1.0  0.10407  0.60517  0.04845  1.0000
  H   H22       1.0  0.89593  0.39483  0.95155  1.0000
  H   H23       1.0  0.70576  0.06781  0.20088  1.0000
  H   H24       1.0  0.29425  0.93219  0.79912  1.0000
  H   H25       1.0  0.74213  0.01137  0.37868  1.0000
  H   H26       1.0  0.25787  0.98863  0.62132  1.0000
  H   H27       1.0  0.36050  0.77221  0.27010  1.0000
  H   H28       1.0  0.63950  0.22780  0.72989  1.0000
  H   H29       1.0  0.33573  0.84360  0.09818  1.0000
  H   H30       1.0  0.66427  0.15640  0.90182  1.0000
  H   H31       1.0  0.58225  0.92544  0.50788  1.0000
  H   H32       1.0  0.41775  0.07456  0.49212  1.0000
  H   H33       1.0  0.67457  0.79604  0.45960  1.0000
  H   H34       1.0  0.32543  0.20397  0.54040  1.0000
  H   H35       1.0  0.48770  0.77945  0.44765  1.0000
  H   H36       1.0  0.51229  0.22055  0.55235  1.0000
  H   H37       1.0  0.70467  0.59312  0.38430  1.0000
  H   H38       1.0  0.29532  0.40687  0.61570  1.0000
  H   H39       1.0  0.78352  0.71333  0.25738  1.0000
  H   H40       1.0  0.21647  0.28666  0.74262  1.0000
  H   H41       1.0  0.73706  0.62140  0.07037  1.0000
  H   H42       1.0  0.26294  0.37860  0.92963  1.0000
  H   H43       1.0  0.61021  0.40963  0.00762  1.0000
  H   H44       1.0  0.38979  0.59036  0.99238  1.0000
  H   H45       1.0  0.20829  0.08276  0.93466  1.0000
  H   H46       1.0  0.79171  0.91724  0.06534  1.0000
  H   H47       1.0  0.28997  0.12085  0.05156  1.0000
  H   H48       1.0  0.71003  0.87915  0.94844  1.0000
  C   C1        1.0  0.91870  0.19836  0.14778  1.0000
  C   C2        1.0  0.08130  0.80164  0.85222  1.0000
  C   C3        1.0  0.92596  0.27902  0.24182  1.0000
  C   C4        1.0  0.07404  0.72098  0.75819  1.0000
  C   C5        1.0  0.04104  0.27690  0.32493  1.0000
  C   C6        1.0  0.95897  0.72311  0.67507  1.0000
  C   C7        1.0  0.14703  0.19305  0.30767  1.0000
  C   C8        1.0  0.85297  0.80695  0.69234  1.0000
  C   C9        1.0  0.13357  0.11510  0.21179  1.0000
  C   C10       1.0  0.86643  0.88490  0.78821  1.0000
  C   C11       1.0  0.04834  0.36031  0.42792  1.0000
  C   C12       1.0  0.95166  0.63969  0.57209  1.0000
  C   C13       1.0  0.00381  0.81404  0.14036  1.0000
  C   C14       1.0  0.99619  0.18597  0.85965  1.0000
  C   C15       1.0  0.08177  0.71420  0.19431  1.0000
  C   C16       1.0  0.91822  0.28580  0.80569  1.0000
  C   C17       1.0  0.11449  0.72128  0.30283  1.0000
  C   C18       1.0  0.88550  0.27872  0.69717  1.0000
  C   C19       1.0  0.19095  0.62875  0.34967  1.0000
  C   C20       1.0  0.80905  0.37124  0.65034  1.0000
  C   C21       1.0  0.23377  0.52551  0.28673  1.0000
  C   C22       1.0  0.76623  0.47449  0.71326  1.0000
  C   C23       1.0  0.20138  0.51518  0.17817  1.0000
  C   C24       1.0  0.79862  0.48482  0.82183  1.0000
  C   C25       1.0  0.12733  0.60967  0.13295  1.0000
  C   C26       1.0  0.87267  0.39033  0.86705  1.0000
  C   C27       1.0  0.63122  0.00361  0.22025  1.0000
  C   C28       1.0  0.36878  0.99639  0.77975  1.0000
  C   C29       1.0  0.65043  0.97127  0.31899  1.0000
  C   C30       1.0  0.34957  0.02873  0.68101  1.0000
  C   C31       1.0  0.55369  0.88597  0.33995  1.0000
  C   C32       1.0  0.44631  0.11403  0.66005  1.0000
  C   C33       1.0  0.43902  0.83912  0.25886  1.0000
  C   C34       1.0  0.56099  0.16088  0.74114  1.0000
  C   C35       1.0  0.42508  0.87679  0.16216  1.0000
  C   C36       1.0  0.57491  0.12321  0.83783  1.0000
  C   C37       1.0  0.57443  0.84446  0.44432  1.0000
  C   C38       1.0  0.42556  0.15555  0.55567  1.0000
  C   C39       1.0  0.49940  0.26076  0.11514  1.0000
  C   C40       1.0  0.50059  0.73923  0.88486  1.0000
  C   C41       1.0  0.58004  0.38541  0.15887  1.0000
  C   C42       1.0  0.41996  0.61458  0.84113  1.0000
  C   C43       1.0  0.60892  0.43872  0.26479  1.0000
  C   C44       1.0  0.39108  0.56127  0.73522  1.0000
  C   C45       1.0  0.68224  0.55529  0.30121  1.0000
  C   C46       1.0  0.31776  0.44470  0.69880  1.0000
  C   C47       1.0  0.72719  0.62156  0.23082  1.0000
  C   C48       1.0  0.27281  0.37843  0.76919  1.0000
  C   C49       1.0  0.70115  0.56953  0.12491  1.0000
  C   C50       1.0  0.29885  0.43046  0.87510  1.0000
  C   C51       1.0  0.62974  0.45216  0.08989  1.0000
  C   C52       1.0  0.37026  0.54783  0.91011  1.0000
  Br  Br1       1.0  0.56305  0.34648  0.36660  1.0000
  Br  Br2       1.0  0.43697  0.65350  0.63340  1.0000
  Br  Br3       1.0  0.06823  0.86627  0.39314  1.0000
  Br  Br4       1.0  0.93177  0.13372  0.60685  1.0000
  N   N1        1.0  0.02080  0.11712  0.13356  1.0000
  N   N2        1.0  0.97920  0.88288  0.86644  1.0000
  N   N3        1.0  0.52058  0.95707  0.14300  1.0000
  N   N4        1.0  0.47942  0.04293  0.85700  1.0000
  O   O1        1.0  0.06868  0.85565  0.07643  1.0000
  O   O2        1.0  0.93132  0.14435  0.92357  1.0000
  O   O3        1.0  0.56667  0.18104  0.06235  1.0000
  O   O4        1.0  0.43332  0.81896  0.93765  1.0000
  O   O5        1.0  0.88600  0.84622  0.15966  1.0000
  O   O6        1.0  0.11400  0.15377  0.84034  1.0000
  O   O7        1.0  0.37673  0.24650  0.13100  1.0000
  O   O8        1.0  0.62326  0.75350  0.86900  1.0000
  O   O9        1.0  0.25090  0.04542  0.99763  1.0000
  O   O10       1.0  0.74910  0.95458  0.00236  1.0000
