data_image0
_chemical_formula_structural       Cd2H18C26N2O10
_chemical_formula_sum              "Cd2 H18 C26 N2 O10"
_cell_length_a       8.53896
_cell_length_b       8.12284
_cell_length_c       9.95382
_cell_angle_alpha    95.4597
_cell_angle_beta     101.582
_cell_angle_gamma    100.97

_space_group_name_H-M_alt    "P 1"
_space_group_IT_number       1

loop_
  _space_group_symop_operation_xyz
  'x, y, z'

loop_
  _atom_site_type_symbol
  _atom_site_label
  _atom_site_symmetry_multiplicity
  _atom_site_fract_x
  _atom_site_fract_y
  _atom_site_fract_z
  _atom_site_occupancy
  Cd  Cd1       1.0  0.70288  0.60702  0.97619  1.0000
  Cd  Cd2       1.0  0.29713  0.39298  0.02381  1.0000
  H   H1        1.0  0.95611  0.82679  0.83342  1.0000
  H   H2        1.0  0.04390  0.17324  0.16658  1.0000
  H   H3        1.0  0.24650  0.99020  0.88803  1.0000
  H   H4        1.0  0.75350  0.00981  0.11198  1.0000
  H   H5        1.0  0.43020  0.97413  0.11503  1.0000
  H   H6        1.0  0.56979  0.02587  0.88498  1.0000
  H   H7        1.0  0.02401  0.63740  0.20774  1.0000
  H   H8        1.0  0.97599  0.36260  0.79227  1.0000
  H   H9        1.0  0.14680  0.84151  0.41817  1.0000
  H   H10       1.0  0.85319  0.15848  0.58181  1.0000
  H   H11       1.0  0.28721  0.79868  0.65127  1.0000
  H   H12       1.0  0.71278  0.20130  0.34872  1.0000
  H   H13       1.0  0.69449  0.70026  0.48829  1.0000
  H   H14       1.0  0.30551  0.29974  0.51170  1.0000
  H   H15       1.0  0.78438  0.55206  0.23236  1.0000
  H   H16       1.0  0.21563  0.44795  0.76764  1.0000
  H   H17       1.0  0.67391  0.37345  0.16884  1.0000
  H   H18       1.0  0.32610  0.62655  0.83116  1.0000
  C   C1        1.0  0.04010  0.82458  0.93103  1.0000
  C   C2        1.0  0.95989  0.17542  0.06898  1.0000
  C   C3        1.0  0.20255  0.91286  0.96208  1.0000
  C   C4        1.0  0.79744  0.08716  0.03792  1.0000
  C   C5        1.0  0.30421  0.90256  0.08755  1.0000
  C   C6        1.0  0.69579  0.09743  0.91245  1.0000
  C   C7        1.0  0.24108  0.80378  0.18056  1.0000
  C   C8        1.0  0.75892  0.19621  0.81943  1.0000
  C   C9        1.0  0.07671  0.71950  0.14079  1.0000
  C   C10       1.0  0.92329  0.28050  0.85922  1.0000
  C   C11       1.0  0.33642  0.78639  0.31791  1.0000
  C   C12       1.0  0.66359  0.21360  0.68208  1.0000
  C   C13       1.0  0.26539  0.80591  0.43256  1.0000
  C   C14       1.0  0.73462  0.19408  0.56745  1.0000
  C   C15       1.0  0.34448  0.78360  0.56376  1.0000
  C   C16       1.0  0.65552  0.21640  0.43624  1.0000
  C   C17       1.0  0.49842  0.74147  0.58374  1.0000
  C   C18       1.0  0.50158  0.25853  0.41627  1.0000
  C   C19       1.0  0.57360  0.73004  0.47193  1.0000
  C   C20       1.0  0.42641  0.26995  0.52806  1.0000
  C   C21       1.0  0.49461  0.75102  0.33942  1.0000
  C   C22       1.0  0.50539  0.24896  0.66058  1.0000
  C   C23       1.0  0.58263  0.72371  0.22593  1.0000
  C   C24       1.0  0.41736  0.27627  0.77406  1.0000
  C   C25       1.0  0.58090  0.70513  0.72119  1.0000
  C   C26       1.0  0.41910  0.29488  0.27882  1.0000
  N   N1        1.0  0.97809  0.72994  0.01959  1.0000
  N   N2        1.0  0.02191  0.27007  0.98042  1.0000
  O   O1        1.0  0.50031  0.64265  0.10689  1.0000
  O   O2        1.0  0.49969  0.35735  0.89309  1.0000
  O   O3        1.0  0.73611  0.77534  0.25114  1.0000
  O   O4        1.0  0.26389  0.22466  0.74885  1.0000
  O   O5        1.0  0.71309  0.65318  0.73421  1.0000
  O   O6        1.0  0.28692  0.34681  0.26580  1.0000
  O   O7        1.0  0.51279  0.72572  0.82463  1.0000
  O   O8        1.0  0.48721  0.27427  0.17537  1.0000
  O   O9        1.0  0.77836  0.45246  0.16542  1.0000
  O   O10       1.0  0.22165  0.54754  0.83459  1.0000
