data_image0
_chemical_formula_structural       Cd2H18C26N2O10
_chemical_formula_sum              "Cd2 H18 C26 N2 O10"
_cell_length_a       7.80262
_cell_length_b       8.43999
_cell_length_c       10.4199
_cell_angle_alpha    68.2309
_cell_angle_beta     82.7937
_cell_angle_gamma    96.0737

_space_group_name_H-M_alt    "P 1"
_space_group_IT_number       1

loop_
  _space_group_symop_operation_xyz
  'x, y, z'

loop_
  _atom_site_type_symbol
  _atom_site_label
  _atom_site_symmetry_multiplicity
  _atom_site_fract_x
  _atom_site_fract_y
  _atom_site_fract_z
  _atom_site_occupancy
  Cd  Cd1       1.0  0.47628  0.68666  0.34395  1.0000
  Cd  Cd2       1.0  0.52372  0.31333  0.65607  1.0000
  H   H1        1.0  0.96990  0.66090  0.01104  1.0000
  H   H2        1.0  0.03007  0.33909  0.98898  1.0000
  H   H3        1.0  0.10728  0.68887  0.77347  1.0000
  H   H4        1.0  0.89274  0.31118  0.22655  1.0000
  H   H5        1.0  0.47212  0.69432  0.87882  1.0000
  H   H6        1.0  0.52789  0.30571  0.12115  1.0000
  H   H7        1.0  0.16083  0.59113  0.60409  1.0000
  H   H8        1.0  0.83916  0.40885  0.39592  1.0000
  H   H9        1.0  0.20075  0.83751  0.17298  1.0000
  H   H10       1.0  0.79925  0.16248  0.82701  1.0000
  H   H11       1.0  0.93240  0.97344  0.20215  1.0000
  H   H12       1.0  0.06760  0.02656  0.79785  1.0000
  H   H13       1.0  0.79297  0.93052  0.44157  1.0000
  H   H14       1.0  0.20704  0.06949  0.55843  1.0000
  H   H15       1.0  0.56507  0.06189  0.29747  1.0000
  H   H16       1.0  0.43492  0.93810  0.70255  1.0000
  H   H17       1.0  0.55781  0.03935  0.15219  1.0000
  H   H18       1.0  0.44223  0.96064  0.84782  1.0000
  C   C1        1.0  0.62768  0.68742  0.09299  1.0000
  C   C2        1.0  0.37230  0.31257  0.90701  1.0000
  C   C3        1.0  0.71302  0.68358  0.95777  1.0000
  C   C4        1.0  0.28697  0.31642  0.04223  1.0000
  C   C5        1.0  0.89081  0.67345  0.92972  1.0000
  C   C6        1.0  0.10917  0.32657  0.07029  1.0000
  C   C7        1.0  0.96662  0.68715  0.79680  1.0000
  C   C8        1.0  0.03339  0.31289  0.20320  1.0000
  C   C9        1.0  0.86789  0.70948  0.68904  1.0000
  C   C10       1.0  0.13214  0.29054  0.31096  1.0000
  C   C11       1.0  0.68560  0.70830  0.72111  1.0000
  C   C12       1.0  0.31444  0.29173  0.27886  1.0000
  C   C13       1.0  0.61227  0.69656  0.85386  1.0000
  C   C14       1.0  0.38773  0.30347  0.14614  1.0000
  C   C15       1.0  0.56166  0.71888  0.61996  1.0000
  C   C16       1.0  0.43835  0.28111  0.38003  1.0000
  C   C17       1.0  0.95712  0.74779  0.54465  1.0000
  C   C18       1.0  0.04290  0.25222  0.45535  1.0000
  C   C19       1.0  0.10644  0.67800  0.51835  1.0000
  C   C20       1.0  0.89356  0.32200  0.48165  1.0000
  C   C21       1.0  0.12806  0.81593  0.27617  1.0000
  C   C22       1.0  0.87193  0.18405  0.72382  1.0000
  C   C23       1.0  0.98138  0.89109  0.29266  1.0000
  C   C24       1.0  0.01862  0.10890  0.70733  1.0000
  C   C25       1.0  0.90009  0.86222  0.42759  1.0000
  C   C26       1.0  0.09992  0.13779  0.57241  1.0000
  N   N1        1.0  0.19143  0.71514  0.38751  1.0000
  N   N2        1.0  0.80856  0.28484  0.61248  1.0000
  O   O1        1.0  0.59063  0.98601  0.24422  1.0000
  O   O2        1.0  0.40937  0.01397  0.75580  1.0000
  O   O3        1.0  0.70028  0.63165  0.20109  1.0000
  O   O4        1.0  0.29968  0.36834  0.79891  1.0000
  O   O5        1.0  0.48423  0.74816  0.09435  1.0000
  O   O6        1.0  0.51575  0.25183  0.90564  1.0000
  O   O7        1.0  0.44653  0.81352  0.61199  1.0000
  O   O8        1.0  0.55346  0.18644  0.38801  1.0000
  O   O9        1.0  0.58143  0.62572  0.54601  1.0000
  O   O10       1.0  0.41861  0.37425  0.45400  1.0000
