data_image0
_chemical_formula_structural       Cd2H28C28N16O4
_chemical_formula_sum              "Cd2 H28 C28 N16 O4"
_cell_length_a       3.76629
_cell_length_b       12.8292
_cell_length_c       16.8801
_cell_angle_alpha    89.9999
_cell_angle_beta     90.0002
_cell_angle_gamma    93.8159

_space_group_name_H-M_alt    "P 1"
_space_group_IT_number       1

loop_
  _space_group_symop_operation_xyz
  'x, y, z'

loop_
  _atom_site_type_symbol
  _atom_site_label
  _atom_site_symmetry_multiplicity
  _atom_site_fract_x
  _atom_site_fract_y
  _atom_site_fract_z
  _atom_site_occupancy
  Cd  Cd1       1.0  0.00000  0.50000  0.50000  1.0000
  Cd  Cd2       1.0  0.00000  1.00000  0.00000  1.0000
  H   H1        1.0  0.78456  0.58905  0.67028  1.0000
  H   H2        1.0  0.21544  0.91094  0.17027  1.0000
  H   H3        1.0  0.21544  0.41095  0.32972  1.0000
  H   H4        1.0  0.78456  0.08906  0.82972  1.0000
  H   H5        1.0  0.07134  0.38072  0.85742  1.0000
  H   H6        1.0  0.92866  0.11927  0.35742  1.0000
  H   H7        1.0  0.92865  0.61928  0.14258  1.0000
  H   H8        1.0  0.07134  0.88072  0.64258  1.0000
  H   H9        1.0  0.27158  0.26004  0.75280  1.0000
  H   H10       1.0  0.72843  0.23995  0.25280  1.0000
  H   H11       1.0  0.72842  0.73996  0.24720  1.0000
  H   H12       1.0  0.27157  0.76005  0.74720  1.0000
  H   H13       1.0  0.21948  0.31028  0.61123  1.0000
  H   H14       1.0  0.78052  0.18972  0.11123  1.0000
  H   H15       1.0  0.78052  0.68972  0.38877  1.0000
  H   H16       1.0  0.21948  0.81028  0.88877  1.0000
  H   H17       1.0  0.14135  0.55709  0.92612  1.0000
  H   H18       1.0  0.85867  0.94290  0.42612  1.0000
  H   H19       1.0  0.85866  0.44291  0.07388  1.0000
  H   H20       1.0  0.14133  0.05710  0.57388  1.0000
  H   H21       1.0  0.74137  0.47837  0.93452  1.0000
  H   H22       1.0  0.25864  0.02163  0.43451  1.0000
  H   H23       1.0  0.25863  0.52164  0.06548  1.0000
  H   H24       1.0  0.74136  0.97837  0.56549  1.0000
  H   H25       1.0  0.74052  0.61677  0.95136  1.0000
  H   H26       1.0  0.25949  0.88322  0.45136  1.0000
  H   H27       1.0  0.25949  0.38323  0.04864  1.0000
  H   H28       1.0  0.74051  0.11678  0.54864  1.0000
  C   C1        1.0  0.89234  0.51690  0.69052  1.0000
  C   C2        1.0  0.10767  0.98310  0.19052  1.0000
  C   C3        1.0  0.10766  0.48310  0.30948  1.0000
  C   C4        1.0  0.89234  0.01691  0.80948  1.0000
  C   C5        1.0  0.91008  0.49521  0.77163  1.0000
  C   C6        1.0  0.08992  0.00479  0.27163  1.0000
  C   C7        1.0  0.08992  0.50479  0.22837  1.0000
  C   C8        1.0  0.91008  0.99521  0.72837  1.0000
  C   C9        1.0  0.04963  0.40150  0.79514  1.0000
  C   C10       1.0  0.95037  0.09849  0.29514  1.0000
  C   C11       1.0  0.95037  0.59850  0.20486  1.0000
  C   C12       1.0  0.04962  0.90151  0.70486  1.0000
  C   C13       1.0  0.15970  0.33333  0.73741  1.0000
  C   C14       1.0  0.84030  0.16667  0.23741  1.0000
  C   C15       1.0  0.84030  0.66667  0.26259  1.0000
  C   C16       1.0  0.15969  0.83333  0.76258  1.0000
  C   C17       1.0  0.13120  0.36095  0.65810  1.0000
  C   C18       1.0  0.86880  0.13905  0.15810  1.0000
  C   C19       1.0  0.86880  0.63905  0.34190  1.0000
  C   C20       1.0  0.13119  0.86095  0.84190  1.0000
  C   C21       1.0  0.77942  0.57203  0.82942  1.0000
  C   C22       1.0  0.22058  0.92796  0.32942  1.0000
  C   C23       1.0  0.22058  0.42797  0.17058  1.0000
  C   C24       1.0  0.77942  0.07204  0.67058  1.0000
  C   C25       1.0  0.85335  0.55586  0.91563  1.0000
  C   C26       1.0  0.14667  0.94413  0.41563  1.0000
  C   C27       1.0  0.14666  0.44414  0.08437  1.0000
  C   C28       1.0  0.85333  0.05587  0.58437  1.0000
  N   N1        1.0  0.52808  0.61317  0.52488  1.0000
  N   N2        1.0  0.47192  0.88683  0.02487  1.0000
  N   N3        1.0  0.47193  0.38684  0.47513  1.0000
  N   N4        1.0  0.52808  0.11316  0.97513  1.0000
  N   N5        1.0  0.53059  0.70384  0.54400  1.0000
  N   N6        1.0  0.46942  0.79615  0.04400  1.0000
  N   N7        1.0  0.46941  0.29616  0.45600  1.0000
  N   N8        1.0  0.53059  0.20384  0.95600  1.0000
  N   N9        1.0  0.53042  0.79159  0.56246  1.0000
  N   N10       1.0  0.46957  0.70840  0.06246  1.0000
  N   N11       1.0  0.46957  0.20841  0.43754  1.0000
  N   N12       1.0  0.53043  0.29159  0.93754  1.0000
  N   N13       1.0  0.00173  0.45171  0.63491  1.0000
  N   N14       1.0  0.99827  0.04829  0.13492  1.0000
  N   N15       1.0  0.99827  0.54830  0.36508  1.0000
  N   N16       1.0  0.00172  0.95171  0.86509  1.0000
  O   O1        1.0  0.61102  0.64550  0.80606  1.0000
  O   O2        1.0  0.38897  0.85449  0.30606  1.0000
  O   O3        1.0  0.38898  0.35450  0.19394  1.0000
  O   O4        1.0  0.61102  0.14551  0.69394  1.0000
