data_image0
_chemical_formula_structural       Cd4H56C48N32O8
_chemical_formula_sum              "Cd4 H56 C48 N32 O8"
_cell_length_a       8.87045
_cell_length_b       12.8399
_cell_length_c       15.198
_cell_angle_alpha    68.4437
_cell_angle_beta     77.2556
_cell_angle_gamma    73.5408

_space_group_name_H-M_alt    "P 1"
_space_group_IT_number       1

loop_
  _space_group_symop_operation_xyz
  'x, y, z'

loop_
  _atom_site_type_symbol
  _atom_site_label
  _atom_site_symmetry_multiplicity
  _atom_site_fract_x
  _atom_site_fract_y
  _atom_site_fract_z
  _atom_site_occupancy
  Cd  Cd1       1.0  0.38898  0.99766  0.61378  1.0000
  Cd  Cd2       1.0  0.61102  0.00234  0.38622  1.0000
  Cd  Cd3       1.0  0.16326  0.98674  0.84378  1.0000
  Cd  Cd4       1.0  0.83674  0.01326  0.15623  1.0000
  H   H1        1.0  0.67093  0.97839  0.71839  1.0000
  H   H2        1.0  0.32907  0.02161  0.28161  1.0000
  H   H3        1.0  0.85756  0.83405  0.83002  1.0000
  H   H4        1.0  0.14244  0.16594  0.16998  1.0000
  H   H5        1.0  0.69729  0.56913  0.78907  1.0000
  H   H6        1.0  0.30271  0.43087  0.21093  1.0000
  H   H7        1.0  0.51958  0.72279  0.67979  1.0000
  H   H8        1.0  0.48042  0.27721  0.32021  1.0000
  H   H9        1.0  0.02339  0.61277  0.85904  1.0000
  H   H10       1.0  0.97661  0.38723  0.14096  1.0000
  H   H11       1.0  0.87299  0.62254  0.95506  1.0000
  H   H12       1.0  0.12701  0.37746  0.04494  1.0000
  H   H13       1.0  0.12298  0.03935  0.48793  1.0000
  H   H14       1.0  0.87702  0.96065  0.51207  1.0000
  H   H15       1.0  0.92739  0.19690  0.39003  1.0000
  H   H16       1.0  0.07261  0.80311  0.60997  1.0000
  H   H17       1.0  0.07757  0.43496  0.47371  1.0000
  H   H18       1.0  0.92243  0.56504  0.52629  1.0000
  H   H19       1.0  0.26051  0.26931  0.56981  1.0000
  H   H20       1.0  0.73949  0.73069  0.43019  1.0000
  H   H21       1.0  0.93009  0.44620  0.28662  1.0000
  H   H22       1.0  0.06990  0.55380  0.71338  1.0000
  H   H23       1.0  0.76543  0.40102  0.36708  1.0000
  H   H24       1.0  0.23456  0.59899  0.63292  1.0000
  H   H25       1.0  0.46661  0.95330  0.93140  1.0000
  H   H26       1.0  0.53338  0.04670  0.06860  1.0000
  H   H27       1.0  0.65461  0.80711  0.04081  1.0000
  H   H28       1.0  0.34539  0.19289  0.95919  1.0000
  H   H29       1.0  0.40334  0.55494  0.05861  1.0000
  H   H30       1.0  0.59666  0.44506  0.94139  1.0000
  H   H31       1.0  0.22253  0.71149  0.95298  1.0000
  H   H32       1.0  0.77747  0.28851  0.04702  1.0000
  H   H33       1.0  0.59352  0.54021  0.19308  1.0000
  H   H34       1.0  0.40648  0.45979  0.80692  1.0000
  H   H35       1.0  0.70918  0.50283  0.09400  1.0000
  H   H36       1.0  0.29082  0.49717  0.90600  1.0000
  H   H37       1.0  0.91694  0.04397  0.70481  1.0000
  H   H38       1.0  0.08306  0.95603  0.29520  1.0000
  H   H39       1.0  0.71038  0.20479  0.61716  1.0000
  H   H40       1.0  0.28962  0.79521  0.38284  1.0000
  H   H41       1.0  0.81115  0.42074  0.74673  1.0000
  H   H42       1.0  0.18885  0.57926  0.25327  1.0000
  H   H43       1.0  0.00882  0.25062  0.83151  1.0000
  H   H44       1.0  0.99118  0.74938  0.16849  1.0000
  H   H45       1.0  0.68335  0.45757  0.54503  1.0000
  H   H46       1.0  0.31665  0.54243  0.45497  1.0000
  H   H47       1.0  0.52465  0.39405  0.61752  1.0000
  H   H48       1.0  0.47535  0.60595  0.38248  1.0000
  H   H49       1.0  0.00129  0.44219  0.89731  1.0000
  H   H50       1.0  0.99872  0.55781  0.10269  1.0000
  H   H51       1.0  0.78291  0.59209  0.34543  1.0000
  H   H52       1.0  0.21709  0.40791  0.65457  1.0000
  H   H53       1.0  0.75287  0.65891  0.17466  1.0000
  H   H54       1.0  0.24713  0.34109  0.82534  1.0000
  H   H55       1.0  0.52719  0.58403  0.61440  1.0000
  H   H56       1.0  0.47281  0.41597  0.38560  1.0000
  C   C1        1.0  0.68215  0.88649  0.73545  1.0000
  C   C2        1.0  0.31785  0.11351  0.26455  1.0000
  C   C3        1.0  0.78519  0.80594  0.79729  1.0000
  C   C4        1.0  0.21481  0.19406  0.20271  1.0000
  C   C5        1.0  0.79237  0.68856  0.81936  1.0000
  C   C6        1.0  0.20763  0.31144  0.18064  1.0000
  C   C7        1.0  0.69603  0.65858  0.77558  1.0000
  C   C8        1.0  0.30397  0.34142  0.22442  1.0000
  C   C9        1.0  0.59626  0.74472  0.71389  1.0000
  C   C10       1.0  0.40374  0.25527  0.28612  1.0000
  C   C11       1.0  0.90154  0.60130  0.88817  1.0000
  C   C12       1.0  0.09846  0.39870  0.11183  1.0000
  C   C13       1.0  0.10701  0.12853  0.48340  1.0000
  C   C14       1.0  0.89299  0.87147  0.51660  1.0000
  C   C15       1.0  0.99979  0.21661  0.42857  1.0000
  C   C16       1.0  0.00021  0.78340  0.57143  1.0000
  C   C17       1.0  0.98665  0.33030  0.42286  1.0000
  C   C18       1.0  0.01335  0.66971  0.57714  1.0000
  C   C19       1.0  0.08216  0.34906  0.47488  1.0000
  C   C20       1.0  0.91784  0.65094  0.52512  1.0000
  C   C21       1.0  0.18526  0.25615  0.52898  1.0000
  C   C22       1.0  0.81474  0.74385  0.47102  1.0000
  C   C23       1.0  0.87545  0.42796  0.36201  1.0000
  C   C24       1.0  0.12455  0.57204  0.63799  1.0000
  C   C25       1.0  0.45772  0.86361  0.96126  1.0000
  C   C26       1.0  0.54228  0.13639  0.03874  1.0000
  C   C27       1.0  0.56258  0.78164  0.02168  1.0000
  C   C28       1.0  0.43742  0.21836  0.97832  1.0000
  C   C29       1.0  0.54808  0.66742  0.05749  1.0000
  C   C30       1.0  0.45192  0.33258  0.94251  1.0000
  C   C31       1.0  0.42390  0.64166  0.03188  1.0000
  C   C32       1.0  0.57610  0.35834  0.96812  1.0000
  C   C33       1.0  0.32218  0.72866  0.97225  1.0000
  C   C34       1.0  0.67782  0.27134  0.02775  1.0000
  C   C35       1.0  0.66014  0.57484  0.12225  1.0000
  C   C36       1.0  0.33986  0.42516  0.87775  1.0000
  C   C37       1.0  0.88762  0.12890  0.71261  1.0000
  C   C38       1.0  0.11238  0.87110  0.28739  1.0000
  C   C39       1.0  0.77449  0.21829  0.66399  1.0000
  C   C40       1.0  0.22551  0.78171  0.33601  1.0000
  C   C41       1.0  0.74433  0.32668  0.67450  1.0000
  C   C42       1.0  0.25567  0.67332  0.32550  1.0000
  C   C43       1.0  0.82968  0.33865  0.73597  1.0000
  C   C44       1.0  0.17032  0.66135  0.26403  1.0000
  C   C45       1.0  0.94009  0.24467  0.78298  1.0000
  C   C46       1.0  0.05991  0.75533  0.21702  1.0000
  C   C47       1.0  0.62701  0.42551  0.61961  1.0000
  C   C48       1.0  0.37299  0.57449  0.38039  1.0000
  N   N1        1.0  0.40845  0.90781  0.49542  1.0000
  N   N2        1.0  0.59154  0.09219  0.50458  1.0000
  N   N3        1.0  0.42127  0.80702  0.51182  1.0000
  N   N4        1.0  0.57873  0.19298  0.48818  1.0000
  N   N5        1.0  0.43094  0.70968  0.52509  1.0000
  N   N6        1.0  0.56906  0.29032  0.47491  1.0000
  N   N7        1.0  0.19261  0.90705  0.72051  1.0000
  N   N8        1.0  0.80739  0.09295  0.27949  1.0000
  N   N9        1.0  0.20788  0.80398  0.74581  1.0000
  N   N10       1.0  0.79212  0.19602  0.25419  1.0000
  N   N11       1.0  0.22012  0.70507  0.76920  1.0000
  N   N12       1.0  0.77988  0.29493  0.23080  1.0000
  N   N13       1.0  0.37153  0.08814  0.73338  1.0000
  N   N14       1.0  0.62847  0.91186  0.26662  1.0000
  N   N15       1.0  0.35332  0.18393  0.73282  1.0000
  N   N16       1.0  0.64668  0.81607  0.26718  1.0000
  N   N17       1.0  0.33681  0.27786  0.73343  1.0000
  N   N18       1.0  0.66319  0.72214  0.26657  1.0000
  N   N19       1.0  0.97062  0.87791  0.92542  1.0000
  N   N20       1.0  0.02938  0.12209  0.07458  1.0000
  N   N21       1.0  0.89357  0.89257  0.99590  1.0000
  N   N22       1.0  0.10643  0.10743  0.00410  1.0000
  N   N23       1.0  0.81253  0.90345  0.06657  1.0000
  N   N24       1.0  0.18747  0.09655  0.93343  1.0000
  N   N25       1.0  0.58731  0.85723  0.69439  1.0000
  N   N26       1.0  0.41269  0.14277  0.30561  1.0000
  N   N27       1.0  0.19923  0.14729  0.53317  1.0000
  N   N28       1.0  0.80077  0.85271  0.46683  1.0000
  N   N29       1.0  0.33933  0.83828  0.93649  1.0000
  N   N30       1.0  0.66068  0.16172  0.06351  1.0000
  N   N31       1.0  0.96988  0.14135  0.77149  1.0000
  N   N32       1.0  0.03012  0.85865  0.22851  1.0000
  O   O1        1.0  0.89135  0.48630  0.90663  1.0000
  O   O2        1.0  0.10865  0.51370  0.09337  1.0000
  O   O3        1.0  0.84517  0.52623  0.39112  1.0000
  O   O4        1.0  0.15483  0.47377  0.60888  1.0000
  O   O5        1.0  0.79145  0.61260  0.13101  1.0000
  O   O6        1.0  0.20855  0.38740  0.86899  1.0000
  O   O7        1.0  0.57936  0.51410  0.66187  1.0000
  O   O8        1.0  0.42064  0.48590  0.33813  1.0000
