data_image0
_chemical_formula_structural       Hg2P4H52C36N4Cl4O12
_chemical_formula_sum              "Hg2 P4 H52 C36 N4 Cl4 O12"
_cell_length_a       8.17119
_cell_length_b       11.8634
_cell_length_c       14.048
_cell_angle_alpha    90
_cell_angle_beta     90
_cell_angle_gamma    109.46

_space_group_name_H-M_alt    "P 1"
_space_group_IT_number       1

loop_
  _space_group_symop_operation_xyz
  'x, y, z'

loop_
  _atom_site_type_symbol
  _atom_site_label
  _atom_site_symmetry_multiplicity
  _atom_site_fract_x
  _atom_site_fract_y
  _atom_site_fract_z
  _atom_site_occupancy
  Hg  Hg1       1.0  0.56679  0.77289  0.75000  1.0000
  Hg  Hg2       1.0  0.43321  0.22711  0.25000  1.0000
  P   P1        1.0  0.68048  0.45465  0.75000  1.0000
  P   P2        1.0  0.31951  0.54535  0.25000  1.0000
  P   P3        1.0  0.06290  0.15141  0.75000  1.0000
  P   P4        1.0  0.93710  0.84859  0.25000  1.0000
  H   H1        1.0  0.30357  0.50019  0.75000  1.0000
  H   H2        1.0  0.69643  0.49981  0.25000  1.0000
  H   H3        1.0  0.99069  0.38113  0.75000  1.0000
  H   H4        1.0  0.00931  0.61888  0.25000  1.0000
  H   H5        1.0  0.49532  0.42944  0.58267  1.0000
  H   H6        1.0  0.49532  0.42944  0.91733  1.0000
  H   H7        1.0  0.50468  0.57056  0.41733  1.0000
  H   H8        1.0  0.50468  0.57056  0.08267  1.0000
  H   H9        1.0  0.53097  0.29883  0.53957  1.0000
  H   H10       1.0  0.53097  0.29883  0.96043  1.0000
  H   H11       1.0  0.46903  0.70117  0.46043  1.0000
  H   H12       1.0  0.46903  0.70116  0.03957  1.0000
  H   H13       1.0  0.69224  0.46909  0.43790  1.0000
  H   H14       1.0  0.69224  0.46909  0.06210  1.0000
  H   H15       1.0  0.30776  0.53091  0.56210  1.0000
  H   H16       1.0  0.30776  0.53091  0.93790  1.0000
  H   H17       1.0  0.84505  0.42329  0.50347  1.0000
  H   H18       1.0  0.84505  0.42329  0.99653  1.0000
  H   H19       1.0  0.15495  0.57671  0.49653  1.0000
  H   H20       1.0  0.15495  0.57671  0.00347  1.0000
  H   H21       1.0  0.79762  0.55462  0.53783  1.0000
  H   H22       1.0  0.79761  0.55462  0.96217  1.0000
  H   H23       1.0  0.20238  0.44538  0.46217  1.0000
  H   H24       1.0  0.20239  0.44538  0.03783  1.0000
  H   H25       1.0  0.87858  0.71183  0.75000  1.0000
  H   H26       1.0  0.12143  0.28817  0.25000  1.0000
  H   H27       1.0  0.97454  0.88817  0.75000  1.0000
  H   H28       1.0  0.02546  0.11182  0.25000  1.0000
  H   H29       1.0  0.04650  0.09852  0.53730  1.0000
  H   H30       1.0  0.04650  0.09852  0.96270  1.0000
  H   H31       1.0  0.95350  0.90148  0.46270  1.0000
  H   H32       1.0  0.95350  0.90148  0.03730  1.0000
  H   H33       1.0  0.05337  0.24482  0.57067  1.0000
  H   H34       1.0  0.05337  0.24482  0.92934  1.0000
  H   H35       1.0  0.94663  0.75518  0.42933  1.0000
  H   H36       1.0  0.94662  0.75518  0.07066  1.0000
  H   H37       1.0  0.83295  0.16413  0.44228  1.0000
  H   H38       1.0  0.83295  0.16414  0.05772  1.0000
  H   H39       1.0  0.16705  0.83586  0.55772  1.0000
  H   H40       1.0  0.16705  0.83586  0.94228  1.0000
  H   H41       1.0  0.72799  0.18215  0.54967  1.0000
  H   H42       1.0  0.72799  0.18215  0.95033  1.0000
  H   H43       1.0  0.27201  0.81785  0.45033  1.0000
  H   H44       1.0  0.27201  0.81785  0.04967  1.0000
  H   H45       1.0  0.72434  0.03686  0.51400  1.0000
  H   H46       1.0  0.72435  0.03687  0.98601  1.0000
  H   H47       1.0  0.27566  0.96313  0.48600  1.0000
  H   H48       1.0  0.27565  0.96313  0.01399  1.0000
  H   H49       1.0  0.43607  0.19966  0.75000  1.0000
  H   H50       1.0  0.56393  0.80034  0.25000  1.0000
  H   H51       1.0  0.61235  0.06182  0.75000  1.0000
  H   H52       1.0  0.38765  0.93819  0.25000  1.0000
  C   C1        1.0  0.20550  0.54389  0.75000  1.0000
  C   C2        1.0  0.79450  0.45611  0.25000  1.0000
  C   C3        1.0  0.02938  0.47808  0.75000  1.0000
  C   C4        1.0  0.97062  0.52192  0.25000  1.0000
  C   C5        1.0  0.90997  0.53913  0.75000  1.0000
  C   C6        1.0  0.09003  0.46087  0.25000  1.0000
  C   C7        1.0  0.59441  0.38717  0.57107  1.0000
  C   C8        1.0  0.59441  0.38717  0.92893  1.0000
  C   C9        1.0  0.40559  0.61283  0.42893  1.0000
  C   C10       1.0  0.40559  0.61283  0.07107  1.0000
  C   C11       1.0  0.74211  0.46331  0.50970  1.0000
  C   C12       1.0  0.74211  0.46331  0.99030  1.0000
  C   C13       1.0  0.25789  0.53669  0.49030  1.0000
  C   C14       1.0  0.25789  0.53669  0.00970  1.0000
  C   C15       1.0  0.97091  0.66387  0.75000  1.0000
  C   C16       1.0  0.02909  0.33613  0.25000  1.0000
  C   C17       1.0  0.15036  0.72477  0.75000  1.0000
  C   C18       1.0  0.84964  0.27523  0.25000  1.0000
  C   C19       1.0  0.22266  0.85765  0.75000  1.0000
  C   C20       1.0  0.77734  0.14235  0.25000  1.0000
  C   C21       1.0  0.11524  0.92844  0.75000  1.0000
  C   C22       1.0  0.88476  0.07156  0.25000  1.0000
  C   C23       1.0  0.19158  0.05283  0.75000  1.0000
  C   C24       1.0  0.80842  0.94717  0.25000  1.0000
  C   C25       1.0  0.97088  0.15028  0.56876  1.0000
  C   C26       1.0  0.97088  0.15028  0.93125  1.0000
  C   C27       1.0  0.02912  0.84972  0.43125  1.0000
  C   C28       1.0  0.02912  0.84972  0.06875  1.0000
  C   C29       1.0  0.80331  0.13202  0.51562  1.0000
  C   C30       1.0  0.80332  0.13202  0.98438  1.0000
  C   C31       1.0  0.19668  0.86798  0.48438  1.0000
  C   C32       1.0  0.19668  0.86798  0.01562  1.0000
  C   C33       1.0  0.37260  0.10325  0.75000  1.0000
  C   C34       1.0  0.62740  0.89675  0.25000  1.0000
  C   C35       1.0  0.47072  0.02701  0.75000  1.0000
  C   C36       1.0  0.52928  0.97299  0.25000  1.0000
  N   N1        1.0  0.26355  0.66383  0.75000  1.0000
  N   N2        1.0  0.73645  0.33617  0.25000  1.0000
  N   N3        1.0  0.39699  0.90800  0.75000  1.0000
  N   N4        1.0  0.60302  0.09200  0.25000  1.0000
  Cl  Cl1       1.0  0.71138  0.79199  0.59610  1.0000
  Cl  Cl2       1.0  0.71138  0.79199  0.90390  1.0000
  Cl  Cl3       1.0  0.28862  0.20801  0.40390  1.0000
  Cl  Cl4       1.0  0.28862  0.20801  0.09610  1.0000
  O   O1        1.0  0.57044  0.53183  0.75000  1.0000
  O   O2        1.0  0.42956  0.46817  0.25000  1.0000
  O   O3        1.0  0.65538  0.36258  0.66441  1.0000
  O   O4        1.0  0.65538  0.36258  0.83559  1.0000
  O   O5        1.0  0.34462  0.63742  0.33559  1.0000
  O   O6        1.0  0.34462  0.63742  0.16441  1.0000
  O   O7        1.0  0.17910  0.27769  0.75000  1.0000
  O   O8        1.0  0.82090  0.72231  0.25000  1.0000
  O   O9        1.0  0.92554  0.10921  0.66624  1.0000
  O   O10       1.0  0.92555  0.10921  0.83376  1.0000
  O   O11       1.0  0.07445  0.89079  0.33376  1.0000
  O   O12       1.0  0.07446  0.89079  0.16624  1.0000
