data_image0
_chemical_formula_structural       Ag4H20C16S8N8O12
_chemical_formula_sum              "Ag4 H20 C16 S8 N8 O12"
_cell_length_a       7.80404
_cell_length_b       10.2557
_cell_length_c       10.6769
_cell_angle_alpha    107.436
_cell_angle_beta     90.0001
_cell_angle_gamma    90.0001

_space_group_name_H-M_alt    "P 1"
_space_group_IT_number       1

loop_
  _space_group_symop_operation_xyz
  'x, y, z'

loop_
  _atom_site_type_symbol
  _atom_site_label
  _atom_site_symmetry_multiplicity
  _atom_site_fract_x
  _atom_site_fract_y
  _atom_site_fract_z
  _atom_site_occupancy
  Ag  Ag1       1.0  0.43215  0.91556  0.37461  1.0000
  Ag  Ag2       1.0  0.93215  0.08444  0.12538  1.0000
  Ag  Ag3       1.0  0.56785  0.08444  0.62539  1.0000
  Ag  Ag4       1.0  0.06785  0.91556  0.87461  1.0000
  H   H1        1.0  0.54840  0.90605  0.86276  1.0000
  H   H2        1.0  0.04840  0.09395  0.63724  1.0000
  H   H3        1.0  0.45160  0.09395  0.13724  1.0000
  H   H4        1.0  0.95160  0.90605  0.36276  1.0000
  H   H5        1.0  0.58893  0.72893  0.77824  1.0000
  H   H6        1.0  0.08893  0.27107  0.72176  1.0000
  H   H7        1.0  0.41107  0.27107  0.22176  1.0000
  H   H8        1.0  0.91107  0.72893  0.27824  1.0000
  H   H9        1.0  0.41468  0.81697  0.72726  1.0000
  H   H10       1.0  0.91468  0.18303  0.77275  1.0000
  H   H11       1.0  0.58532  0.18303  0.27274  1.0000
  H   H12       1.0  0.08532  0.81697  0.22726  1.0000
  H   H13       1.0  0.51619  0.60880  0.22639  1.0000
  H   H14       1.0  0.01620  0.39120  0.27361  1.0000
  H   H15       1.0  0.48380  0.39120  0.77361  1.0000
  H   H16       1.0  0.98381  0.60880  0.72639  1.0000
  H   H17       1.0  0.70140  0.41922  0.29312  1.0000
  H   H18       1.0  0.20140  0.58078  0.20688  1.0000
  H   H19       1.0  0.29860  0.58078  0.70688  1.0000
  H   H20       1.0  0.79860  0.41922  0.79312  1.0000
  C   C1        1.0  0.54407  0.82635  0.76803  1.0000
  C   C2        1.0  0.04407  0.17365  0.73197  1.0000
  C   C3        1.0  0.45593  0.17365  0.23197  1.0000
  C   C4        1.0  0.95593  0.82635  0.26803  1.0000
  C   C5        1.0  0.66949  0.74577  0.51787  1.0000
  C   C6        1.0  0.16949  0.25423  0.98213  1.0000
  C   C7        1.0  0.33051  0.25422  0.48213  1.0000
  C   C8        1.0  0.83052  0.74577  0.01787  1.0000
  C   C9        1.0  0.58466  0.62207  0.31789  1.0000
  C   C10       1.0  0.08466  0.37794  0.18211  1.0000
  C   C11       1.0  0.41534  0.37794  0.68210  1.0000
  C   C12       1.0  0.91535  0.62207  0.81789  1.0000
  C   C13       1.0  0.67827  0.52429  0.35102  1.0000
  C   C14       1.0  0.17827  0.47572  0.14898  1.0000
  C   C15       1.0  0.32173  0.47571  0.64897  1.0000
  C   C16       1.0  0.82173  0.52428  0.85102  1.0000
  S   S1        1.0  0.69239  0.88223  0.66313  1.0000
  S   S2        1.0  0.19239  0.11777  0.83688  1.0000
  S   S3        1.0  0.30761  0.11777  0.33687  1.0000
  S   S4        1.0  0.80761  0.88223  0.16313  1.0000
  S   S5        1.0  0.76421  0.59046  0.50396  1.0000
  S   S6        1.0  0.26421  0.40954  0.99604  1.0000
  S   S7        1.0  0.23579  0.40954  0.49604  1.0000
  S   S8        1.0  0.73579  0.59046  0.00396  1.0000
  N   N1        1.0  0.32875  0.77990  0.04437  1.0000
  N   N2        1.0  0.82875  0.22010  0.45563  1.0000
  N   N3        1.0  0.67125  0.22011  0.95563  1.0000
  N   N4        1.0  0.17125  0.77990  0.54437  1.0000
  N   N5        1.0  0.57976  0.74716  0.41251  1.0000
  N   N6        1.0  0.07976  0.25284  0.08749  1.0000
  N   N7        1.0  0.42024  0.25284  0.58749  1.0000
  N   N8        1.0  0.92024  0.74716  0.91251  1.0000
  O   O1        1.0  0.36677  0.74438  0.14609  1.0000
  O   O2        1.0  0.86677  0.25562  0.35391  1.0000
  O   O3        1.0  0.63323  0.25562  0.85391  1.0000
  O   O4        1.0  0.13323  0.74438  0.64609  1.0000
  O   O5        1.0  0.29435  0.90470  0.05762  1.0000
  O   O6        1.0  0.79435  0.09530  0.44238  1.0000
  O   O7        1.0  0.70565  0.09530  0.94238  1.0000
  O   O8        1.0  0.20565  0.90470  0.55762  1.0000
  O   O9        1.0  0.32401  0.69168  0.93364  1.0000
  O   O10       1.0  0.82401  0.30832  0.56637  1.0000
  O   O11       1.0  0.67599  0.30832  0.06637  1.0000
  O   O12       1.0  0.17599  0.69168  0.43364  1.0000
