data_image0
_chemical_formula_structural       Ag8H40C32S16N16O24
_chemical_formula_sum              "Ag8 H40 C32 S16 N16 O24"
_cell_length_a       7.70835
_cell_length_b       11.3407
_cell_length_c       21.4597
_cell_angle_alpha    96.7664
_cell_angle_beta     97.2206
_cell_angle_gamma    107.261

_space_group_name_H-M_alt    "P 1"
_space_group_IT_number       1

loop_
  _space_group_symop_operation_xyz
  'x, y, z'

loop_
  _atom_site_type_symbol
  _atom_site_label
  _atom_site_symmetry_multiplicity
  _atom_site_fract_x
  _atom_site_fract_y
  _atom_site_fract_z
  _atom_site_occupancy
  Ag  Ag1       1.0  0.25216  0.39567  0.24807  1.0000
  Ag  Ag2       1.0  0.74784  0.60432  0.75193  1.0000
  Ag  Ag3       1.0  0.36207  0.69221  0.29138  1.0000
  Ag  Ag4       1.0  0.63793  0.30779  0.70862  1.0000
  Ag  Ag5       1.0  0.96184  0.96206  0.24498  1.0000
  Ag  Ag6       1.0  0.03816  0.03793  0.75502  1.0000
  Ag  Ag7       1.0  0.89929  0.67970  0.28854  1.0000
  Ag  Ag8       1.0  0.10071  0.32030  0.71146  1.0000
  H   H1        1.0  0.83507  0.32710  0.38667  1.0000
  H   H2        1.0  0.16493  0.67291  0.61333  1.0000
  H   H3        1.0  0.02195  0.26569  0.37360  1.0000
  H   H4        1.0  0.97804  0.73431  0.62640  1.0000
  H   H5        1.0  0.83320  0.23783  0.31055  1.0000
  H   H6        1.0  0.16680  0.76217  0.68945  1.0000
  H   H7        1.0  0.55104  0.77153  0.44156  1.0000
  H   H8        1.0  0.44896  0.22848  0.55844  1.0000
  H   H9        1.0  0.45640  0.64560  0.53873  1.0000
  H   H10       1.0  0.54360  0.35440  0.46127  1.0000
  H   H11       1.0  0.02001  0.41350  0.04192  1.0000
  H   H12       1.0  0.97999  0.58650  0.95808  1.0000
  H   H13       1.0  0.98548  0.28874  0.08827  1.0000
  H   H14       1.0  0.01452  0.71126  0.91174  1.0000
  H   H15       1.0  0.21326  0.36483  0.07325  1.0000
  H   H16       1.0  0.78674  0.63517  0.92675  1.0000
  H   H17       1.0  0.54968  0.89603  0.20567  1.0000
  H   H18       1.0  0.45032  0.10397  0.79433  1.0000
  H   H19       1.0  0.50423  0.88286  0.08065  1.0000
  H   H20       1.0  0.49577  0.11714  0.91935  1.0000
  H   H21       1.0  0.97240  0.79386  0.03710  1.0000
  H   H22       1.0  0.02760  0.20614  0.96290  1.0000
  H   H23       1.0  0.03607  0.95186  0.07747  1.0000
  H   H24       1.0  0.96393  0.04814  0.92253  1.0000
  H   H25       1.0  0.79840  0.85741  0.06346  1.0000
  H   H26       1.0  0.20161  0.14259  0.93654  1.0000
  H   H27       1.0  0.63045  0.42498  0.20414  1.0000
  H   H28       1.0  0.36955  0.57502  0.79586  1.0000
  H   H29       1.0  0.53392  0.36138  0.07895  1.0000
  H   H30       1.0  0.46608  0.63862  0.92104  1.0000
  H   H31       1.0  0.53460  0.08133  0.37923  1.0000
  H   H32       1.0  0.46540  0.91867  0.62077  1.0000
  H   H33       1.0  0.36927  0.15647  0.35002  1.0000
  H   H34       1.0  0.63072  0.84353  0.64998  1.0000
  H   H35       1.0  0.50759  0.10651  0.29824  1.0000
  H   H36       1.0  0.49241  0.89349  0.70176  1.0000
  H   H37       1.0  0.88201  0.69772  0.44105  1.0000
  H   H38       1.0  0.11800  0.30228  0.55895  1.0000
  H   H39       1.0  0.09119  0.88560  0.53567  1.0000
  H   H40       1.0  0.90882  0.11440  0.46433  1.0000
  C   C1        1.0  0.91887  0.30453  0.35224  1.0000
  C   C2        1.0  0.08113  0.69547  0.64776  1.0000
  C   C3        1.0  0.18972  0.53090  0.38733  1.0000
  C   C4        1.0  0.81028  0.46910  0.61267  1.0000
  C   C5        1.0  0.43611  0.68733  0.43981  1.0000
  C   C6        1.0  0.56388  0.31268  0.56019  1.0000
  C   C7        1.0  0.38924  0.62581  0.48924  1.0000
  C   C8        1.0  0.61076  0.37419  0.51076  1.0000
  C   C9        1.0  0.08210  0.37756  0.08129  1.0000
  C   C10       1.0  0.91790  0.62244  0.91871  1.0000
  C   C11       1.0  0.26922  0.61886  0.14300  1.0000
  C   C12       1.0  0.73078  0.38114  0.85700  1.0000
  C   C13       1.0  0.46247  0.81553  0.17134  1.0000
  C   C14       1.0  0.53753  0.18447  0.82866  1.0000
  C   C15       1.0  0.44059  0.80994  0.10685  1.0000
  C   C16       1.0  0.55941  0.19006  0.89315  1.0000
  C   C17       1.0  0.94094  0.85698  0.07362  1.0000
  C   C18       1.0  0.05907  0.14302  0.92638  1.0000
  C   C19       1.0  0.82705  0.66591  0.14088  1.0000
  C   C20       1.0  0.17295  0.33409  0.85912  1.0000
  C   C21       1.0  0.67279  0.48499  0.16942  1.0000
  C   C22       1.0  0.32721  0.51501  0.83058  1.0000
  C   C23       1.0  0.62271  0.45126  0.10500  1.0000
  C   C24       1.0  0.37729  0.54874  0.89500  1.0000
  C   C25       1.0  0.43627  0.08597  0.33875  1.0000
  C   C26       1.0  0.56373  0.91404  0.66125  1.0000
  C   C27       1.0  0.18462  0.89614  0.38093  1.0000
  C   C28       1.0  0.81537  0.10386  0.61907  1.0000
  C   C29       1.0  0.99591  0.77875  0.43727  1.0000
  C   C30       1.0  0.00409  0.22124  0.56273  1.0000
  C   C31       1.0  0.10099  0.87185  0.48540  1.0000
  C   C32       1.0  0.89902  0.12815  0.51460  1.0000
  S   S1        1.0  0.03077  0.44295  0.32113  1.0000
  S   S2        1.0  0.96922  0.55705  0.67887  1.0000
  S   S3        1.0  0.19732  0.49688  0.46345  1.0000
  S   S4        1.0  0.80267  0.50312  0.53655  1.0000
  S   S5        1.0  0.11391  0.48062  0.15516  1.0000
  S   S6        1.0  0.88609  0.51938  0.84484  1.0000
  S   S7        1.0  0.29398  0.66545  0.06971  1.0000
  S   S8        1.0  0.70602  0.33454  0.93029  1.0000
  S   S9        1.0  0.98769  0.81399  0.15073  1.0000
  S   S10       1.0  0.01231  0.18601  0.84927  1.0000
  S   S11       1.0  0.72237  0.57415  0.06770  1.0000
  S   S12       1.0  0.27764  0.42585  0.93230  1.0000
  S   S13       1.0  0.26753  0.93377  0.31189  1.0000
  S   S14       1.0  0.73247  0.06623  0.68811  1.0000
  S   S15       1.0  0.26566  0.98031  0.45648  1.0000
  S   S16       1.0  0.73434  0.01968  0.54352  1.0000
  N   N1        1.0  0.27534  0.15640  0.18300  1.0000
  N   N2        1.0  0.72466  0.84359  0.81700  1.0000
  N   N3        1.0  0.58333  0.46530  0.35388  1.0000
  N   N4        1.0  0.41667  0.53470  0.64612  1.0000
  N   N5        1.0  0.75403  0.93795  0.35539  1.0000
  N   N6        1.0  0.24597  0.06205  0.64461  1.0000
  N   N7        1.0  0.80127  0.15270  0.17846  1.0000
  N   N8        1.0  0.19873  0.84730  0.82154  1.0000
  N   N9        1.0  0.32310  0.63319  0.38205  1.0000
  N   N10       1.0  0.67690  0.36681  0.61795  1.0000
  N   N11       1.0  0.36679  0.70739  0.19143  1.0000
  N   N12       1.0  0.63321  0.29262  0.80857  1.0000
  N   N13       1.0  0.78700  0.60629  0.18948  1.0000
  N   N14       1.0  0.21299  0.39371  0.81051  1.0000
  N   N15       1.0  0.04352  0.79290  0.37807  1.0000
  N   N16       1.0  0.95648  0.20710  0.62193  1.0000
  O   O1        1.0  0.19368  0.16876  0.23143  1.0000
  O   O2        1.0  0.80632  0.83124  0.76857  1.0000
  O   O3        1.0  0.34456  0.25275  0.15910  1.0000
  O   O4        1.0  0.65544  0.74724  0.84090  1.0000
  O   O5        1.0  0.28485  0.05139  0.16139  1.0000
  O   O6        1.0  0.71515  0.94861  0.83861  1.0000
  O   O7        1.0  0.57389  0.50968  0.30127  1.0000
  O   O8        1.0  0.42611  0.49032  0.69873  1.0000
  O   O9        1.0  0.44892  0.37582  0.36187  1.0000
  O   O10       1.0  0.55108  0.62418  0.63813  1.0000
  O   O11       1.0  0.72558  0.51168  0.39551  1.0000
  O   O12       1.0  0.27441  0.48832  0.60449  1.0000
  O   O13       1.0  0.69938  0.85690  0.30398  1.0000
  O   O14       1.0  0.30062  0.14309  0.69602  1.0000
  O   O15       1.0  0.90078  0.02841  0.36000  1.0000
  O   O16       1.0  0.09921  0.97159  0.64000  1.0000
  O   O17       1.0  0.66107  0.92672  0.39972  1.0000
  O   O18       1.0  0.33894  0.07329  0.60028  1.0000
  O   O19       1.0  0.76071  0.08892  0.22353  1.0000
  O   O20       1.0  0.23929  0.91108  0.77648  1.0000
  O   O21       1.0  0.82039  0.09962  0.12588  1.0000
  O   O22       1.0  0.17961  0.90038  0.87412  1.0000
  O   O23       1.0  0.82266  0.26851  0.18846  1.0000
  O   O24       1.0  0.17734  0.73149  0.81154  1.0000
