data_image0
_chemical_formula_structural       Ca4H40C24O24
_chemical_formula_sum              "Ca4 H40 C24 O24"
_cell_length_a       6.88221
_cell_length_b       11.2482
_cell_length_c       13.7679
_cell_angle_alpha    114.26
_cell_angle_beta     89.9757
_cell_angle_gamma    107.818

_space_group_name_H-M_alt    "P 1"
_space_group_IT_number       1

loop_
  _space_group_symop_operation_xyz
  'x, y, z'

loop_
  _atom_site_type_symbol
  _atom_site_label
  _atom_site_symmetry_multiplicity
  _atom_site_fract_x
  _atom_site_fract_y
  _atom_site_fract_z
  _atom_site_occupancy
  Ca  Ca1       1.0  0.05693  0.10332  0.66142  1.0000
  Ca  Ca2       1.0  0.95337  0.89663  0.83855  1.0000
  Ca  Ca3       1.0  0.94307  0.89668  0.33858  1.0000
  Ca  Ca4       1.0  0.04664  0.10337  0.16145  1.0000
  H   H1        1.0  0.39215  0.35487  0.43066  1.0000
  H   H2        1.0  0.03663  0.64493  0.06904  1.0000
  H   H3        1.0  0.60785  0.64513  0.56934  1.0000
  H   H4        1.0  0.96337  0.35507  0.93096  1.0000
  H   H5        1.0  0.36583  0.37115  0.56580  1.0000
  H   H6        1.0  0.99407  0.62877  0.93395  1.0000
  H   H7        1.0  0.63417  0.62885  0.43420  1.0000
  H   H8        1.0  0.00593  0.37123  0.06605  1.0000
  H   H9        1.0  0.19638  0.41220  0.49870  1.0000
  H   H10       1.0  0.78356  0.58773  0.00114  1.0000
  H   H11       1.0  0.80362  0.58780  0.50130  1.0000
  H   H12       1.0  0.21644  0.41227  0.99886  1.0000
  H   H13       1.0  0.28530  0.87944  0.54441  1.0000
  H   H14       1.0  0.40556  0.12044  0.95556  1.0000
  H   H15       1.0  0.71470  0.12055  0.45559  1.0000
  H   H16       1.0  0.59444  0.87956  0.04444  1.0000
  H   H17       1.0  0.44735  0.85155  0.62772  1.0000
  H   H18       1.0  0.59555  0.14832  0.87219  1.0000
  H   H19       1.0  0.55265  0.14845  0.37228  1.0000
  H   H20       1.0  0.40446  0.85168  0.12781  1.0000
  H   H21       1.0  0.53810  0.87617  0.51460  1.0000
  H   H22       1.0  0.66158  0.12365  0.98525  1.0000
  H   H23       1.0  0.46190  0.12383  0.48540  1.0000
  H   H24       1.0  0.33842  0.87635  0.01475  1.0000
  H   H25       1.0  0.56811  0.63643  0.85735  1.0000
  H   H26       1.0  0.93152  0.36350  0.64240  1.0000
  H   H27       1.0  0.43189  0.36357  0.14266  1.0000
  H   H28       1.0  0.06848  0.63650  0.35760  1.0000
  H   H29       1.0  0.44356  0.60491  0.96168  1.0000
  H   H30       1.0  0.83869  0.39509  0.53809  1.0000
  H   H31       1.0  0.55645  0.39509  0.03832  1.0000
  H   H32       1.0  0.16131  0.60491  0.46191  1.0000
  H   H33       1.0  0.29793  0.60914  0.85583  1.0000
  H   H34       1.0  0.68870  0.39086  0.64397  1.0000
  H   H35       1.0  0.70207  0.39086  0.14417  1.0000
  H   H36       1.0  0.31129  0.60914  0.35602  1.0000
  H   H37       1.0  0.49167  0.27691  0.77217  1.0000
  H   H38       1.0  0.21460  0.72306  0.72770  1.0000
  H   H39       1.0  0.50833  0.72309  0.22782  1.0000
  H   H40       1.0  0.78540  0.27694  0.27230  1.0000
  C   C1        1.0  0.13702  0.19527  0.44100  1.0000
  C   C2        1.0  0.94133  0.80468  0.05893  1.0000
  C   C3        1.0  0.86299  0.80473  0.55900  1.0000
  C   C4        1.0  0.05867  0.19532  0.94107  1.0000
  C   C5        1.0  0.28420  0.34184  0.48700  1.0000
  C   C6        1.0  0.94174  0.65804  0.01278  1.0000
  C   C7        1.0  0.71580  0.65816  0.51300  1.0000
  C   C8        1.0  0.05826  0.34196  0.98722  1.0000
  C   C9        1.0  0.53743  0.06071  0.65081  1.0000
  C   C10       1.0  0.47638  0.93912  0.84905  1.0000
  C   C11       1.0  0.46257  0.93929  0.34919  1.0000
  C   C12       1.0  0.52362  0.06088  0.15095  1.0000
  C   C13       1.0  0.44498  0.90769  0.57882  1.0000
  C   C14       1.0  0.53696  0.09216  0.92107  1.0000
  C   C15       1.0  0.55502  0.09231  0.42118  1.0000
  C   C16       1.0  0.46304  0.90783  0.07892  1.0000
  C   C17       1.0  0.37992  0.42700  0.81029  1.0000
  C   C18       1.0  0.95286  0.57293  0.68955  1.0000
  C   C19       1.0  0.62004  0.57298  0.18969  1.0000
  C   C20       1.0  0.04713  0.42707  0.31045  1.0000
  C   C21       1.0  0.42375  0.57893  0.87532  1.0000
  C   C22       1.0  0.84475  0.42105  0.62445  1.0000
  C   C23       1.0  0.57626  0.42108  0.12469  1.0000
  C   C24       1.0  0.15525  0.57895  0.37555  1.0000
  O   O1        1.0  0.08249  0.13345  0.50155  1.0000
  O   O2        1.0  0.94845  0.86655  0.99844  1.0000
  O   O3        1.0  0.91752  0.86655  0.49845  1.0000
  O   O4        1.0  0.05156  0.13345  0.00156  1.0000
  O   O5        1.0  0.06648  0.13214  0.34098  1.0000
  O   O6        1.0  0.93440  0.86785  0.15902  1.0000
  O   O7        1.0  0.93352  0.86786  0.65902  1.0000
  O   O8        1.0  0.06560  0.13215  0.84098  1.0000
  O   O9        1.0  0.73030  0.11729  0.67428  1.0000
  O   O10       1.0  0.61268  0.88251  0.82554  1.0000
  O   O11       1.0  0.26970  0.88271  0.32572  1.0000
  O   O12       1.0  0.38731  0.11748  0.17446  1.0000
  O   O13       1.0  0.41152  0.12785  0.68792  1.0000
  O   O14       1.0  0.28337  0.87200  0.81201  1.0000
  O   O15       1.0  0.58848  0.87215  0.31208  1.0000
  O   O16       1.0  0.71663  0.12800  0.18799  1.0000
  O   O17       1.0  0.21938  0.35046  0.74530  1.0000
  O   O18       1.0  0.86885  0.64942  0.75472  1.0000
  O   O19       1.0  0.78064  0.64955  0.25472  1.0000
  O   O20       1.0  0.13115  0.35058  0.24528  1.0000
  O   O21       1.0  0.52666  0.38102  0.82716  1.0000
  O   O22       1.0  0.14552  0.61899  0.67260  1.0000
  O   O23       1.0  0.47335  0.61898  0.17284  1.0000
  O   O24       1.0  0.85449  0.38101  0.32740  1.0000
