data_image0
_chemical_formula_structural       Cd8P12H52C36O38
_chemical_formula_sum              "Cd8 P12 H52 C36 O38"
_cell_length_a       8.55063
_cell_length_b       8.74539
_cell_length_c       21.5854
_cell_angle_alpha    86.1569
_cell_angle_beta     86.0692
_cell_angle_gamma    63.5755

_space_group_name_H-M_alt    "P 1"
_space_group_IT_number       1

loop_
  _space_group_symop_operation_xyz
  'x, y, z'

loop_
  _atom_site_type_symbol
  _atom_site_label
  _atom_site_symmetry_multiplicity
  _atom_site_fract_x
  _atom_site_fract_y
  _atom_site_fract_z
  _atom_site_occupancy
  Cd  Cd1       1.0  0.01566  0.21724  0.24001  1.0000
  Cd  Cd2       1.0  0.78417  0.97470  0.26180  1.0000
  Cd  Cd3       1.0  0.98434  0.78275  0.75998  1.0000
  Cd  Cd4       1.0  0.21583  0.02530  0.73819  1.0000
  Cd  Cd5       1.0  0.33089  0.35386  0.27992  1.0000
  Cd  Cd6       1.0  0.60730  0.67829  0.22578  1.0000
  Cd  Cd7       1.0  0.66905  0.64619  0.72009  1.0000
  Cd  Cd8       1.0  0.39267  0.32169  0.77422  1.0000
  P   P1        1.0  0.01515  0.59315  0.17138  1.0000
  P   P2        1.0  0.39114  0.98691  0.33228  1.0000
  P   P3        1.0  0.98485  0.40684  0.82862  1.0000
  P   P4        1.0  0.60885  0.01309  0.66773  1.0000
  P   P5        1.0  0.63631  0.03323  0.88083  1.0000
  P   P6        1.0  0.98589  0.35135  0.62479  1.0000
  P   P7        1.0  0.36371  0.96675  0.11917  1.0000
  P   P8        1.0  0.01408  0.64867  0.37522  1.0000
  P   P9        1.0  0.36022  0.67883  0.84343  1.0000
  P   P10       1.0  0.33690  0.61933  0.65937  1.0000
  P   P11       1.0  0.63980  0.32114  0.15655  1.0000
  P   P12       1.0  0.66309  0.38065  0.34062  1.0000
  H   H1        1.0  0.28267  0.46482  0.02391  1.0000
  H   H2        1.0  0.53194  0.71300  0.47624  1.0000
  H   H3        1.0  0.71738  0.53520  0.97608  1.0000
  H   H4        1.0  0.46805  0.28705  0.52376  1.0000
  H   H5        1.0  0.06394  0.91801  0.90421  1.0000
  H   H6        1.0  0.08193  0.93095  0.60221  1.0000
  H   H7        1.0  0.93608  0.08198  0.09578  1.0000
  H   H8        1.0  0.91806  0.06902  0.39780  1.0000
  H   H9        1.0  0.74167  0.82202  0.04835  1.0000
  H   H10       1.0  0.17698  0.24658  0.45745  1.0000
  H   H11       1.0  0.25837  0.17799  0.95166  1.0000
  H   H12       1.0  0.82296  0.75344  0.54256  1.0000
  H   H13       1.0  0.09469  0.39161  0.09342  1.0000
  H   H14       1.0  0.60911  0.89041  0.40559  1.0000
  H   H15       1.0  0.90541  0.60841  0.90658  1.0000
  H   H16       1.0  0.39089  0.10971  0.59443  1.0000
  H   H17       1.0  0.86665  0.52182  0.09875  1.0000
  H   H18       1.0  0.49052  0.11412  0.40463  1.0000
  H   H19       1.0  0.13344  0.47811  0.90124  1.0000
  H   H20       1.0  0.50933  0.88600  0.59537  1.0000
  H   H21       1.0  0.77122  0.14842  0.94137  1.0000
  H   H22       1.0  0.84942  0.22342  0.56950  1.0000
  H   H23       1.0  0.22880  0.85157  0.05862  1.0000
  H   H24       1.0  0.15056  0.77654  0.43054  1.0000
  H   H25       1.0  0.62639  0.08757  0.98803  1.0000
  H   H26       1.0  0.90847  0.36134  0.51939  1.0000
  H   H27       1.0  0.37364  0.91241  0.01197  1.0000
  H   H28       1.0  0.09139  0.63867  0.48063  1.0000
  H   H29       1.0  0.44380  0.48508  0.93082  1.0000
  H   H30       1.0  0.51845  0.55217  0.56623  1.0000
  H   H31       1.0  0.55624  0.51491  0.06917  1.0000
  H   H32       1.0  0.48153  0.44782  0.43376  1.0000
  H   H33       1.0  0.45009  0.68069  0.94455  1.0000
  H   H34       1.0  0.31444  0.55314  0.55716  1.0000
  H   H35       1.0  0.54993  0.31931  0.05543  1.0000
  H   H36       1.0  0.68552  0.44689  0.44283  1.0000
  H   H37       1.0  0.34233  0.51645  0.16078  1.0000
  H   H38       1.0  0.40269  0.73171  0.34012  1.0000
  H   H39       1.0  0.65772  0.48355  0.83921  1.0000
  H   H40       1.0  0.59732  0.26830  0.65989  1.0000
  H   H41       1.0  0.45095  0.91878  0.87334  1.0000
  H   H42       1.0  0.06415  0.56379  0.62866  1.0000
  H   H43       1.0  0.54907  0.08120  0.12666  1.0000
  H   H44       1.0  0.93580  0.43622  0.37135  1.0000
  H   H45       1.0  0.18934  0.71641  0.19741  1.0000
  H   H46       1.0  0.22080  0.69937  0.28347  1.0000
  H   H47       1.0  0.81062  0.28356  0.80257  1.0000
  H   H48       1.0  0.77923  0.30064  0.71654  1.0000
  H   H49       1.0  0.97437  0.02471  0.25718  1.0000
  H   H50       1.0  0.17397  0.87838  0.24664  1.0000
  H   H51       1.0  0.02564  0.97527  0.74280  1.0000
  H   H52       1.0  0.82614  0.12158  0.75335  1.0000
  C   C1        1.0  0.01166  0.63437  0.04291  1.0000
  C   C2        1.0  0.36527  0.98052  0.46031  1.0000
  C   C3        1.0  0.98839  0.36563  0.95709  1.0000
  C   C4        1.0  0.63468  0.01952  0.53970  1.0000
  C   C5        1.0  0.17307  0.58562  0.01061  1.0000
  C   C6        1.0  0.41249  0.82207  0.49164  1.0000
  C   C7        1.0  0.82699  0.41439  0.98938  1.0000
  C   C8        1.0  0.58748  0.17798  0.50837  1.0000
  C   C9        1.0  0.19414  0.68553  0.96031  1.0000
  C   C10       1.0  0.31358  0.80151  0.54318  1.0000
  C   C11       1.0  0.80588  0.31449  0.03969  1.0000
  C   C12       1.0  0.68640  0.19851  0.45682  1.0000
  C   C13       1.0  0.05014  0.83667  0.94259  1.0000
  C   C14       1.0  0.16267  0.94431  0.56283  1.0000
  C   C15       1.0  0.94991  0.16334  0.05740  1.0000
  C   C16       1.0  0.83730  0.05571  0.43718  1.0000
  C   C17       1.0  0.88616  0.88529  0.97328  1.0000
  C   C18       1.0  0.11469  0.10534  0.53276  1.0000
  C   C19       1.0  0.11389  0.11472  0.02672  1.0000
  C   C20       1.0  0.88527  0.89468  0.46725  1.0000
  C   C21       1.0  0.86826  0.78405  0.02366  1.0000
  C   C22       1.0  0.21608  0.12204  0.48144  1.0000
  C   C23       1.0  0.13179  0.21596  0.97634  1.0000
  C   C24       1.0  0.78386  0.87798  0.51858  1.0000
  C   C25       1.0  0.99370  0.52429  0.09683  1.0000
  C   C26       1.0  0.47628  0.99561  0.40529  1.0000
  C   C27       1.0  0.00635  0.47569  0.90316  1.0000
  C   C28       1.0  0.52367  0.00446  0.59471  1.0000
  C   C29       1.0  0.73229  0.04505  0.95193  1.0000
  C   C30       1.0  0.95536  0.25915  0.55583  1.0000
  C   C31       1.0  0.26775  0.95493  0.04806  1.0000
  C   C32       1.0  0.04458  0.74084  0.44419  1.0000
  C   C33       1.0  0.37066  0.62519  0.92599  1.0000
  C   C34       1.0  0.37693  0.62617  0.57551  1.0000
  C   C35       1.0  0.62937  0.37480  0.07400  1.0000
  C   C36       1.0  0.62305  0.37383  0.42449  1.0000
  O   O1        1.0  0.15412  0.66553  0.15603  1.0000
  O   O2        1.0  0.31112  0.85612  0.34566  1.0000
  O   O3        1.0  0.84587  0.33447  0.84397  1.0000
  O   O4        1.0  0.68889  0.14386  0.65435  1.0000
  O   O5        1.0  0.09291  0.43635  0.21722  1.0000
  O   O6        1.0  0.53505  0.92742  0.28002  1.0000
  O   O7        1.0  0.90710  0.56363  0.78278  1.0000
  O   O8        1.0  0.46497  0.07255  0.71999  1.0000
  O   O9        1.0  0.84252  0.73393  0.19655  1.0000
  O   O10       1.0  0.23981  0.16147  0.31516  1.0000
  O   O11       1.0  0.15746  0.26604  0.80345  1.0000
  O   O12       1.0  0.76018  0.83853  0.68485  1.0000
  O   O13       1.0  0.77479  0.94297  0.83095  1.0000
  O   O14       1.0  0.13808  0.22310  0.66073  1.0000
  O   O15       1.0  0.22525  0.05699  0.16905  1.0000
  O   O16       1.0  0.86191  0.77695  0.33928  1.0000
  O   O17       1.0  0.50665  0.21824  0.86418  1.0000
  O   O18       1.0  0.80819  0.42074  0.66239  1.0000
  O   O19       1.0  0.49337  0.78172  0.13581  1.0000
  O   O20       1.0  0.19179  0.57925  0.33765  1.0000
  O   O21       1.0  0.53221  0.92359  0.90365  1.0000
  O   O22       1.0  0.02345  0.50666  0.59811  1.0000
  O   O23       1.0  0.46781  0.07638  0.09635  1.0000
  O   O24       1.0  0.97648  0.49337  0.40190  1.0000
  O   O25       1.0  0.24889  0.61044  0.81270  1.0000
  O   O26       1.0  0.39307  0.74493  0.68863  1.0000
  O   O27       1.0  0.75111  0.38954  0.18728  1.0000
  O   O28       1.0  0.60689  0.25508  0.31137  1.0000
  O   O29       1.0  0.55796  0.57817  0.81577  1.0000
  O   O30       1.0  0.45016  0.43349  0.68367  1.0000
  O   O31       1.0  0.44205  0.42179  0.18421  1.0000
  O   O32       1.0  0.54984  0.56650  0.31633  1.0000
  O   O33       1.0  0.31348  0.86766  0.83157  1.0000
  O   O34       1.0  0.14185  0.66544  0.67047  1.0000
  O   O35       1.0  0.68657  0.13231  0.16842  1.0000
  O   O36       1.0  0.85815  0.33453  0.32953  1.0000
  O   O37       1.0  0.24706  0.75409  0.24335  1.0000
  O   O38       1.0  0.75299  0.24587  0.75665  1.0000
