data_image0
_chemical_formula_structural       Zn2P6H42C38N4O18
_chemical_formula_sum              "Zn2 P6 H42 C38 N4 O18"
_cell_length_a       9.76095
_cell_length_b       10.7871
_cell_length_c       12.6341
_cell_angle_alpha    105.01
_cell_angle_beta     102.025
_cell_angle_gamma    114.957

_space_group_name_H-M_alt    "P 1"
_space_group_IT_number       1

loop_
  _space_group_symop_operation_xyz
  'x, y, z'

loop_
  _atom_site_type_symbol
  _atom_site_label
  _atom_site_symmetry_multiplicity
  _atom_site_fract_x
  _atom_site_fract_y
  _atom_site_fract_z
  _atom_site_occupancy
  Zn  Zn1       1.0  0.33329  0.54379  0.87657  1.0000
  Zn  Zn2       1.0  0.66671  0.45620  0.12343  1.0000
  P   P1        1.0  0.67116  0.78160  0.51933  1.0000
  P   P2        1.0  0.32884  0.21840  0.48067  1.0000
  P   P3        1.0  0.28377  0.33146  0.03867  1.0000
  P   P4        1.0  0.71623  0.66855  0.96133  1.0000
  P   P5        1.0  0.95777  0.79370  0.30715  1.0000
  P   P6        1.0  0.04223  0.20630  0.69285  1.0000
  H   H1        1.0  0.35030  0.43031  0.33881  1.0000
  H   H2        1.0  0.64969  0.56969  0.66119  1.0000
  H   H3        1.0  0.02032  0.48154  0.09449  1.0000
  H   H4        1.0  0.97968  0.51846  0.90551  1.0000
  H   H5        1.0  0.30687  0.82083  0.44329  1.0000
  H   H6        1.0  0.69313  0.17917  0.55671  1.0000
  H   H7        1.0  0.45714  0.60483  0.55663  1.0000
  H   H8        1.0  0.54286  0.39517  0.44337  1.0000
  H   H9        1.0  0.46095  0.77679  0.58733  1.0000
  H   H10       1.0  0.53905  0.22321  0.41267  1.0000
  H   H11       1.0  0.01924  0.24182  0.04749  1.0000
  H   H12       1.0  0.98076  0.75818  0.95251  1.0000
  H   H13       1.0  0.14782  0.21909  0.15414  1.0000
  H   H14       1.0  0.85218  0.78091  0.84586  1.0000
  H   H15       1.0  0.01445  0.70343  0.14058  1.0000
  H   H16       1.0  0.98555  0.29657  0.85942  1.0000
  H   H17       1.0  0.18589  0.86332  0.25431  1.0000
  H   H18       1.0  0.81411  0.13668  0.74569  1.0000
  H   H19       1.0  0.48190  0.68883  0.15286  1.0000
  H   H20       1.0  0.51810  0.31117  0.84714  1.0000
  H   H21       1.0  0.53821  0.91718  0.31129  1.0000
  H   H22       1.0  0.46179  0.08282  0.68871  1.0000
  H   H23       1.0  0.44423  0.08459  0.25077  1.0000
  H   H24       1.0  0.55577  0.91541  0.74923  1.0000
  H   H25       1.0  0.30864  0.01898  0.04031  1.0000
  H   H26       1.0  0.69136  0.98102  0.95969  1.0000
  H   H27       1.0  0.19451  0.94767  0.86402  1.0000
  H   H28       1.0  0.80549  0.05233  0.13598  1.0000
  H   H29       1.0  0.08426  0.86448  0.64639  1.0000
  H   H30       1.0  0.91574  0.13552  0.35361  1.0000
  H   H31       1.0  0.08458  0.64321  0.52020  1.0000
  H   H32       1.0  0.91542  0.35679  0.47980  1.0000
  H   H33       1.0  0.18580  0.50728  0.61867  1.0000
  H   H34       1.0  0.81420  0.49272  0.38133  1.0000
  H   H35       1.0  0.72864  0.65940  0.37781  1.0000
  H   H36       1.0  0.27136  0.34060  0.62219  1.0000
  H   H37       1.0  0.89610  0.94041  0.68202  1.0000
  H   H38       1.0  0.10390  0.05958  0.31798  1.0000
  H   H39       1.0  0.16538  0.14323  0.86391  1.0000
  H   H40       1.0  0.83462  0.85677  0.13609  1.0000
  H   H41       1.0  0.15006  0.95966  0.48179  1.0000
  H   H42       1.0  0.84994  0.04033  0.51821  1.0000
  C   C1        1.0  0.29398  0.49398  0.31948  1.0000
  C   C2        1.0  0.70603  0.50602  0.68052  1.0000
  C   C3        1.0  0.17892  0.43895  0.20750  1.0000
  C   C4        1.0  0.82108  0.56105  0.79250  1.0000
  C   C5        1.0  0.10857  0.52232  0.18222  1.0000
  C   C6        1.0  0.89143  0.47768  0.81778  1.0000
  C   C7        1.0  0.15243  0.65914  0.26664  1.0000
  C   C8        1.0  0.84757  0.34086  0.73336  1.0000
  C   C9        1.0  0.26906  0.71263  0.37782  1.0000
  C   C10       1.0  0.73094  0.28737  0.62218  1.0000
  C   C11       1.0  0.33992  0.63050  0.40497  1.0000
  C   C12       1.0  0.66008  0.36950  0.59503  1.0000
  C   C13       1.0  0.46930  0.69209  0.52329  1.0000
  C   C14       1.0  0.53070  0.30791  0.47671  1.0000
  C   C15       1.0  0.14084  0.29703  0.11486  1.0000
  C   C16       1.0  0.85916  0.70297  0.88514  1.0000
  C   C17       1.0  0.08554  0.75240  0.23513  1.0000
  C   C18       1.0  0.91446  0.24760  0.76487  1.0000
  C   C19       1.0  0.44634  0.76544  0.13198  1.0000
  C   C20       1.0  0.55366  0.23456  0.86802  1.0000
  C   C21       1.0  0.47591  0.89268  0.21983  1.0000
  C   C22       1.0  0.52409  0.10732  0.78017  1.0000
  C   C23       1.0  0.42428  0.98373  0.18591  1.0000
  C   C24       1.0  0.57573  0.01627  0.81409  1.0000
  C   C25       1.0  0.34697  0.94707  0.06735  1.0000
  C   C26       1.0  0.65303  0.05293  0.93265  1.0000
  C   C27       1.0  0.32392  0.81844  0.98430  1.0000
  C   C28       1.0  0.67608  0.18156  0.01570  1.0000
  C   C29       1.0  0.24935  0.77198  0.85584  1.0000
  C   C30       1.0  0.75065  0.22802  0.14416  1.0000
  C   C31       1.0  0.18990  0.84999  0.80737  1.0000
  C   C32       1.0  0.81010  0.15001  0.19263  1.0000
  C   C33       1.0  0.12841  0.80361  0.68576  1.0000
  C   C34       1.0  0.87159  0.19639  0.31424  1.0000
  C   C35       1.0  0.12752  0.67999  0.61542  1.0000
  C   C36       1.0  0.87248  0.32001  0.38458  1.0000
  C   C37       1.0  0.18541  0.60544  0.66950  1.0000
  C   C38       1.0  0.81459  0.39456  0.33050  1.0000
  N   N1        1.0  0.37315  0.73042  0.01779  1.0000
  N   N2        1.0  0.62685  0.26958  0.98221  1.0000
  N   N3        1.0  0.24444  0.65005  0.78675  1.0000
  N   N4        1.0  0.75556  0.34995  0.21325  1.0000
  O   O1        1.0  0.69676  0.89875  0.46895  1.0000
  O   O2        1.0  0.30324  0.10125  0.53104  1.0000
  O   O3        1.0  0.68856  0.65027  0.44617  1.0000
  O   O4        1.0  0.31144  0.34973  0.55383  1.0000
  O   O5        1.0  0.78398  0.84467  0.65211  1.0000
  O   O6        1.0  0.21602  0.15533  0.34789  1.0000
  O   O7        1.0  0.26028  0.42381  0.97189  1.0000
  O   O8        1.0  0.73972  0.57619  0.02811  1.0000
  O   O9        1.0  0.23426  0.17159  0.94876  1.0000
  O   O10       1.0  0.76574  0.82841  0.05124  1.0000
  O   O11       1.0  0.45076  0.39821  0.13057  1.0000
  O   O12       1.0  0.54924  0.60179  0.86943  1.0000
  O   O13       1.0  0.79573  0.65399  0.27711  1.0000
  O   O14       1.0  0.20427  0.34601  0.72289  1.0000
  O   O15       1.0  0.04480  0.85535  0.44421  1.0000
  O   O16       1.0  0.95520  0.14465  0.55579  1.0000
  O   O17       1.0  0.94230  0.91313  0.26885  1.0000
  O   O18       1.0  0.05770  0.08687  0.73116  1.0000
