data_image0
_chemical_formula_structural       Zn4H44C44N12O20
_chemical_formula_sum              "Zn4 H44 C44 N12 O20"
_cell_length_a       7.33068
_cell_length_b       10.1906
_cell_length_c       16.8166
_cell_angle_alpha    89.9992
_cell_angle_beta     100.9
_cell_angle_gamma    90.0014

_space_group_name_H-M_alt    "P 1"
_space_group_IT_number       1

loop_
  _space_group_symop_operation_xyz
  'x, y, z'

loop_
  _atom_site_type_symbol
  _atom_site_label
  _atom_site_symmetry_multiplicity
  _atom_site_fract_x
  _atom_site_fract_y
  _atom_site_fract_z
  _atom_site_occupancy
  Zn  Zn1       1.0  0.62629  0.79351  0.59585  1.0000
  Zn  Zn2       1.0  0.37372  0.29352  0.90415  1.0000
  Zn  Zn3       1.0  0.37373  0.20648  0.40415  1.0000
  Zn  Zn4       1.0  0.62627  0.70648  0.09585  1.0000
  H   H1        1.0  0.28200  0.64834  0.48190  1.0000
  H   H2        1.0  0.71798  0.14837  0.01809  1.0000
  H   H3        1.0  0.71801  0.35164  0.51811  1.0000
  H   H4        1.0  0.28203  0.85162  0.98191  1.0000
  H   H5        1.0  0.64930  0.53895  0.32609  1.0000
  H   H6        1.0  0.35068  0.03892  0.17390  1.0000
  H   H7        1.0  0.35068  0.46107  0.67390  1.0000
  H   H8        1.0  0.64931  0.96106  0.82610  1.0000
  H   H9        1.0  0.16017  0.62389  0.82896  1.0000
  H   H10       1.0  0.83982  0.12390  0.67104  1.0000
  H   H11       1.0  0.83983  0.37610  0.17104  1.0000
  H   H12       1.0  0.16020  0.87609  0.32897  1.0000
  H   H13       1.0  0.49483  0.56724  0.85636  1.0000
  H   H14       1.0  0.50514  0.06725  0.64364  1.0000
  H   H15       1.0  0.50515  0.43273  0.14364  1.0000
  H   H16       1.0  0.49485  0.93276  0.35637  1.0000
  H   H17       1.0  0.69644  0.64798  0.75987  1.0000
  H   H18       1.0  0.30353  0.14800  0.74014  1.0000
  H   H19       1.0  0.30355  0.35199  0.24013  1.0000
  H   H20       1.0  0.69644  0.85201  0.25987  1.0000
  H   H21       1.0  0.31238  0.52887  0.35277  1.0000
  H   H22       1.0  0.68759  0.02887  0.14722  1.0000
  H   H23       1.0  0.68761  0.47113  0.64723  1.0000
  H   H24       1.0  0.31240  0.97110  0.85278  1.0000
  H   H25       1.0  0.96526  0.65806  0.52183  1.0000
  H   H26       1.0  0.03471  0.15803  0.97816  1.0000
  H   H27       1.0  0.03474  0.34197  0.47815  1.0000
  H   H28       1.0  0.96529  0.84197  0.02185  1.0000
  H   H29       1.0  0.91491  0.79361  0.45501  1.0000
  H   H30       1.0  0.08506  0.29358  0.04497  1.0000
  H   H31       1.0  0.08506  0.20641  0.54497  1.0000
  H   H32       1.0  0.91495  0.70641  0.95503  1.0000
  H   H33       1.0  0.96910  0.63971  0.41531  1.0000
  H   H34       1.0  0.03087  0.13967  0.08468  1.0000
  H   H35       1.0  0.03089  0.36032  0.58467  1.0000
  H   H36       1.0  0.96914  0.86033  0.91533  1.0000
  H   H37       1.0  0.70490  0.01026  0.51767  1.0000
  H   H38       1.0  0.29510  0.51026  0.98234  1.0000
  H   H39       1.0  0.29512  0.98974  0.48234  1.0000
  H   H40       1.0  0.70489  0.48974  0.01766  1.0000
  H   H41       1.0  0.88469  0.95787  0.58136  1.0000
  H   H42       1.0  0.11531  0.45788  0.91864  1.0000
  H   H43       1.0  0.11533  0.04213  0.41865  1.0000
  H   H44       1.0  0.88468  0.54213  0.08136  1.0000
  C   C1        1.0  0.40904  0.63760  0.45851  1.0000
  C   C2        1.0  0.59094  0.13760  0.04147  1.0000
  C   C3        1.0  0.59097  0.36240  0.54149  1.0000
  C   C4        1.0  0.40905  0.86239  0.95852  1.0000
  C   C5        1.0  0.60299  0.57910  0.37849  1.0000
  C   C6        1.0  0.39698  0.07909  0.12149  1.0000
  C   C7        1.0  0.39699  0.42091  0.62150  1.0000
  C   C8        1.0  0.60301  0.92090  0.87851  1.0000
  C   C9        1.0  0.97673  0.78249  0.71133  1.0000
  C   C10       1.0  0.02325  0.28251  0.78865  1.0000
  C   C11       1.0  0.02328  0.21751  0.28867  1.0000
  C   C12       1.0  0.97674  0.71750  0.21134  1.0000
  C   C13       1.0  0.17969  0.74510  0.72524  1.0000
  C   C14       1.0  0.82031  0.24511  0.77477  1.0000
  C   C15       1.0  0.82031  0.25489  0.27477  1.0000
  C   C16       1.0  0.17970  0.75490  0.22524  1.0000
  C   C17       1.0  0.25046  0.66178  0.78990  1.0000
  C   C18       1.0  0.74954  0.16180  0.71010  1.0000
  C   C19       1.0  0.74954  0.33820  0.21011  1.0000
  C   C20       1.0  0.25048  0.83821  0.28990  1.0000
  C   C21       1.0  0.43744  0.62789  0.80449  1.0000
  C   C22       1.0  0.56255  0.12791  0.69551  1.0000
  C   C23       1.0  0.56255  0.37209  0.19551  1.0000
  C   C24       1.0  0.43746  0.87210  0.30450  1.0000
  C   C25       1.0  0.54931  0.67235  0.75174  1.0000
  C   C26       1.0  0.45067  0.17237  0.74827  1.0000
  C   C27       1.0  0.45068  0.32763  0.24827  1.0000
  C   C28       1.0  0.54932  0.82764  0.25174  1.0000
  C   C29       1.0  0.30199  0.78842  0.67607  1.0000
  C   C30       1.0  0.69802  0.28843  0.82393  1.0000
  C   C31       1.0  0.69802  0.21158  0.32394  1.0000
  C   C32       1.0  0.30200  0.71158  0.17608  1.0000
  C   C33       1.0  0.24852  0.88750  0.60899  1.0000
  C   C34       1.0  0.75147  0.38752  0.89100  1.0000
  C   C35       1.0  0.75150  0.11249  0.39101  1.0000
  C   C36       1.0  0.24852  0.61250  0.10899  1.0000
  C   C37       1.0  0.69958  0.64880  0.44318  1.0000
  C   C38       1.0  0.30039  0.14877  0.05679  1.0000
  C   C39       1.0  0.30041  0.35122  0.55680  1.0000
  C   C40       1.0  0.69961  0.85122  0.94320  1.0000
  C   C41       1.0  0.89921  0.68666  0.46003  1.0000
  C   C42       1.0  0.10076  0.18663  0.03995  1.0000
  C   C43       1.0  0.10078  0.31337  0.53995  1.0000
  C   C44       1.0  0.89924  0.81337  0.96005  1.0000
  N   N1        1.0  0.57561  0.68399  0.49277  1.0000
  N   N2        1.0  0.42437  0.18400  0.00722  1.0000
  N   N3        1.0  0.42441  0.31600  0.50723  1.0000
  N   N4        1.0  0.57563  0.81601  0.99278  1.0000
  N   N5        1.0  0.48108  0.74848  0.68796  1.0000
  N   N6        1.0  0.51892  0.24850  0.81205  1.0000
  N   N7        1.0  0.51892  0.25151  0.31204  1.0000
  N   N8        1.0  0.48109  0.75152  0.18796  1.0000
  N   N9        1.0  0.42119  0.57303  0.38961  1.0000
  N   N10       1.0  0.57880  0.07303  0.11038  1.0000
  N   N11       1.0  0.57880  0.42697  0.61039  1.0000
  N   N12       1.0  0.42120  0.92695  0.88961  1.0000
  O   O1        1.0  0.87508  0.71775  0.65291  1.0000
  O   O2        1.0  0.12490  0.21778  0.84707  1.0000
  O   O3        1.0  0.12493  0.28225  0.34709  1.0000
  O   O4        1.0  0.87510  0.78225  0.15292  1.0000
  O   O5        1.0  0.92466  0.86384  0.75762  1.0000
  O   O6        1.0  0.07533  0.36386  0.74237  1.0000
  O   O7        1.0  0.07534  0.13616  0.24237  1.0000
  O   O8        1.0  0.92466  0.63615  0.25764  1.0000
  O   O9        1.0  0.10931  0.95889  0.60813  1.0000
  O   O10       1.0  0.89069  0.45892  0.89187  1.0000
  O   O11       1.0  0.89071  0.04110  0.39187  1.0000
  O   O12       1.0  0.10932  0.54110  0.10813  1.0000
  O   O13       1.0  0.36048  0.89580  0.55878  1.0000
  O   O14       1.0  0.63955  0.39582  0.94121  1.0000
  O   O15       1.0  0.63955  0.10420  0.44122  1.0000
  O   O16       1.0  0.36048  0.60420  0.05879  1.0000
  O   O17       1.0  0.74647  0.96179  0.57025  1.0000
  O   O18       1.0  0.25352  0.46180  0.92976  1.0000
  O   O19       1.0  0.25354  0.03820  0.42976  1.0000
  O   O20       1.0  0.74647  0.53820  0.07025  1.0000
