data_image0
_chemical_formula_structural       Cu6H44C32S4I6N4
_chemical_formula_sum              "Cu6 H44 C32 S4 I6 N4"
_cell_length_a       8.76924
_cell_length_b       9.77722
_cell_length_c       13.8263
_cell_angle_alpha    95.6792
_cell_angle_beta     90.0003
_cell_angle_gamma    90

_space_group_name_H-M_alt    "P 1"
_space_group_IT_number       1

loop_
  _space_group_symop_operation_xyz
  'x, y, z'

loop_
  _atom_site_type_symbol
  _atom_site_label
  _atom_site_symmetry_multiplicity
  _atom_site_fract_x
  _atom_site_fract_y
  _atom_site_fract_z
  _atom_site_occupancy
  Cu  Cu1       1.0  0.21778  0.56583  0.79628  1.0000
  Cu  Cu2       1.0  0.21779  0.93417  0.70372  1.0000
  Cu  Cu3       1.0  0.78222  0.43417  0.20372  1.0000
  Cu  Cu4       1.0  0.78221  0.06583  0.29628  1.0000
  Cu  Cu5       1.0  0.21823  0.25000  0.75000  1.0000
  Cu  Cu6       1.0  0.78176  0.75000  0.25000  1.0000
  H   H1        1.0  0.43888  0.84864  0.36504  1.0000
  H   H2        1.0  0.43889  0.65135  0.13496  1.0000
  H   H3        1.0  0.56112  0.15136  0.63496  1.0000
  H   H4        1.0  0.56112  0.34864  0.86504  1.0000
  H   H5        1.0  0.32936  0.06147  0.30713  1.0000
  H   H6        1.0  0.32936  0.43854  0.19287  1.0000
  H   H7        1.0  0.67064  0.93854  0.69287  1.0000
  H   H8        1.0  0.67064  0.56147  0.80713  1.0000
  H   H9        1.0  0.16440  0.21416  0.41846  1.0000
  H   H10       1.0  0.16439  0.28585  0.08155  1.0000
  H   H11       1.0  0.83561  0.78584  0.58155  1.0000
  H   H12       1.0  0.83560  0.71416  0.91846  1.0000
  H   H13       1.0  0.44490  0.78545  0.61919  1.0000
  H   H14       1.0  0.44490  0.71455  0.88081  1.0000
  H   H15       1.0  0.55510  0.21455  0.38081  1.0000
  H   H16       1.0  0.55511  0.28545  0.11919  1.0000
  H   H17       1.0  0.48054  0.70613  0.49928  1.0000
  H   H18       1.0  0.48054  0.79386  0.00072  1.0000
  H   H19       1.0  0.51947  0.29387  0.50072  1.0000
  H   H20       1.0  0.51947  0.20613  0.99928  1.0000
  H   H21       1.0  0.30186  0.68565  0.55735  1.0000
  H   H22       1.0  0.30186  0.81435  0.94265  1.0000
  H   H23       1.0  0.69815  0.31435  0.44265  1.0000
  H   H24       1.0  0.69815  0.18565  0.05735  1.0000
  H   H25       1.0  0.09765  0.38250  0.55315  1.0000
  H   H26       1.0  0.09765  0.11749  0.94685  1.0000
  H   H27       1.0  0.90235  0.61750  0.44685  1.0000
  H   H28       1.0  0.90235  0.88251  0.05315  1.0000
  H   H29       1.0  0.95051  0.27842  0.49266  1.0000
  H   H30       1.0  0.95052  0.22157  0.00734  1.0000
  H   H31       1.0  0.04948  0.72157  0.50734  1.0000
  H   H32       1.0  0.04948  0.77843  0.99266  1.0000
  H   H33       1.0  0.92882  0.43555  0.69820  1.0000
  H   H34       1.0  0.92882  0.06445  0.80180  1.0000
  H   H35       1.0  0.07118  0.56445  0.30180  1.0000
  H   H36       1.0  0.07118  0.93555  0.19820  1.0000
  H   H37       1.0  0.78308  0.32684  0.64353  1.0000
  H   H38       1.0  0.78309  0.17316  0.85647  1.0000
  H   H39       1.0  0.21691  0.67316  0.35647  1.0000
  H   H40       1.0  0.21692  0.82684  0.14353  1.0000
  H   H41       1.0  0.83406  0.48025  0.59269  1.0000
  H   H42       1.0  0.83406  0.01974  0.90731  1.0000
  H   H43       1.0  0.16594  0.51975  0.40731  1.0000
  H   H44       1.0  0.16594  0.98025  0.09269  1.0000
  C   C1        1.0  0.18424  0.08199  0.53489  1.0000
  C   C2        1.0  0.18424  0.41801  0.96512  1.0000
  C   C3        1.0  0.81576  0.91801  0.46512  1.0000
  C   C4        1.0  0.81576  0.58199  0.03489  1.0000
  C   C5        1.0  0.33458  0.88416  0.50656  1.0000
  C   C6        1.0  0.33458  0.61584  0.99343  1.0000
  C   C7        1.0  0.66543  0.11584  0.49344  1.0000
  C   C8        1.0  0.66542  0.38416  0.00656  1.0000
  C   C9        1.0  0.36591  0.91619  0.41238  1.0000
  C   C10       1.0  0.36591  0.58380  0.08762  1.0000
  C   C11       1.0  0.63409  0.08381  0.58762  1.0000
  C   C12       1.0  0.63409  0.41619  0.91238  1.0000
  C   C13       1.0  0.30494  0.03547  0.38047  1.0000
  C   C14       1.0  0.30494  0.46453  0.11954  1.0000
  C   C15       1.0  0.69506  0.96454  0.61954  1.0000
  C   C16       1.0  0.69506  0.53547  0.88046  1.0000
  C   C17       1.0  0.21346  0.12126  0.44252  1.0000
  C   C18       1.0  0.21346  0.37874  0.05748  1.0000
  C   C19       1.0  0.78655  0.87874  0.55748  1.0000
  C   C20       1.0  0.78654  0.62127  0.94252  1.0000
  C   C21       1.0  0.39449  0.75871  0.54692  1.0000
  C   C22       1.0  0.39449  0.74129  0.95307  1.0000
  C   C23       1.0  0.60551  0.24129  0.45308  1.0000
  C   C24       1.0  0.60551  0.25871  0.04692  1.0000
  C   C25       1.0  0.99794  0.31738  0.56367  1.0000
  C   C26       1.0  0.99794  0.18261  0.93633  1.0000
  C   C27       1.0  0.00206  0.68261  0.43633  1.0000
  C   C28       1.0  0.00206  0.81739  0.06367  1.0000
  C   C29       1.0  0.87912  0.39356  0.62867  1.0000
  C   C30       1.0  0.87913  0.10644  0.87133  1.0000
  C   C31       1.0  0.12087  0.60644  0.37133  1.0000
  C   C32       1.0  0.12087  0.89356  0.12867  1.0000
  S   S1        1.0  0.06317  0.16896  0.62238  1.0000
  S   S2        1.0  0.06317  0.33103  0.87761  1.0000
  S   S3        1.0  0.93683  0.83103  0.37761  1.0000
  S   S4        1.0  0.93683  0.66897  0.12239  1.0000
  I   I1        1.0  0.38882  0.43461  0.67391  1.0000
  I   I2        1.0  0.38883  0.06539  0.82608  1.0000
  I   I3        1.0  0.61117  0.56539  0.32608  1.0000
  I   I4        1.0  0.61117  0.93461  0.17392  1.0000
  I   I5        1.0  0.03644  0.75000  0.75000  1.0000
  I   I6        1.0  0.96356  0.24999  0.25000  1.0000
  N   N1        1.0  0.24447  0.96716  0.56665  1.0000
  N   N2        1.0  0.24447  0.53284  0.93335  1.0000
  N   N3        1.0  0.75553  0.03284  0.43335  1.0000
  N   N4        1.0  0.75553  0.46716  0.06665  1.0000
