data_image0
_chemical_formula_structural       Zn2H28C36N8Cl4O4
_chemical_formula_sum              "Zn2 H28 C36 N8 Cl4 O4"
_cell_length_a       7.84733
_cell_length_b       11.5916
_cell_length_c       11.6692
_cell_angle_alpha    75.9212
_cell_angle_beta     87.5768
_cell_angle_gamma    77.8758

_space_group_name_H-M_alt    "P 1"
_space_group_IT_number       1

loop_
  _space_group_symop_operation_xyz
  'x, y, z'

loop_
  _atom_site_type_symbol
  _atom_site_label
  _atom_site_symmetry_multiplicity
  _atom_site_fract_x
  _atom_site_fract_y
  _atom_site_fract_z
  _atom_site_occupancy
  Zn  Zn1       1.0  0.38811  0.53059  0.25511  1.0000
  Zn  Zn2       1.0  0.61189  0.46941  0.74489  1.0000
  H   H1        1.0  0.81337  0.63184  0.52352  1.0000
  H   H2        1.0  0.18663  0.36817  0.47648  1.0000
  H   H3        1.0  0.82762  0.95220  0.43458  1.0000
  H   H4        1.0  0.17238  0.04780  0.56542  1.0000
  H   H5        1.0  0.64543  0.56200  0.07524  1.0000
  H   H6        1.0  0.35458  0.43798  0.92477  1.0000
  H   H7        1.0  0.91003  0.65422  0.03024  1.0000
  H   H8        1.0  0.08997  0.34577  0.96976  1.0000
  H   H9        1.0  0.00949  0.75069  0.17965  1.0000
  H   H10       1.0  0.99050  0.24932  0.82034  1.0000
  H   H11       1.0  0.57591  0.65670  0.39635  1.0000
  H   H12       1.0  0.42408  0.34331  0.60365  1.0000
  H   H13       1.0  0.99554  0.56728  0.68865  1.0000
  H   H14       1.0  0.00445  0.43273  0.31134  1.0000
  H   H15       1.0  0.08662  0.61545  0.87069  1.0000
  H   H16       1.0  0.91337  0.38454  0.12931  1.0000
  H   H17       1.0  0.03492  0.83047  0.88577  1.0000
  H   H18       1.0  0.96507  0.16952  0.11423  1.0000
  H   H19       1.0  0.89025  0.99659  0.71907  1.0000
  H   H20       1.0  0.10975  0.00340  0.28094  1.0000
  H   H21       1.0  0.61902  0.99959  0.31480  1.0000
  H   H22       1.0  0.38098  0.00041  0.68521  1.0000
  H   H23       1.0  0.49008  0.13372  0.12465  1.0000
  H   H24       1.0  0.50993  0.86628  0.87536  1.0000
  H   H25       1.0  0.40263  0.35875  0.10767  1.0000
  H   H26       1.0  0.59738  0.64126  0.89233  1.0000
  H   H27       1.0  0.58024  0.32099  0.44709  1.0000
  H   H28       1.0  0.41976  0.67901  0.55292  1.0000
  C   C1        1.0  0.69365  0.60574  0.13644  1.0000
  C   C2        1.0  0.30635  0.39426  0.86356  1.0000
  C   C3        1.0  0.83950  0.65726  0.11198  1.0000
  C   C4        1.0  0.16049  0.34274  0.88802  1.0000
  C   C5        1.0  0.89494  0.71004  0.19492  1.0000
  C   C6        1.0  0.10505  0.28997  0.80508  1.0000
  C   C7        1.0  0.80403  0.70797  0.30092  1.0000
  C   C8        1.0  0.19596  0.29204  0.69908  1.0000
  C   C9        1.0  0.65681  0.65604  0.31838  1.0000
  C   C10       1.0  0.34318  0.34397  0.68161  1.0000
  C   C11       1.0  0.86329  0.76755  0.38719  1.0000
  C   C12       1.0  0.13670  0.23246  0.61280  1.0000
  C   C13       1.0  0.89406  0.75398  0.60153  1.0000
  C   C14       1.0  0.10594  0.24602  0.39847  1.0000
  C   C15       1.0  0.97313  0.66118  0.69648  1.0000
  C   C16       1.0  0.02688  0.33882  0.30351  1.0000
  C   C17       1.0  0.02261  0.68818  0.79843  1.0000
  C   C18       1.0  0.97739  0.31181  0.20157  1.0000
  C   C19       1.0  0.99297  0.80897  0.80693  1.0000
  C   C20       1.0  0.00703  0.19103  0.19306  1.0000
  C   C21       1.0  0.91289  0.90217  0.71425  1.0000
  C   C22       1.0  0.08711  0.09783  0.28575  1.0000
  C   C23       1.0  0.86232  0.87630  0.61093  1.0000
  C   C24       1.0  0.13769  0.12371  0.38907  1.0000
  C   C25       1.0  0.67572  0.07683  0.51699  1.0000
  C   C26       1.0  0.32428  0.92318  0.48301  1.0000
  C   C27       1.0  0.61103  0.15018  0.39625  1.0000
  C   C28       1.0  0.38897  0.84982  0.60375  1.0000
  C   C29       1.0  0.58650  0.09764  0.30365  1.0000
  C   C30       1.0  0.41351  0.90236  0.69635  1.0000
  C   C31       1.0  0.51268  0.17182  0.19778  1.0000
  C   C32       1.0  0.48733  0.82819  0.80222  1.0000
  C   C33       1.0  0.46375  0.29607  0.18723  1.0000
  C   C34       1.0  0.53626  0.70393  0.81277  1.0000
  C   C35       1.0  0.56057  0.27621  0.37794  1.0000
  C   C36       1.0  0.43944  0.72379  0.62207  1.0000
  N   N1        1.0  0.60368  0.60618  0.23737  1.0000
  N   N2        1.0  0.39631  0.39382  0.76263  1.0000
  N   N3        1.0  0.84079  0.71774  0.50335  1.0000
  N   N4        1.0  0.15921  0.28227  0.49664  1.0000
  N   N5        1.0  0.78426  0.96878  0.51528  1.0000
  N   N6        1.0  0.21574  0.03123  0.48472  1.0000
  N   N7        1.0  0.48713  0.34722  0.27596  1.0000
  N   N8        1.0  0.51287  0.65278  0.72405  1.0000
  Cl  Cl1       1.0  0.27413  0.59638  0.07175  1.0000
  Cl  Cl2       1.0  0.72586  0.40361  0.92825  1.0000
  Cl  Cl3       1.0  0.24530  0.55690  0.41982  1.0000
  Cl  Cl4       1.0  0.75469  0.44311  0.58018  1.0000
  O   O1        1.0  0.92772  0.85938  0.34957  1.0000
  O   O2        1.0  0.07227  0.14063  0.65042  1.0000
  O   O3        1.0  0.62472  0.11327  0.60654  1.0000
  O   O4        1.0  0.37528  0.88673  0.39347  1.0000
