data_image0
_chemical_formula_structural       Cd2H28C36S2N8O10
_chemical_formula_sum              "Cd2 H28 C36 S2 N8 O10"
_cell_length_a       10.5497
_cell_length_b       10.383
_cell_length_c       10.7828
_cell_angle_alpha    108.022
_cell_angle_beta     109.961
_cell_angle_gamma    103.723

_space_group_name_H-M_alt    "P 1"
_space_group_IT_number       1

loop_
  _space_group_symop_operation_xyz
  'x, y, z'

loop_
  _atom_site_type_symbol
  _atom_site_label
  _atom_site_symmetry_multiplicity
  _atom_site_fract_x
  _atom_site_fract_y
  _atom_site_fract_z
  _atom_site_occupancy
  Cd  Cd1       1.0  0.61012  0.74624  0.73067  1.0000
  Cd  Cd2       1.0  0.38988  0.25376  0.26933  1.0000
  H   H1        1.0  0.04236  0.31224  0.58284  1.0000
  H   H2        1.0  0.95765  0.68777  0.41716  1.0000
  H   H3        1.0  0.81996  0.36798  0.61624  1.0000
  H   H4        1.0  0.18005  0.63202  0.38376  1.0000
  H   H5        1.0  0.46127  0.95773  0.60437  1.0000
  H   H6        1.0  0.53873  0.04226  0.39563  1.0000
  H   H7        1.0  0.60209  0.25706  0.69995  1.0000
  H   H8        1.0  0.39790  0.74293  0.30005  1.0000
  H   H9        1.0  0.88892  0.09572  0.93348  1.0000
  H   H10       1.0  0.11108  0.90428  0.06652  1.0000
  H   H11       1.0  0.74313  0.46819  0.94918  1.0000
  H   H12       1.0  0.25686  0.53181  0.05082  1.0000
  H   H13       1.0  0.06071  0.28330  0.91010  1.0000
  H   H14       1.0  0.93928  0.71669  0.08989  1.0000
  H   H15       1.0  0.50050  0.58187  0.92246  1.0000
  H   H16       1.0  0.49951  0.41813  0.07754  1.0000
  H   H17       1.0  0.65306  0.66436  0.22193  1.0000
  H   H18       1.0  0.34695  0.33565  0.77808  1.0000
  H   H19       1.0  0.86261  0.97922  0.10727  1.0000
  H   H20       1.0  0.13740  0.02078  0.89273  1.0000
  H   H21       1.0  0.74806  0.84805  0.44073  1.0000
  H   H22       1.0  0.25194  0.15196  0.55927  1.0000
  H   H23       1.0  0.06397  0.02370  0.30405  1.0000
  H   H24       1.0  0.93603  0.97630  0.69595  1.0000
  H   H25       1.0  0.56971  0.61508  0.43060  1.0000
  H   H26       1.0  0.43029  0.38492  0.56940  1.0000
  H   H27       1.0  0.41396  0.58198  0.42259  1.0000
  H   H28       1.0  0.58604  0.41802  0.57741  1.0000
  C   C1        1.0  0.30086  0.56213  0.67127  1.0000
  C   C2        1.0  0.69914  0.43788  0.32874  1.0000
  C   C3        1.0  0.16157  0.54775  0.68023  1.0000
  C   C4        1.0  0.83843  0.45226  0.31978  1.0000
  C   C5        1.0  0.04310  0.42109  0.63256  1.0000
  C   C6        1.0  0.95691  0.57891  0.36745  1.0000
  C   C7        1.0  0.92539  0.45098  0.65078  1.0000
  C   C8        1.0  0.07461  0.54902  0.34922  1.0000
  C   C9        1.0  0.95676  0.60014  0.71487  1.0000
  C   C10       1.0  0.04324  0.39987  0.28513  1.0000
  C   C11       1.0  0.86096  0.67417  0.74650  1.0000
  C   C12       1.0  0.13904  0.32582  0.25350  1.0000
  C   C13       1.0  0.57086  0.03130  0.68759  1.0000
  C   C14       1.0  0.42914  0.96870  0.31241  1.0000
  C   C15       1.0  0.63864  0.17958  0.73546  1.0000
  C   C16       1.0  0.36136  0.82041  0.26454  1.0000
  C   C17       1.0  0.79141  0.09524  0.85437  1.0000
  C   C18       1.0  0.20859  0.90476  0.14563  1.0000
  C   C19       1.0  0.89064  0.36126  0.92160  1.0000
  C   C20       1.0  0.10936  0.63873  0.07840  1.0000
  C   C21       1.0  0.85519  0.48246  0.97015  1.0000
  C   C22       1.0  0.14480  0.51753  0.02985  1.0000
  C   C23       1.0  0.03480  0.37833  0.95093  1.0000
  C   C24       1.0  0.96520  0.62167  0.04907  1.0000
  C   C25       1.0  0.59730  0.67727  0.00571  1.0000
  C   C26       1.0  0.40270  0.32273  0.99430  1.0000
  C   C27       1.0  0.66837  0.71756  0.15275  1.0000
  C   C28       1.0  0.33164  0.28244  0.84726  1.0000
  C   C29       1.0  0.78290  0.88146  0.09408  1.0000
  C   C30       1.0  0.21710  0.11854  0.90592  1.0000
  C   C31       1.0  0.89383  0.92655  0.35565  1.0000
  C   C32       1.0  0.10617  0.07346  0.64435  1.0000
  C   C33       1.0  0.85825  0.91431  0.46631  1.0000
  C   C34       1.0  0.14176  0.08569  0.53369  1.0000
  C   C35       1.0  0.03544  0.01242  0.38924  1.0000
  C   C36       1.0  0.96456  0.98758  0.61076  1.0000
  S   S1        1.0  0.12941  0.70291  0.74977  1.0000
  S   S2        1.0  0.87059  0.29709  0.25023  1.0000
  N   N1        1.0  0.66688  0.98068  0.76224  1.0000
  N   N2        1.0  0.33312  0.01932  0.23776  1.0000
  N   N3        1.0  0.77887  0.21867  0.84106  1.0000
  N   N4        1.0  0.22113  0.78133  0.15894  1.0000
  N   N5        1.0  0.66949  0.77969  0.97078  1.0000
  N   N6        1.0  0.33052  0.22031  0.02923  1.0000
  N   N7        1.0  0.78634  0.84772  0.20807  1.0000
  N   N8        1.0  0.21366  0.15228  0.79193  1.0000
  O   O1        1.0  0.51122  0.66285  0.47059  1.0000
  O   O2        1.0  0.48877  0.33715  0.52941  1.0000
  O   O3        1.0  0.37568  0.68873  0.68888  1.0000
  O   O4        1.0  0.62432  0.31127  0.31112  1.0000
  O   O5        1.0  0.33602  0.45130  0.64950  1.0000
  O   O6        1.0  0.66399  0.54871  0.35050  1.0000
  O   O7        1.0  0.91064  0.81243  0.81471  1.0000
  O   O8        1.0  0.08936  0.18757  0.18529  1.0000
  O   O9        1.0  0.72635  0.59069  0.69905  1.0000
  O   O10       1.0  0.27365  0.40930  0.30094  1.0000
