data_image0
_chemical_formula_structural       Zn2H28C36S2N8O10
_chemical_formula_sum              "Zn2 H28 C36 S2 N8 O10"
_cell_length_a       10.2628
_cell_length_b       10.1018
_cell_length_c       10.5884
_cell_angle_alpha    109.194
_cell_angle_beta     108.898
_cell_angle_gamma    103.943

_space_group_name_H-M_alt    "P 1"
_space_group_IT_number       1

loop_
  _space_group_symop_operation_xyz
  'x, y, z'

loop_
  _atom_site_type_symbol
  _atom_site_label
  _atom_site_symmetry_multiplicity
  _atom_site_fract_x
  _atom_site_fract_y
  _atom_site_fract_z
  _atom_site_occupancy
  Zn  Zn1       1.0  0.09784  0.24601  0.23816  1.0000
  Zn  Zn2       1.0  0.90216  0.75399  0.76184  1.0000
  H   H1        1.0  0.29875  0.87215  0.11532  1.0000
  H   H2        1.0  0.70124  0.12785  0.88468  1.0000
  H   H3        1.0  0.51805  0.79802  0.07416  1.0000
  H   H4        1.0  0.48194  0.20198  0.92584  1.0000
  H   H5        1.0  0.94797  0.43419  0.09923  1.0000
  H   H6        1.0  0.05204  0.56581  0.90077  1.0000
  H   H7        1.0  0.09564  0.74315  0.19138  1.0000
  H   H8        1.0  0.90436  0.25685  0.80862  1.0000
  H   H9        1.0  0.38195  0.58437  0.43905  1.0000
  H   H10       1.0  0.61806  0.41563  0.56095  1.0000
  H   H11       1.0  0.56062  0.77408  0.40808  1.0000
  H   H12       1.0  0.43938  0.22592  0.59192  1.0000
  H   H13       1.0  0.76269  0.03186  0.54905  1.0000
  H   H14       1.0  0.23732  0.96814  0.45095  1.0000
  H   H15       1.0  0.97086  0.08912  0.41840  1.0000
  H   H16       1.0  0.02914  0.91088  0.58160  1.0000
  H   H17       1.0  0.12707  0.17494  0.72127  1.0000
  H   H18       1.0  0.87293  0.82506  0.27872  1.0000
  H   H19       1.0  0.36720  0.47609  0.59954  1.0000
  H   H20       1.0  0.63280  0.52391  0.40046  1.0000
  H   H21       1.0  0.56814  0.50883  0.79704  1.0000
  H   H22       1.0  0.43186  0.49117  0.20296  1.0000
  H   H23       1.0  0.76385  0.63110  0.05428  1.0000
  H   H24       1.0  0.23615  0.36890  0.94572  1.0000
  H   H25       1.0  0.07358  0.12867  0.94645  1.0000
  H   H26       1.0  0.92642  0.87133  0.05355  1.0000
  H   H27       1.0  0.91163  0.07141  0.92966  1.0000
  H   H28       1.0  0.08837  0.92859  0.07034  1.0000
  C   C1        1.0  0.36114  0.19655  0.25851  1.0000
  C   C2        1.0  0.63886  0.80345  0.74149  1.0000
  C   C3        1.0  0.45009  0.10959  0.21811  1.0000
  C   C4        1.0  0.54991  0.89041  0.78189  1.0000
  C   C5        1.0  0.40928  0.95342  0.14935  1.0000
  C   C6        1.0  0.59072  0.04658  0.85065  1.0000
  C   C7        1.0  0.52548  0.91363  0.12708  1.0000
  C   C8        1.0  0.47452  0.08637  0.87291  1.0000
  C   C9        1.0  0.65250  0.04006  0.17658  1.0000
  C   C10       1.0  0.34750  0.95994  0.82342  1.0000
  C   C11       1.0  0.79347  0.04580  0.16516  1.0000
  C   C12       1.0  0.20653  0.95420  0.83484  1.0000
  C   C13       1.0  0.05935  0.51216  0.18446  1.0000
  C   C14       1.0  0.94065  0.48783  0.81553  1.0000
  C   C15       1.0  0.13022  0.66484  0.23070  1.0000
  C   C16       1.0  0.86978  0.33516  0.76931  1.0000
  C   C17       1.0  0.28318  0.58218  0.35755  1.0000
  C   C18       1.0  0.71682  0.41782  0.64245  1.0000
  C   C19       1.0  0.38734  0.85584  0.42137  1.0000
  C   C20       1.0  0.61266  0.14416  0.57864  1.0000
  C   C21       1.0  0.53476  0.87327  0.44968  1.0000
  C   C22       1.0  0.46524  0.12674  0.55032  1.0000
  C   C23       1.0  0.64806  0.01770  0.52869  1.0000
  C   C24       1.0  0.35194  0.98230  0.47131  1.0000
  C   C25       1.0  0.07517  0.18328  0.50091  1.0000
  C   C26       1.0  0.92483  0.81672  0.49909  1.0000
  C   C27       1.0  0.14777  0.22550  0.65016  1.0000
  C   C28       1.0  0.85223  0.77450  0.34985  1.0000
  C   C29       1.0  0.27813  0.38207  0.58783  1.0000
  C   C30       1.0  0.72187  0.61793  0.41217  1.0000
  C   C31       1.0  0.38921  0.42965  0.85409  1.0000
  C   C32       1.0  0.61079  0.57035  0.14591  1.0000
  C   C33       1.0  0.53777  0.50390  0.88535  1.0000
  C   C34       1.0  0.46224  0.49610  0.11465  1.0000
  C   C35       1.0  0.64856  0.57379  0.03104  1.0000
  C   C36       1.0  0.35144  0.42621  0.96896  1.0000
  S   S1        1.0  0.63025  0.20689  0.25337  1.0000
  S   S2        1.0  0.36975  0.79311  0.74663  1.0000
  N   N1        1.0  0.15547  0.46250  0.26393  1.0000
  N   N2        1.0  0.84453  0.53750  0.73607  1.0000
  N   N3        1.0  0.27233  0.70768  0.34037  1.0000
  N   N4        1.0  0.72768  0.29232  0.65963  1.0000
  N   N5        1.0  0.15712  0.28098  0.46339  1.0000
  N   N6        1.0  0.84288  0.71902  0.53661  1.0000
  N   N7        1.0  0.27672  0.35229  0.70476  1.0000
  N   N8        1.0  0.72328  0.64771  0.29524  1.0000
  O   O1        1.0  0.00421  0.16485  0.98347  1.0000
  O   O2        1.0  0.99579  0.83515  0.01653  1.0000
  O   O3        1.0  0.21904  0.11864  0.20542  1.0000
  O   O4        1.0  0.78096  0.88137  0.79459  1.0000
  O   O5        1.0  0.42406  0.33814  0.33919  1.0000
  O   O6        1.0  0.57594  0.66187  0.66081  1.0000
  O   O7        1.0  0.81725  0.92475  0.12943  1.0000
  O   O8        1.0  0.18275  0.07525  0.87057  1.0000
  O   O9        1.0  0.88177  0.17816  0.19601  1.0000
  O   O10       1.0  0.11823  0.82183  0.80399  1.0000
