data_image0
_chemical_formula_structural       Sn4H36C16Br4O8
_chemical_formula_sum              "Sn4 H36 C16 Br4 O8"
_cell_length_a       7.71551
_cell_length_b       9.44603
_cell_length_c       10.7695
_cell_angle_alpha    90.0062
_cell_angle_beta     89.9996
_cell_angle_gamma    89.9974

_space_group_name_H-M_alt    "P 1"
_space_group_IT_number       1

loop_
  _space_group_symop_operation_xyz
  'x, y, z'

loop_
  _atom_site_type_symbol
  _atom_site_label
  _atom_site_symmetry_multiplicity
  _atom_site_fract_x
  _atom_site_fract_y
  _atom_site_fract_z
  _atom_site_occupancy
  Sn  Sn1       1.0  0.24999  0.07773  0.18012  1.0000
  Sn  Sn2       1.0  0.75006  0.92243  0.81992  1.0000
  Sn  Sn3       1.0  0.25001  0.57770  0.31988  1.0000
  Sn  Sn4       1.0  0.74997  0.42241  0.68010  1.0000
  H   H1        1.0  0.91788  0.99596  0.16164  1.0000
  H   H2        1.0  0.41775  0.00403  0.83834  1.0000
  H   H3        1.0  0.58214  0.49596  0.33837  1.0000
  H   H4        1.0  0.08221  0.50396  0.66170  1.0000
  H   H5        1.0  0.08230  0.00401  0.83832  1.0000
  H   H6        1.0  0.58213  0.99598  0.16163  1.0000
  H   H7        1.0  0.41777  0.50398  0.66166  1.0000
  H   H8        1.0  0.91781  0.49602  0.33832  1.0000
  H   H9        1.0  0.93509  0.13493  0.27597  1.0000
  H   H10       1.0  0.43532  0.86498  0.72409  1.0000
  H   H11       1.0  0.56488  0.63489  0.22406  1.0000
  H   H12       1.0  0.06473  0.36500  0.77595  1.0000
  H   H13       1.0  0.06476  0.86501  0.72406  1.0000
  H   H14       1.0  0.56488  0.13493  0.27596  1.0000
  H   H15       1.0  0.43521  0.36501  0.77593  1.0000
  H   H16       1.0  0.93516  0.63496  0.22402  1.0000
  H   H17       1.0  0.00117  0.95720  0.31403  1.0000
  H   H18       1.0  0.50108  0.04275  0.68597  1.0000
  H   H19       1.0  0.49886  0.45721  0.18601  1.0000
  H   H20       1.0  0.99890  0.54270  0.81402  1.0000
  H   H21       1.0  0.99894  0.04276  0.68598  1.0000
  H   H22       1.0  0.49886  0.95722  0.31401  1.0000
  H   H23       1.0  0.50103  0.54272  0.81401  1.0000
  H   H24       1.0  0.00119  0.45726  0.18598  1.0000
  H   H25       1.0  0.24996  0.20908  0.61453  1.0000
  H   H26       1.0  0.75004  0.79100  0.38541  1.0000
  H   H27       1.0  0.25000  0.70906  0.88540  1.0000
  H   H28       1.0  0.75000  0.29108  0.11462  1.0000
  H   H29       1.0  0.36472  0.10792  0.50053  1.0000
  H   H30       1.0  0.86482  0.89206  0.49947  1.0000
  H   H31       1.0  0.13524  0.60790  0.99938  1.0000
  H   H32       1.0  0.63520  0.39213  0.00056  1.0000
  H   H33       1.0  0.63530  0.89213  0.49945  1.0000
  H   H34       1.0  0.13518  0.10793  0.50051  1.0000
  H   H35       1.0  0.86473  0.39216  0.00057  1.0000
  H   H36       1.0  0.36478  0.60788  0.99937  1.0000
  C   C1        1.0  0.99207  0.03686  0.24046  1.0000
  C   C2        1.0  0.49211  0.96312  0.75959  1.0000
  C   C3        1.0  0.50791  0.53684  0.25957  1.0000
  C   C4        1.0  0.00795  0.46311  0.74047  1.0000
  C   C5        1.0  0.00799  0.96315  0.75956  1.0000
  C   C6        1.0  0.50788  0.03688  0.24043  1.0000
  C   C7        1.0  0.49201  0.46312  0.74048  1.0000
  C   C8        1.0  0.99205  0.53687  0.25951  1.0000
  C   C9        1.0  0.25003  0.29709  0.43020  1.0000
  C   C10       1.0  0.75002  0.70293  0.56980  1.0000
  C   C11       1.0  0.25000  0.79705  0.06980  1.0000
  C   C12       1.0  0.74998  0.20292  0.93026  1.0000
  C   C13       1.0  0.24997  0.17371  0.51784  1.0000
  C   C14       1.0  0.75004  0.82630  0.48214  1.0000
  C   C15       1.0  0.25001  0.67368  0.98210  1.0000
  C   C16       1.0  0.74999  0.32637  0.01788  1.0000
  Br  Br1       1.0  0.24996  0.26646  0.00874  1.0000
  Br  Br2       1.0  0.75000  0.73355  0.99115  1.0000
  Br  Br3       1.0  0.25006  0.76643  0.49128  1.0000
  Br  Br4       1.0  0.74992  0.23360  0.50881  1.0000
  O   O1        1.0  0.24999  0.27937  0.31292  1.0000
  O   O2        1.0  0.74998  0.72065  0.68703  1.0000
  O   O3        1.0  0.25001  0.77930  0.18702  1.0000
  O   O4        1.0  0.75002  0.22062  0.81301  1.0000
  O   O5        1.0  0.24997  0.42271  0.47598  1.0000
  O   O6        1.0  0.74998  0.57727  0.52398  1.0000
  O   O7        1.0  0.25003  0.92269  0.02402  1.0000
  O   O8        1.0  0.75002  0.07732  0.97608  1.0000
