data_image0
_chemical_formula_structural       Zn2H28C24O8
_chemical_formula_sum              "Zn2 H28 C24 O8"
_cell_length_a       6.75201
_cell_length_b       7.8866
_cell_length_c       10.7471
_cell_angle_alpha    68.4844
_cell_angle_beta     89.5998
_cell_angle_gamma    88.8498

_space_group_name_H-M_alt    "P 1"
_space_group_IT_number       1

loop_
  _space_group_symop_operation_xyz
  'x, y, z'

loop_
  _atom_site_type_symbol
  _atom_site_label
  _atom_site_symmetry_multiplicity
  _atom_site_fract_x
  _atom_site_fract_y
  _atom_site_fract_z
  _atom_site_occupancy
  Zn  Zn1       1.0  0.01076  0.03957  0.92559  1.0000
  Zn  Zn2       1.0  0.51067  0.96485  0.07450  1.0000
  H   H1        1.0  0.15849  0.50606  0.10729  1.0000
  H   H2        1.0  0.65819  0.61296  0.89271  1.0000
  H   H3        1.0  0.94038  0.42850  0.05653  1.0000
  H   H4        1.0  0.44012  0.48476  0.94354  1.0000
  H   H5        1.0  0.62068  0.46280  0.33443  1.0000
  H   H6        1.0  0.12028  0.79724  0.66556  1.0000
  H   H7        1.0  0.62224  0.40254  0.19068  1.0000
  H   H8        1.0  0.12176  0.59318  0.80919  1.0000
  H   H9        1.0  0.63235  0.12486  0.39711  1.0000
  H   H10       1.0  0.13171  0.52220  0.60267  1.0000
  H   H11       1.0  0.80593  0.11679  0.19469  1.0000
  H   H12       1.0  0.30525  0.31135  0.80496  1.0000
  H   H13       1.0  0.93147  0.97457  0.34161  1.0000
  H   H14       1.0  0.43076  0.31620  0.65804  1.0000
  H   H15       1.0  0.24634  0.08686  0.41403  1.0000
  H   H16       1.0  0.74570  0.50053  0.58599  1.0000
  H   H17       1.0  0.33821  0.30426  0.31796  1.0000
  H   H18       1.0  0.83774  0.62163  0.68225  1.0000
  H   H19       1.0  0.15575  0.59064  0.31388  1.0000
  H   H20       1.0  0.65548  0.90396  0.68646  1.0000
  H   H21       1.0  0.93359  0.57466  0.40635  1.0000
  H   H22       1.0  0.43338  0.98077  0.59383  1.0000
  H   H23       1.0  0.93063  0.05986  0.54845  1.0000
  H   H24       1.0  0.43016  0.60820  0.45151  1.0000
  H   H25       1.0  0.80090  0.25652  0.54781  1.0000
  H   H26       1.0  0.30053  0.80428  0.45214  1.0000
  H   H27       1.0  0.16423  0.30975  0.52189  1.0000
  H   H28       1.0  0.66393  0.83132  0.47832  1.0000
  C   C1        1.0  0.08239  0.22799  0.23113  1.0000
  C   C2        1.0  0.58181  0.45876  0.76881  1.0000
  C   C3        1.0  0.02425  0.42634  0.14423  1.0000
  C   C4        1.0  0.52386  0.57020  0.85580  1.0000
  C   C5        1.0  0.89912  0.51241  0.22650  1.0000
  C   C6        1.0  0.39868  0.73858  0.77358  1.0000
  C   C7        1.0  0.71117  0.39982  0.27698  1.0000
  C   C8        1.0  0.21071  0.67669  0.72296  1.0000
  C   C9        1.0  0.76843  0.20292  0.36389  1.0000
  C   C10       1.0  0.26790  0.56679  0.63594  1.0000
  C   C11       1.0  0.89144  0.11716  0.28106  1.0000
  C   C12       1.0  0.39076  0.39809  0.71868  1.0000
  C   C13       1.0  0.20182  0.22721  0.35240  1.0000
  C   C14       1.0  0.70131  0.57919  0.64768  1.0000
  C   C15       1.0  0.02135  0.50984  0.34878  1.0000
  C   C16       1.0  0.52104  0.85825  0.65141  1.0000
  C   C17       1.0  0.88908  0.20072  0.48477  1.0000
  C   C18       1.0  0.38868  0.68541  0.51518  1.0000
  C   C19       1.0  0.07697  0.31192  0.43535  1.0000
  C   C20       1.0  0.57660  0.74694  0.56480  1.0000
  C   C21       1.0  0.19422  0.13942  0.14690  1.0000
  C   C22       1.0  0.69374  0.28600  0.85300  1.0000
  C   C23       1.0  0.84335  0.71023  0.14480  1.0000
  C   C24       1.0  0.34319  0.85478  0.85534  1.0000
  O   O1        1.0  0.13350  0.17313  0.02792  1.0000
  O   O2        1.0  0.63320  0.20060  0.97194  1.0000
  O   O3        1.0  0.34241  0.03395  0.19849  1.0000
  O   O4        1.0  0.84221  0.23237  0.80146  1.0000
  O   O5        1.0  0.94491  0.79095  0.03970  1.0000
  O   O6        1.0  0.44486  0.83018  0.96044  1.0000
  O   O7        1.0  0.70207  0.78246  0.18852  1.0000
  O   O8        1.0  0.20214  0.97104  0.81160  1.0000
