data_image0
_chemical_formula_structural       Hg2H24C12Br4N8
_chemical_formula_sum              "Hg2 H24 C12 Br4 N8"
_cell_length_a       6.62933
_cell_length_b       6.77711
_cell_length_c       12.2141
_cell_angle_alpha    94.0363
_cell_angle_beta     90.0014
_cell_angle_gamma    89.9987

_space_group_name_H-M_alt    "P 1"
_space_group_IT_number       1

loop_
  _space_group_symop_operation_xyz
  'x, y, z'

loop_
  _atom_site_type_symbol
  _atom_site_label
  _atom_site_symmetry_multiplicity
  _atom_site_fract_x
  _atom_site_fract_y
  _atom_site_fract_z
  _atom_site_occupancy
  Hg  Hg1       1.0  0.75000  0.89395  0.80259  1.0000
  Hg  Hg2       1.0  0.24999  0.10602  0.19742  1.0000
  H   H1        1.0  0.06932  0.52927  0.87795  1.0000
  H   H2        1.0  0.56928  0.47073  0.12206  1.0000
  H   H3        1.0  0.93067  0.47073  0.12204  1.0000
  H   H4        1.0  0.43068  0.52927  0.87795  1.0000
  H   H5        1.0  0.93540  0.41985  0.76138  1.0000
  H   H6        1.0  0.43538  0.58012  0.23862  1.0000
  H   H7        1.0  0.06459  0.58013  0.23860  1.0000
  H   H8        1.0  0.56462  0.41986  0.76139  1.0000
  H   H9        1.0  0.25000  0.83434  0.86470  1.0000
  H   H10       1.0  0.74999  0.16565  0.13530  1.0000
  H   H11       1.0  0.24999  0.95476  0.73956  1.0000
  H   H12       1.0  0.75001  0.04521  0.26044  1.0000
  H   H13       1.0  0.93454  0.58245  0.59071  1.0000
  H   H14       1.0  0.43455  0.41751  0.40928  1.0000
  H   H15       1.0  0.06545  0.41755  0.40927  1.0000
  H   H16       1.0  0.56546  0.58246  0.59071  1.0000
  H   H17       1.0  0.06904  0.81000  0.58226  1.0000
  H   H18       1.0  0.56908  0.18998  0.41774  1.0000
  H   H19       1.0  0.93098  0.19001  0.41773  1.0000
  H   H20       1.0  0.43094  0.81000  0.58226  1.0000
  H   H21       1.0  0.38519  0.27908  0.60572  1.0000
  H   H22       1.0  0.88520  0.72091  0.39428  1.0000
  H   H23       1.0  0.61480  0.72092  0.39428  1.0000
  H   H24       1.0  0.11482  0.27908  0.60571  1.0000
  C   C1        1.0  0.07054  0.50372  0.78813  1.0000
  C   C2        1.0  0.57052  0.49626  0.21187  1.0000
  C   C3        1.0  0.92945  0.49626  0.21186  1.0000
  C   C4        1.0  0.42947  0.50372  0.78814  1.0000
  C   C5        1.0  0.25000  0.80993  0.77486  1.0000
  C   C6        1.0  0.74999  0.19005  0.22513  1.0000
  C   C7        1.0  0.07032  0.66540  0.61773  1.0000
  C   C8        1.0  0.57034  0.33458  0.38226  1.0000
  C   C9        1.0  0.92968  0.33459  0.38225  1.0000
  C   C10       1.0  0.42968  0.66540  0.61774  1.0000
  C   C11       1.0  0.25000  0.36311  0.63207  1.0000
  C   C12       1.0  0.75000  0.63689  0.36793  1.0000
  Br  Br1       1.0  0.75001  0.10241  0.63664  1.0000
  Br  Br2       1.0  0.25006  0.89762  0.36338  1.0000
  Br  Br3       1.0  0.75000  0.80510  0.99871  1.0000
  Br  Br4       1.0  0.24997  0.19515  0.00134  1.0000
  N   N1        1.0  0.25001  0.39037  0.75294  1.0000
  N   N2        1.0  0.74998  0.60963  0.24706  1.0000
  N   N3        1.0  0.06591  0.69926  0.73935  1.0000
  N   N4        1.0  0.56592  0.30072  0.26065  1.0000
  N   N5        1.0  0.93408  0.30073  0.26064  1.0000
  N   N6        1.0  0.43409  0.69926  0.73935  1.0000
  N   N7        1.0  0.24999  0.55395  0.58052  1.0000
  N   N8        1.0  0.75000  0.44604  0.41947  1.0000
