data_image0
_chemical_formula_structural       Tl4H16C28N4O16
_chemical_formula_sum              "Tl4 H16 C28 N4 O16"
_cell_length_a       5.86611
_cell_length_b       6.98396
_cell_length_c       18.4904
_cell_angle_alpha    89.9991
_cell_angle_beta     90.0012
_cell_angle_gamma    94.8444

_space_group_name_H-M_alt    "P 1"
_space_group_IT_number       1

loop_
  _space_group_symop_operation_xyz
  'x, y, z'

loop_
  _atom_site_type_symbol
  _atom_site_label
  _atom_site_symmetry_multiplicity
  _atom_site_fract_x
  _atom_site_fract_y
  _atom_site_fract_z
  _atom_site_occupancy
  Tl  Tl1       1.0  0.58853  0.96293  0.87839  1.0000
  Tl  Tl2       1.0  0.41148  0.53706  0.37838  1.0000
  Tl  Tl3       1.0  0.41147  0.03707  0.12161  1.0000
  Tl  Tl4       1.0  0.58854  0.46294  0.62161  1.0000
  H   H1        1.0  0.41072  0.42169  0.76787  1.0000
  H   H2        1.0  0.58927  0.07826  0.26788  1.0000
  H   H3        1.0  0.58930  0.57831  0.23212  1.0000
  H   H4        1.0  0.41071  0.92174  0.73212  1.0000
  H   H5        1.0  0.60448  0.48526  0.88625  1.0000
  H   H6        1.0  0.39550  0.01473  0.38625  1.0000
  H   H7        1.0  0.39553  0.51475  0.11376  1.0000
  H   H8        1.0  0.60449  0.98525  0.61376  1.0000
  H   H9        1.0  0.38381  0.38460  0.00010  1.0000
  H   H10       1.0  0.61615  0.11544  0.50010  1.0000
  H   H11       1.0  0.61618  0.61541  0.99990  1.0000
  H   H12       1.0  0.38385  0.88456  0.49990  1.0000
  H   H13       1.0  0.03839  0.26342  0.63777  1.0000
  H   H14       1.0  0.96159  0.23657  0.13777  1.0000
  H   H15       1.0  0.96162  0.73659  0.36223  1.0000
  H   H16       1.0  0.03840  0.76342  0.86223  1.0000
  C   C1        1.0  0.32255  0.38170  0.81788  1.0000
  C   C2        1.0  0.67743  0.11828  0.31789  1.0000
  C   C3        1.0  0.67745  0.61829  0.18212  1.0000
  C   C4        1.0  0.32256  0.88173  0.68212  1.0000
  C   C5        1.0  0.42978  0.41815  0.88424  1.0000
  C   C6        1.0  0.57020  0.08185  0.38424  1.0000
  C   C7        1.0  0.57021  0.58185  0.11576  1.0000
  C   C8        1.0  0.42981  0.91815  0.61577  1.0000
  C   C9        1.0  0.10075  0.28997  0.81678  1.0000
  C   C10       1.0  0.89923  0.21002  0.31679  1.0000
  C   C11       1.0  0.89926  0.71003  0.18322  1.0000
  C   C12       1.0  0.10076  0.78998  0.68321  1.0000
  C   C13       1.0  0.08567  0.27809  0.94127  1.0000
  C   C14       1.0  0.91431  0.22192  0.44127  1.0000
  C   C15       1.0  0.91435  0.72190  0.05873  1.0000
  C   C16       1.0  0.08569  0.77809  0.55873  1.0000
  C   C17       1.0  0.95225  0.22600  0.00994  1.0000
  C   C18       1.0  0.04775  0.27400  0.50994  1.0000
  C   C19       1.0  0.04775  0.77399  0.99006  1.0000
  C   C20       1.0  0.95226  0.72600  0.49006  1.0000
  C   C21       1.0  0.98332  0.24207  0.74574  1.0000
  C   C22       1.0  0.01665  0.25793  0.24574  1.0000
  C   C23       1.0  0.01669  0.75793  0.25425  1.0000
  C   C24       1.0  0.98334  0.74207  0.75427  1.0000
  C   C25       1.0  0.30937  0.36406  0.94677  1.0000
  C   C26       1.0  0.69062  0.13597  0.44677  1.0000
  C   C27       1.0  0.69062  0.63595  0.05323  1.0000
  C   C28       1.0  0.30939  0.86403  0.55323  1.0000
  N   N1        1.0  0.98416  0.23979  0.87738  1.0000
  N   N2        1.0  0.01581  0.26021  0.37737  1.0000
  N   N3        1.0  0.01585  0.76020  0.12262  1.0000
  N   N4        1.0  0.98418  0.73980  0.62262  1.0000
  O   O1        1.0  0.11168  0.30012  0.68983  1.0000
  O   O2        1.0  0.88829  0.19987  0.18983  1.0000
  O   O3        1.0  0.88832  0.69990  0.31017  1.0000
  O   O4        1.0  0.11168  0.80011  0.81016  1.0000
  O   O5        1.0  0.75422  0.14252  0.00590  1.0000
  O   O6        1.0  0.24577  0.35748  0.50590  1.0000
  O   O7        1.0  0.24578  0.85747  0.99410  1.0000
  O   O8        1.0  0.75424  0.64254  0.49410  1.0000
  O   O9        1.0  0.78985  0.15739  0.74131  1.0000
  O   O10       1.0  0.21011  0.34264  0.24131  1.0000
  O   O11       1.0  0.21016  0.84262  0.25869  1.0000
  O   O12       1.0  0.78988  0.65738  0.75869  1.0000
  O   O13       1.0  0.05883  0.27572  0.06880  1.0000
  O   O14       1.0  0.94117  0.22426  0.56880  1.0000
  O   O15       1.0  0.94116  0.72427  0.93120  1.0000
  O   O16       1.0  0.05885  0.77572  0.43120  1.0000
