data_image0
_chemical_formula_structural       Zn2H40C40S4N4O8
_chemical_formula_sum              "Zn2 H40 C40 S4 N4 O8"
_cell_length_a       9.23491
_cell_length_b       9.23495
_cell_length_c       15.4156
_cell_angle_alpha    97.5414
_cell_angle_beta     97.541
_cell_angle_gamma    106.299

_space_group_name_H-M_alt    "P 1"
_space_group_IT_number       1

loop_
  _space_group_symop_operation_xyz
  'x, y, z'

loop_
  _atom_site_type_symbol
  _atom_site_label
  _atom_site_symmetry_multiplicity
  _atom_site_fract_x
  _atom_site_fract_y
  _atom_site_fract_z
  _atom_site_occupancy
  Zn  Zn1       1.0  0.67288  0.32712  0.75000  1.0000
  Zn  Zn2       1.0  0.32712  0.67288  0.25000  1.0000
  H   H1        1.0  0.32972  0.57341  0.81985  1.0000
  H   H2        1.0  0.42659  0.67027  0.68015  1.0000
  H   H3        1.0  0.67028  0.42660  0.18015  1.0000
  H   H4        1.0  0.57341  0.32972  0.31985  1.0000
  H   H5        1.0  0.38220  0.62769  0.93732  1.0000
  H   H6        1.0  0.37232  0.61778  0.56267  1.0000
  H   H7        1.0  0.61779  0.37233  0.06267  1.0000
  H   H8        1.0  0.62768  0.38221  0.43733  1.0000
  H   H9        1.0  0.28543  0.43159  0.88724  1.0000
  H   H10       1.0  0.56842  0.71456  0.61276  1.0000
  H   H11       1.0  0.71457  0.56842  0.11276  1.0000
  H   H12       1.0  0.43158  0.28543  0.38724  1.0000
  H   H13       1.0  0.05407  0.67839  0.93620  1.0000
  H   H14       1.0  0.32161  0.94593  0.56380  1.0000
  H   H15       1.0  0.94593  0.32161  0.06380  1.0000
  H   H16       1.0  0.67840  0.05408  0.43619  1.0000
  H   H17       1.0  0.96185  0.72914  0.02568  1.0000
  H   H18       1.0  0.27086  0.03815  0.47432  1.0000
  H   H19       1.0  0.03816  0.27087  0.97432  1.0000
  H   H20       1.0  0.72915  0.96185  0.52567  1.0000
  H   H21       1.0  0.96503  0.82726  0.93486  1.0000
  H   H22       1.0  0.17274  0.03497  0.56515  1.0000
  H   H23       1.0  0.03498  0.17274  0.06514  1.0000
  H   H24       1.0  0.82727  0.96502  0.43485  1.0000
  H   H25       1.0  0.67790  0.77672  0.79599  1.0000
  H   H26       1.0  0.22328  0.32210  0.70401  1.0000
  H   H27       1.0  0.32209  0.22328  0.20401  1.0000
  H   H28       1.0  0.77672  0.67790  0.29599  1.0000
  H   H29       1.0  0.68268  0.99170  0.71225  1.0000
  H   H30       1.0  0.00831  0.31732  0.78775  1.0000
  H   H31       1.0  0.31731  0.00831  0.28775  1.0000
  H   H32       1.0  0.99169  0.68268  0.21225  1.0000
  H   H33       1.0  0.67200  0.28387  0.93701  1.0000
  H   H34       1.0  0.71613  0.32799  0.56300  1.0000
  H   H35       1.0  0.32801  0.71613  0.06300  1.0000
  H   H36       1.0  0.28387  0.67201  0.43700  1.0000
  H   H37       1.0  0.66579  0.08328  0.03133  1.0000
  H   H38       1.0  0.91672  0.33421  0.46867  1.0000
  H   H39       1.0  0.33421  0.91672  0.96868  1.0000
  H   H40       1.0  0.08328  0.66580  0.53133  1.0000
  C   C1        1.0  0.37134  0.53745  0.88121  1.0000
  C   C2        1.0  0.46256  0.62865  0.61878  1.0000
  C   C3        1.0  0.62866  0.46256  0.11879  1.0000
  C   C4        1.0  0.53744  0.37134  0.38122  1.0000
  C   C5        1.0  0.52003  0.50293  0.87167  1.0000
  C   C6        1.0  0.49707  0.47996  0.62833  1.0000
  C   C7        1.0  0.47997  0.49708  0.12833  1.0000
  C   C8        1.0  0.50293  0.52003  0.37166  1.0000
  C   C9        1.0  0.66460  0.60986  0.91539  1.0000
  C   C10       1.0  0.39013  0.33538  0.58461  1.0000
  C   C11       1.0  0.33540  0.39014  0.08462  1.0000
  C   C12       1.0  0.60986  0.66461  0.41539  1.0000
  C   C13       1.0  0.81137  0.59428  0.90367  1.0000
  C   C14       1.0  0.40572  0.18862  0.59633  1.0000
  C   C15       1.0  0.18862  0.40573  0.09633  1.0000
  C   C16       1.0  0.59429  0.81138  0.40367  1.0000
  C   C17       1.0  0.95663  0.71448  0.95334  1.0000
  C   C18       1.0  0.28552  0.04336  0.54666  1.0000
  C   C19       1.0  0.04337  0.28553  0.04666  1.0000
  C   C20       1.0  0.71449  0.95663  0.45334  1.0000
  C   C21       1.0  0.67154  0.91250  0.92132  1.0000
  C   C22       1.0  0.08750  0.32845  0.57868  1.0000
  C   C23       1.0  0.32846  0.08750  0.07868  1.0000
  C   C24       1.0  0.91251  0.67155  0.42132  1.0000
  C   C25       1.0  0.67698  0.88765  0.83003  1.0000
  C   C26       1.0  0.11236  0.32302  0.66997  1.0000
  C   C27       1.0  0.32302  0.11235  0.16998  1.0000
  C   C28       1.0  0.88765  0.67698  0.33003  1.0000
  C   C29       1.0  0.68027  0.00704  0.78338  1.0000
  C   C30       1.0  0.99295  0.31973  0.71662  1.0000
  C   C31       1.0  0.31973  0.99295  0.21662  1.0000
  C   C32       1.0  0.00704  0.68026  0.28338  1.0000
  C   C33       1.0  0.67377  0.17002  0.90877  1.0000
  C   C34       1.0  0.82997  0.32622  0.59123  1.0000
  C   C35       1.0  0.32623  0.82997  0.09123  1.0000
  C   C36       1.0  0.17003  0.67378  0.40877  1.0000
  C   C37       1.0  0.67007  0.05820  0.96078  1.0000
  C   C38       1.0  0.94180  0.32992  0.53923  1.0000
  C   C39       1.0  0.32993  0.94181  0.03923  1.0000
  C   C40       1.0  0.05820  0.67008  0.46077  1.0000
  S   S1        1.0  0.66539  0.77346  0.98865  1.0000
  S   S2        1.0  0.22653  0.33461  0.51135  1.0000
  S   S3        1.0  0.33462  0.22654  0.01135  1.0000
  S   S4        1.0  0.77346  0.66539  0.48865  1.0000
  N   N1        1.0  0.67906  0.14648  0.82127  1.0000
  N   N2        1.0  0.85351  0.32093  0.67873  1.0000
  N   N3        1.0  0.32094  0.85352  0.17873  1.0000
  N   N4        1.0  0.14649  0.67906  0.32127  1.0000
  O   O1        1.0  0.50533  0.37696  0.82193  1.0000
  O   O2        1.0  0.62304  0.49466  0.67807  1.0000
  O   O3        1.0  0.49467  0.62304  0.17807  1.0000
  O   O4        1.0  0.37696  0.50533  0.32193  1.0000
  O   O5        1.0  0.83107  0.48485  0.85240  1.0000
  O   O6        1.0  0.51515  0.16893  0.64760  1.0000
  O   O7        1.0  0.16892  0.51516  0.14760  1.0000
  O   O8        1.0  0.48485  0.83107  0.35240  1.0000
