data_image0
_chemical_formula_structural       Cd4H24C32N16O12
_chemical_formula_sum              "Cd4 H24 C32 N16 O12"
_cell_length_a       7.39262
_cell_length_b       10.4441
_cell_length_c       14.7404
_cell_angle_alpha    73.8851
_cell_angle_beta     75.4587
_cell_angle_gamma    69.251

_space_group_name_H-M_alt    "P 1"
_space_group_IT_number       1

loop_
  _space_group_symop_operation_xyz
  'x, y, z'

loop_
  _atom_site_type_symbol
  _atom_site_label
  _atom_site_symmetry_multiplicity
  _atom_site_fract_x
  _atom_site_fract_y
  _atom_site_fract_z
  _atom_site_occupancy
  Cd  Cd1       1.0  0.78429  0.25001  0.75008  1.0000
  Cd  Cd2       1.0  0.21571  0.74999  0.24992  1.0000
  Cd  Cd3       1.0  0.50000  1.00000  0.00000  1.0000
  Cd  Cd4       1.0  0.50000  0.50000  0.50000  1.0000
  H   H1        1.0  0.53895  0.71102  0.05614  1.0000
  H   H2        1.0  0.30588  0.78901  0.44376  1.0000
  H   H3        1.0  0.46105  0.28898  0.94386  1.0000
  H   H4        1.0  0.69411  0.21099  0.55624  1.0000
  H   H5        1.0  0.35955  0.77103  0.00375  1.0000
  H   H6        1.0  0.13410  0.72896  0.49614  1.0000
  H   H7        1.0  0.64045  0.22897  0.99625  1.0000
  H   H8        1.0  0.86590  0.27103  0.50386  1.0000
  H   H9        1.0  0.00082  0.94110  0.81253  1.0000
  H   H10       1.0  0.75415  0.55873  0.68784  1.0000
  H   H11       1.0  0.99919  0.05890  0.18746  1.0000
  H   H12       1.0  0.24585  0.44127  0.31216  1.0000
  H   H13       1.0  0.12733  0.81421  0.67873  1.0000
  H   H14       1.0  0.61983  0.68611  0.82139  1.0000
  H   H15       1.0  0.87268  0.18579  0.32127  1.0000
  H   H16       1.0  0.38016  0.31389  0.17861  1.0000
  H   H17       1.0  0.45995  0.80408  0.58267  1.0000
  H   H18       1.0  0.84636  0.69670  0.91713  1.0000
  H   H19       1.0  0.54005  0.19592  0.41733  1.0000
  H   H20       1.0  0.15363  0.30331  0.08287  1.0000
  H   H21       1.0  0.65862  0.92490  0.61911  1.0000
  H   H22       1.0  0.20236  0.57569  0.88078  1.0000
  H   H23       1.0  0.34139  0.07510  0.38089  1.0000
  H   H24       1.0  0.79764  0.42431  0.11922  1.0000
  C   C1        1.0  0.44603  0.99938  0.73724  1.0000
  C   C2        1.0  0.18242  0.50078  0.76288  1.0000
  C   C3        1.0  0.55397  0.00061  0.26276  1.0000
  C   C4        1.0  0.81758  0.49922  0.23712  1.0000
  C   C5        1.0  0.25650  0.00709  0.79166  1.0000
  C   C6        1.0  0.05506  0.49282  0.70861  1.0000
  C   C7        1.0  0.74350  0.99291  0.20833  1.0000
  C   C8        1.0  0.94494  0.50718  0.29139  1.0000
  C   C9        1.0  0.14423  0.93935  0.76891  1.0000
  C   C10       1.0  0.85217  0.56057  0.73141  1.0000
  C   C11       1.0  0.85577  0.06065  0.23109  1.0000
  C   C12       1.0  0.14783  0.43943  0.26859  1.0000
  C   C13       1.0  0.21573  0.86687  0.69456  1.0000
  C   C14       1.0  0.77677  0.63334  0.80560  1.0000
  C   C15       1.0  0.78428  0.13312  0.30545  1.0000
  C   C16       1.0  0.22323  0.36666  0.19440  1.0000
  C   C17       1.0  0.40136  0.86138  0.64035  1.0000
  C   C18       1.0  0.90275  0.63913  0.85960  1.0000
  C   C19       1.0  0.59865  0.13862  0.35965  1.0000
  C   C20       1.0  0.09725  0.36087  0.14039  1.0000
  C   C21       1.0  0.51360  0.92838  0.66133  1.0000
  C   C22       1.0  0.10305  0.57209  0.83865  1.0000
  C   C23       1.0  0.48640  0.07162  0.33867  1.0000
  C   C24       1.0  0.89695  0.42791  0.16135  1.0000
  C   C25       1.0  0.58255  0.06440  0.75303  1.0000
  C   C26       1.0  0.39975  0.43569  0.74712  1.0000
  C   C27       1.0  0.41745  0.93560  0.24697  1.0000
  C   C28       1.0  0.60026  0.56431  0.25288  1.0000
  C   C29       1.0  0.15391  0.08977  0.86635  1.0000
  C   C30       1.0  0.11004  0.41017  0.63389  1.0000
  C   C31       1.0  0.84609  0.91023  0.13365  1.0000
  C   C32       1.0  0.88996  0.58983  0.36611  1.0000
  N   N1        1.0  0.96481  0.17008  0.86778  1.0000
  N   N2        1.0  0.00275  0.32989  0.63242  1.0000
  N   N3        1.0  0.03519  0.82993  0.13222  1.0000
  N   N4        1.0  0.99725  0.67011  0.36758  1.0000
  N   N5        1.0  0.90579  0.21893  0.94940  1.0000
  N   N6        1.0  0.07429  0.28113  0.55077  1.0000
  N   N7        1.0  0.09421  0.78107  0.05060  1.0000
  N   N8        1.0  0.92571  0.71887  0.44923  1.0000
  N   N9        1.0  0.05216  0.17170  0.99668  1.0000
  N   N10       1.0  0.22068  0.32840  0.50348  1.0000
  N   N11       1.0  0.94784  0.82830  0.00331  1.0000
  N   N12       1.0  0.77932  0.67160  0.49652  1.0000
  N   N13       1.0  0.20907  0.09157  0.94637  1.0000
  N   N14       1.0  0.24704  0.40848  0.55383  1.0000
  N   N15       1.0  0.79093  0.90843  0.05363  1.0000
  N   N16       1.0  0.75295  0.59152  0.44617  1.0000
  O   O1        1.0  0.61537  0.05405  0.83563  1.0000
  O   O2        1.0  0.50487  0.44609  0.66450  1.0000
  O   O3        1.0  0.38463  0.94595  0.16438  1.0000
  O   O4        1.0  0.49513  0.55391  0.33550  1.0000
  O   O5        1.0  0.49518  0.77421  0.99657  1.0000
  O   O6        1.0  0.26570  0.72584  0.50333  1.0000
  O   O7        1.0  0.50482  0.22579  0.00343  1.0000
  O   O8        1.0  0.73429  0.27417  0.49667  1.0000
  O   O9        1.0  0.67125  0.13041  0.67848  1.0000
  O   O10       1.0  0.47983  0.36958  0.82167  1.0000
  O   O11       1.0  0.32875  0.86959  0.32152  1.0000
  O   O12       1.0  0.52017  0.63041  0.17833  1.0000
