data_image0
_chemical_formula_structural       Sr2Cd4H32C48O28
_chemical_formula_sum              "Sr2 Cd4 H32 C48 O28"
_cell_length_a       10.5917
_cell_length_b       14.3239
_cell_length_c       14.7489
_cell_angle_alpha    87.8272
_cell_angle_beta     68.9822
_cell_angle_gamma    68.2988

_space_group_name_H-M_alt    "P 1"
_space_group_IT_number       1

loop_
  _space_group_symop_operation_xyz
  'x, y, z'

loop_
  _atom_site_type_symbol
  _atom_site_label
  _atom_site_symmetry_multiplicity
  _atom_site_fract_x
  _atom_site_fract_y
  _atom_site_fract_z
  _atom_site_occupancy
  Sr  Sr1       1.0  0.45905  0.25002  0.75011  1.0000
  Sr  Sr2       1.0  0.54095  0.74999  0.24989  1.0000
  Cd  Cd1       1.0  0.53984  0.46003  0.61083  1.0000
  Cd  Cd2       1.0  0.61075  0.04004  0.88924  1.0000
  Cd  Cd3       1.0  0.46016  0.53997  0.38917  1.0000
  Cd  Cd4       1.0  0.38926  0.95996  0.11076  1.0000
  H   H1        1.0  0.61659  0.10460  0.51324  1.0000
  H   H2        1.0  0.23416  0.39552  0.98691  1.0000
  H   H3        1.0  0.38341  0.89540  0.48676  1.0000
  H   H4        1.0  0.76584  0.60448  0.01309  1.0000
  H   H5        1.0  0.62815  0.97161  0.40241  1.0000
  H   H6        1.0  0.00194  0.52844  0.09768  1.0000
  H   H7        1.0  0.37185  0.02839  0.59759  1.0000
  H   H8        1.0  0.99806  0.47156  0.90232  1.0000
  H   H9        1.0  0.45240  0.19981  0.23459  1.0000
  H   H10       1.0  0.88672  0.30010  0.26541  1.0000
  H   H11       1.0  0.54760  0.80019  0.76541  1.0000
  H   H12       1.0  0.11328  0.69990  0.73459  1.0000
  H   H13       1.0  0.44540  0.33256  0.34192  1.0000
  H   H14       1.0  0.11977  0.16742  0.15809  1.0000
  H   H15       1.0  0.55460  0.66744  0.65808  1.0000
  H   H16       1.0  0.88022  0.83259  0.84191  1.0000
  H   H17       1.0  0.50953  0.33819  0.93671  1.0000
  H   H18       1.0  0.78435  0.16179  0.56319  1.0000
  H   H19       1.0  0.49047  0.66181  0.06329  1.0000
  H   H20       1.0  0.21565  0.83821  0.43681  1.0000
  H   H21       1.0  0.53901  0.62818  0.88609  1.0000
  H   H22       1.0  0.05332  0.87179  0.61391  1.0000
  H   H23       1.0  0.46099  0.37182  0.11391  1.0000
  H   H24       1.0  0.94668  0.12821  0.38609  1.0000
  H   H25       1.0  0.83989  0.34544  0.48073  1.0000
  H   H26       1.0  0.66603  0.15459  0.01937  1.0000
  H   H27       1.0  0.16011  0.65456  0.51927  1.0000
  H   H28       1.0  0.33397  0.84542  0.98063  1.0000
  H   H29       1.0  0.76218  0.43169  0.42571  1.0000
  H   H30       1.0  0.61966  0.06828  0.07432  1.0000
  H   H31       1.0  0.23781  0.56831  0.57429  1.0000
  H   H32       1.0  0.38034  0.93172  0.92568  1.0000
  C   C1        1.0  0.53177  0.22701  0.43410  1.0000
  C   C2        1.0  0.19261  0.27301  0.06592  1.0000
  C   C3        1.0  0.46824  0.77298  0.56590  1.0000
  C   C4        1.0  0.80739  0.72699  0.93408  1.0000
  C   C5        1.0  0.58224  0.12516  0.45153  1.0000
  C   C6        1.0  0.15866  0.37490  0.04853  1.0000
  C   C7        1.0  0.41776  0.87484  0.54847  1.0000
  C   C8        1.0  0.84134  0.62510  0.95147  1.0000
  C   C9        1.0  0.58896  0.05091  0.38991  1.0000
  C   C10       1.0  0.02954  0.44912  0.11011  1.0000
  C   C11       1.0  0.41104  0.94909  0.61009  1.0000
  C   C12       1.0  0.97046  0.55088  0.88989  1.0000
  C   C13       1.0  0.54391  0.07746  0.31077  1.0000
  C   C14       1.0  0.93194  0.42250  0.18916  1.0000
  C   C15       1.0  0.45609  0.92254  0.68923  1.0000
  C   C16       1.0  0.06806  0.57750  0.81084  1.0000
  C   C17       1.0  0.49109  0.17937  0.29456  1.0000
  C   C18       1.0  0.96486  0.32058  0.20543  1.0000
  C   C19       1.0  0.50891  0.82063  0.70544  1.0000
  C   C20       1.0  0.03514  0.67942  0.79457  1.0000
  C   C21       1.0  0.48548  0.25380  0.35541  1.0000
  C   C22       1.0  0.09450  0.24618  0.14457  1.0000
  C   C23       1.0  0.51452  0.74620  0.64459  1.0000
  C   C24       1.0  0.90550  0.75382  0.85543  1.0000
  C   C25       1.0  0.52930  0.30615  0.49808  1.0000
  C   C26       1.0  0.33339  0.19390  0.00201  1.0000
  C   C27       1.0  0.47069  0.69385  0.50192  1.0000
  C   C28       1.0  0.66661  0.80610  0.99800  1.0000
  C   C29       1.0  0.54587  0.99765  0.24677  1.0000
  C   C30       1.0  0.79017  0.50234  0.25308  1.0000
  C   C31       1.0  0.45414  0.00235  0.75323  1.0000
  C   C32       1.0  0.20983  0.49766  0.74692  1.0000
  C   C33       1.0  0.55020  0.46324  0.79577  1.0000
  C   C34       1.0  0.80901  0.03665  0.70411  1.0000
  C   C35       1.0  0.44980  0.53676  0.20423  1.0000
  C   C36       1.0  0.19099  0.96335  0.29589  1.0000
  C   C37       1.0  0.52750  0.48130  0.90067  1.0000
  C   C38       1.0  0.90933  0.01863  0.59927  1.0000
  C   C39       1.0  0.47249  0.51870  0.09933  1.0000
  C   C40       1.0  0.09066  0.98136  0.40073  1.0000
  C   C41       1.0  0.50638  0.40865  0.96467  1.0000
  C   C42       1.0  0.87965  0.09134  0.53528  1.0000
  C   C43       1.0  0.49361  0.59135  0.03533  1.0000
  C   C44       1.0  0.12035  0.90866  0.46472  1.0000
  C   C45       1.0  0.52118  0.57276  0.93676  1.0000
  C   C46       1.0  0.03067  0.92721  0.56324  1.0000
  C   C47       1.0  0.47882  0.42724  0.06324  1.0000
  C   C48       1.0  0.96933  0.07279  0.43676  1.0000
  O   O1        1.0  0.50176  0.39637  0.47551  1.0000
  O   O2        1.0  0.37365  0.10368  0.02455  1.0000
  O   O3        1.0  0.49824  0.60363  0.52449  1.0000
  O   O4        1.0  0.62635  0.89631  0.97545  1.0000
  O   O5        1.0  0.77497  0.41608  0.48955  1.0000
  O   O6        1.0  0.68087  0.08388  0.01056  1.0000
  O   O7        1.0  0.22503  0.58392  0.51045  1.0000
  O   O8        1.0  0.31912  0.91612  0.98943  1.0000
  O   O9        1.0  0.55813  0.28223  0.57516  1.0000
  O   O10       1.0  0.41540  0.21788  0.92502  1.0000
  O   O11       1.0  0.44187  0.71777  0.42484  1.0000
  O   O12       1.0  0.58460  0.78212  0.07498  1.0000
  O   O13       1.0  0.51645  0.02584  0.17004  1.0000
  O   O14       1.0  0.71231  0.47426  0.32988  1.0000
  O   O15       1.0  0.48355  0.97416  0.82996  1.0000
  O   O16       1.0  0.28769  0.52575  0.67012  1.0000
  O   O17       1.0  0.57207  0.90930  0.27174  1.0000
  O   O18       1.0  0.75301  0.59064  0.22802  1.0000
  O   O19       1.0  0.42793  0.09070  0.72826  1.0000
  O   O20       1.0  0.24699  0.40937  0.77198  1.0000
  O   O21       1.0  0.55651  0.53370  0.74106  1.0000
  O   O22       1.0  0.83110  0.96625  0.75888  1.0000
  O   O23       1.0  0.44349  0.46630  0.25894  1.0000
  O   O24       1.0  0.16891  0.03375  0.24111  1.0000
  O   O25       1.0  0.55790  0.37860  0.76400  1.0000
  O   O26       1.0  0.70024  0.12126  0.73581  1.0000
  O   O27       1.0  0.44210  0.62140  0.23600  1.0000
  O   O28       1.0  0.29975  0.87874  0.26419  1.0000
