data_image0
_chemical_formula_structural       Mn4H44C50N8O20
_chemical_formula_sum              "Mn4 H44 C50 N8 O20"
_cell_length_a       8.54806
_cell_length_b       13.1502
_cell_length_c       13.1531
_cell_angle_alpha    82.2082
_cell_angle_beta     71.0579
_cell_angle_gamma    71.5811

_space_group_name_H-M_alt    "P 1"
_space_group_IT_number       1

loop_
  _space_group_symop_operation_xyz
  'x, y, z'

loop_
  _atom_site_type_symbol
  _atom_site_label
  _atom_site_symmetry_multiplicity
  _atom_site_fract_x
  _atom_site_fract_y
  _atom_site_fract_z
  _atom_site_occupancy
  Mn  Mn1       1.0  0.90191  0.64499  0.84594  1.0000
  Mn  Mn2       1.0  0.39397  0.85652  0.65281  1.0000
  Mn  Mn3       1.0  0.09809  0.35502  0.15405  1.0000
  Mn  Mn4       1.0  0.60603  0.14348  0.34719  1.0000
  H   H1        1.0  0.34194  0.62563  0.91742  1.0000
  H   H2        1.0  0.88396  0.87495  0.58085  1.0000
  H   H3        1.0  0.65808  0.37437  0.08257  1.0000
  H   H4        1.0  0.11604  0.12505  0.41915  1.0000
  H   H5        1.0  0.31391  0.59742  0.25177  1.0000
  H   H6        1.0  0.16324  0.90463  0.24669  1.0000
  H   H7        1.0  0.68610  0.40258  0.74823  1.0000
  H   H8        1.0  0.83674  0.09536  0.75331  1.0000
  H   H9        1.0  0.55734  0.81975  0.03868  1.0000
  H   H10       1.0  0.41176  0.68479  0.46041  1.0000
  H   H11       1.0  0.44266  0.18025  0.96132  1.0000
  H   H12       1.0  0.58824  0.31521  0.53959  1.0000
  H   H13       1.0  0.52672  0.81862  0.22107  1.0000
  H   H14       1.0  0.56326  0.68716  0.27858  1.0000
  H   H15       1.0  0.47327  0.18139  0.77893  1.0000
  H   H16       1.0  0.43674  0.31284  0.72141  1.0000
  H   H17       1.0  0.82733  0.66453  0.11913  1.0000
  H   H18       1.0  0.61440  0.83372  0.38056  1.0000
  H   H19       1.0  0.17267  0.33548  0.88087  1.0000
  H   H20       1.0  0.38560  0.16628  0.61944  1.0000
  H   H21       1.0  0.91365  0.82831  0.18594  1.0000
  H   H22       1.0  0.92745  0.67073  0.31457  1.0000
  H   H23       1.0  0.08637  0.17170  0.81405  1.0000
  H   H24       1.0  0.07256  0.32927  0.68543  1.0000
  H   H25       1.0  0.05719  0.83590  0.84630  1.0000
  H   H26       1.0  0.73699  0.66371  0.65418  1.0000
  H   H27       1.0  0.94282  0.16410  0.15369  1.0000
  H   H28       1.0  0.26301  0.33630  0.34582  1.0000
  H   H29       1.0  0.18726  0.93742  0.94061  1.0000
  H   H30       1.0  0.06118  0.56506  0.56069  1.0000
  H   H31       1.0  0.81276  0.06258  0.05938  1.0000
  H   H32       1.0  0.93882  0.43495  0.43931  1.0000
  H   H33       1.0  0.09716  0.94980  0.08311  1.0000
  H   H34       1.0  0.12800  0.55351  0.41808  1.0000
  H   H35       1.0  0.90286  0.05020  0.91687  1.0000
  H   H36       1.0  0.87200  0.44650  0.58193  1.0000
  H   H37       1.0  0.20072  0.52253  0.89834  1.0000
  H   H38       1.0  0.62493  0.97886  0.60023  1.0000
  H   H39       1.0  0.79927  0.47746  0.10167  1.0000
  H   H40       1.0  0.37507  0.02114  0.39978  1.0000
  H   H41       1.0  0.24335  0.58698  0.78466  1.0000
  H   H42       1.0  0.61697  0.91458  0.71413  1.0000
  H   H43       1.0  0.75664  0.41301  0.21535  1.0000
  H   H44       1.0  0.38302  0.08542  0.28588  1.0000
  C   C1        1.0  0.45637  0.72644  0.96727  1.0000
  C   C2        1.0  0.14756  0.77627  0.53129  1.0000
  C   C3        1.0  0.54363  0.27356  0.03273  1.0000
  C   C4        1.0  0.85244  0.22373  0.46871  1.0000
  C   C5        1.0  0.36900  0.64933  0.98447  1.0000
  C   C6        1.0  0.00143  0.85215  0.51388  1.0000
  C   C7        1.0  0.63101  0.35066  0.01552  1.0000
  C   C8        1.0  0.99857  0.14784  0.48612  1.0000
  C   C9        1.0  0.32028  0.60145  0.08686  1.0000
  C   C10       1.0  0.00799  0.89971  0.41137  1.0000
  C   C11       1.0  0.67972  0.39855  0.91314  1.0000
  C   C12       1.0  0.99200  0.10029  0.58863  1.0000
  C   C13       1.0  0.35387  0.63494  0.17223  1.0000
  C   C14       1.0  0.16028  0.86730  0.32628  1.0000
  C   C15       1.0  0.64614  0.36506  0.82776  1.0000
  C   C16       1.0  0.83971  0.13270  0.67372  1.0000
  C   C17       1.0  0.43638  0.71482  0.15667  1.0000
  C   C18       1.0  0.30597  0.78870  0.34210  1.0000
  C   C19       1.0  0.56362  0.28518  0.84332  1.0000
  C   C20       1.0  0.69403  0.21130  0.65790  1.0000
  C   C21       1.0  0.48967  0.75896  0.05313  1.0000
  C   C22       1.0  0.29885  0.74469  0.44567  1.0000
  C   C23       1.0  0.51033  0.24104  0.94686  1.0000
  C   C24       1.0  0.70115  0.25532  0.55433  1.0000
  C   C25       1.0  0.46829  0.75239  0.24958  1.0000
  C   C26       1.0  0.53170  0.24761  0.75042  1.0000
  C   C27       1.0  0.51194  0.77575  0.85734  1.0000
  C   C28       1.0  0.14231  0.72710  0.64115  1.0000
  C   C29       1.0  0.48806  0.22426  0.14266  1.0000
  C   C30       1.0  0.85770  0.27289  0.35885  1.0000
  C   C31       1.0  0.23550  0.51451  0.10521  1.0000
  C   C32       1.0  0.85577  0.98515  0.39235  1.0000
  C   C33       1.0  0.76450  0.48548  0.89480  1.0000
  C   C34       1.0  0.14422  0.01485  0.60766  1.0000
  C   C35       1.0  0.88503  0.72528  0.07275  1.0000
  C   C36       1.0  0.68448  0.77320  0.42728  1.0000
  C   C37       1.0  0.11497  0.27472  0.92724  1.0000
  C   C38       1.0  0.31552  0.22680  0.57273  1.0000
  C   C39       1.0  0.92844  0.80401  0.10701  1.0000
  C   C40       1.0  0.83906  0.69476  0.39342  1.0000
  C   C41       1.0  0.07157  0.19599  0.89299  1.0000
  C   C42       1.0  0.16093  0.30524  0.60659  1.0000
  C   C43       1.0  0.00307  0.81066  0.92890  1.0000
  C   C44       1.0  0.74111  0.68852  0.57148  1.0000
  C   C45       1.0  0.99694  0.18935  0.07110  1.0000
  C   C46       1.0  0.25888  0.31148  0.42852  1.0000
  C   C47       1.0  0.06798  0.94800  0.00819  1.0000
  C   C48       1.0  0.02223  0.55309  0.49254  1.0000
  C   C49       1.0  0.93204  0.05200  0.99179  1.0000
  C   C50       1.0  0.97776  0.44692  0.50747  1.0000
  N   N1        1.0  0.93092  0.73103  0.96151  1.0000
  N   N2        1.0  0.62406  0.76781  0.53853  1.0000
  N   N3        1.0  0.06909  0.26898  0.03848  1.0000
  N   N4        1.0  0.37593  0.23220  0.46148  1.0000
  N   N5        1.0  0.00434  0.85651  0.01474  1.0000
  N   N6        1.0  0.87345  0.64262  0.48589  1.0000
  N   N7        1.0  0.99568  0.14349  0.98525  1.0000
  N   N8        1.0  0.12655  0.35738  0.51412  1.0000
  O   O1        1.0  0.66367  0.78617  0.82042  1.0000
  O   O2        1.0  0.26734  0.71752  0.67779  1.0000
  O   O3        1.0  0.33632  0.21384  0.17958  1.0000
  O   O4        1.0  0.73267  0.28248  0.32222  1.0000
  O   O5        1.0  0.39777  0.80559  0.80798  1.0000
  O   O6        1.0  0.00901  0.69623  0.69082  1.0000
  O   O7        1.0  0.60224  0.19441  0.19201  1.0000
  O   O8        1.0  0.99099  0.30376  0.30918  1.0000
  O   O9        1.0  0.20423  0.48267  0.02814  1.0000
  O   O10       1.0  0.71633  0.01693  0.46958  1.0000
  O   O11       1.0  0.79577  0.51733  0.97187  1.0000
  O   O12       1.0  0.28366  0.98307  0.53043  1.0000
  O   O13       1.0  0.19626  0.47049  0.19967  1.0000
  O   O14       1.0  0.86666  0.02797  0.29771  1.0000
  O   O15       1.0  0.80372  0.52952  0.80034  1.0000
  O   O16       1.0  0.13332  0.97202  0.70230  1.0000
  O   O17       1.0  0.17849  0.53752  0.82692  1.0000
  O   O18       1.0  0.54617  0.96396  0.67178  1.0000
  O   O19       1.0  0.82150  0.46247  0.17309  1.0000
  O   O20       1.0  0.45383  0.03604  0.32823  1.0000
