data_image0
_chemical_formula_structural       Hg4H24C40N48
_chemical_formula_sum              "Hg4 H24 C40 N48"
_cell_length_a       8.94882
_cell_length_b       9.96833
_cell_length_c       15.579
_cell_angle_alpha    90
_cell_angle_beta     91.8676
_cell_angle_gamma    90

_space_group_name_H-M_alt    "P 1"
_space_group_IT_number       1

loop_
  _space_group_symop_operation_xyz
  'x, y, z'

loop_
  _atom_site_type_symbol
  _atom_site_label
  _atom_site_symmetry_multiplicity
  _atom_site_fract_x
  _atom_site_fract_y
  _atom_site_fract_z
  _atom_site_occupancy
  Hg  Hg1       1.0  0.53036  0.88019  0.11983  1.0000
  Hg  Hg2       1.0  0.46964  0.38019  0.38017  1.0000
  Hg  Hg3       1.0  0.46964  0.11981  0.88017  1.0000
  Hg  Hg4       1.0  0.53036  0.61981  0.61983  1.0000
  H   H1        1.0  0.10818  0.77221  0.03756  1.0000
  H   H2        1.0  0.89182  0.27221  0.46244  1.0000
  H   H3        1.0  0.89182  0.22779  0.96244  1.0000
  H   H4        1.0  0.10818  0.72779  0.53756  1.0000
  H   H5        1.0  0.04153  0.64647  0.28829  1.0000
  H   H6        1.0  0.95846  0.14647  0.21171  1.0000
  H   H7        1.0  0.95847  0.35353  0.71171  1.0000
  H   H8        1.0  0.04153  0.85353  0.78829  1.0000
  H   H9        1.0  0.78336  0.74967  0.28152  1.0000
  H   H10       1.0  0.21664  0.24967  0.21848  1.0000
  H   H11       1.0  0.21664  0.25033  0.71848  1.0000
  H   H12       1.0  0.78336  0.75033  0.78152  1.0000
  H   H13       1.0  0.21428  0.40061  0.03783  1.0000
  H   H14       1.0  0.78572  0.90061  0.46217  1.0000
  H   H15       1.0  0.78572  0.59939  0.96217  1.0000
  H   H16       1.0  0.21428  0.09939  0.53783  1.0000
  H   H17       1.0  0.21416  0.60458  0.80494  1.0000
  H   H18       1.0  0.78584  0.10458  0.69506  1.0000
  H   H19       1.0  0.78584  0.39542  0.19506  1.0000
  H   H20       1.0  0.21416  0.89542  0.30494  1.0000
  H   H21       1.0  0.37736  0.78502  0.87297  1.0000
  H   H22       1.0  0.62264  0.28502  0.62703  1.0000
  H   H23       1.0  0.62264  0.21498  0.12703  1.0000
  H   H24       1.0  0.37736  0.71498  0.37297  1.0000
  C   C1        1.0  0.82706  0.88158  0.01037  1.0000
  C   C2        1.0  0.17294  0.38159  0.48963  1.0000
  C   C3        1.0  0.17294  0.11842  0.98963  1.0000
  C   C4        1.0  0.82706  0.61842  0.51037  1.0000
  C   C5        1.0  0.89133  0.81825  0.08756  1.0000
  C   C6        1.0  0.10867  0.31825  0.41244  1.0000
  C   C7        1.0  0.10867  0.18175  0.91244  1.0000
  C   C8        1.0  0.89132  0.68175  0.58756  1.0000
  C   C9        1.0  0.03603  0.76474  0.09246  1.0000
  C   C10       1.0  0.96396  0.26475  0.40754  1.0000
  C   C11       1.0  0.96397  0.23526  0.90754  1.0000
  C   C12       1.0  0.03603  0.73526  0.59246  1.0000
  C   C13       1.0  0.00006  0.69741  0.23023  1.0000
  C   C14       1.0  0.99994  0.19741  0.26977  1.0000
  C   C15       1.0  0.99994  0.30259  0.76977  1.0000
  C   C16       1.0  0.00006  0.80259  0.73023  1.0000
  C   C17       1.0  0.85659  0.75327  0.22710  1.0000
  C   C18       1.0  0.14341  0.25327  0.27290  1.0000
  C   C19       1.0  0.14341  0.24673  0.77290  1.0000
  C   C20       1.0  0.85659  0.74673  0.72710  1.0000
  C   C21       1.0  0.39681  0.57570  0.12671  1.0000
  C   C22       1.0  0.60319  0.07570  0.37329  1.0000
  C   C23       1.0  0.60319  0.42430  0.87329  1.0000
  C   C24       1.0  0.39681  0.92430  0.62671  1.0000
  C   C25       1.0  0.34367  0.58450  0.03748  1.0000
  C   C26       1.0  0.65633  0.08450  0.46252  1.0000
  C   C27       1.0  0.65633  0.41550  0.96252  1.0000
  C   C28       1.0  0.34367  0.91550  0.53748  1.0000
  C   C29       1.0  0.25065  0.48597  0.99984  1.0000
  C   C30       1.0  0.74935  0.98597  0.50016  1.0000
  C   C31       1.0  0.74935  0.51402  0.00016  1.0000
  C   C32       1.0  0.25065  0.01402  0.49984  1.0000
  C   C33       1.0  0.24933  0.59965  0.87267  1.0000
  C   C34       1.0  0.75067  0.09965  0.62733  1.0000
  C   C35       1.0  0.75067  0.40035  0.12733  1.0000
  C   C36       1.0  0.24933  0.90035  0.37266  1.0000
  C   C37       1.0  0.33974  0.69957  0.91030  1.0000
  C   C38       1.0  0.66026  0.19957  0.58970  1.0000
  C   C39       1.0  0.66026  0.30043  0.08970  1.0000
  C   C40       1.0  0.33974  0.80042  0.41030  1.0000
  N   N1        1.0  0.68736  0.93155  0.00709  1.0000
  N   N2        1.0  0.31263  0.43155  0.49291  1.0000
  N   N3        1.0  0.31264  0.06845  0.99291  1.0000
  N   N4        1.0  0.68736  0.56845  0.50709  1.0000
  N   N5        1.0  0.66838  0.98101  0.92774  1.0000
  N   N6        1.0  0.33162  0.48101  0.57226  1.0000
  N   N7        1.0  0.33162  0.01899  0.07226  1.0000
  N   N8        1.0  0.66837  0.51899  0.42774  1.0000
  N   N9        1.0  0.79148  0.96274  0.88413  1.0000
  N   N10       1.0  0.20852  0.46274  0.61587  1.0000
  N   N11       1.0  0.20852  0.03726  0.11587  1.0000
  N   N12       1.0  0.79147  0.53726  0.38413  1.0000
  N   N13       1.0  0.89306  0.89957  0.93464  1.0000
  N   N14       1.0  0.10694  0.39957  0.56536  1.0000
  N   N15       1.0  0.10694  0.10043  0.06536  1.0000
  N   N16       1.0  0.89306  0.60043  0.43464  1.0000
  N   N17       1.0  0.09035  0.70442  0.16339  1.0000
  N   N18       1.0  0.90964  0.20442  0.33661  1.0000
  N   N19       1.0  0.90965  0.29558  0.83661  1.0000
  N   N20       1.0  0.09035  0.79558  0.66339  1.0000
  N   N21       1.0  0.80344  0.81325  0.15587  1.0000
  N   N22       1.0  0.19656  0.31326  0.34413  1.0000
  N   N23       1.0  0.19656  0.18675  0.84413  1.0000
  N   N24       1.0  0.80344  0.68674  0.65587  1.0000
  N   N25       1.0  0.46935  0.67598  0.16881  1.0000
  N   N26       1.0  0.53066  0.17598  0.33119  1.0000
  N   N27       1.0  0.53066  0.32402  0.83119  1.0000
  N   N28       1.0  0.46934  0.82402  0.66881  1.0000
  N   N29       1.0  0.50028  0.63339  0.24843  1.0000
  N   N30       1.0  0.49972  0.13339  0.25157  1.0000
  N   N31       1.0  0.49972  0.36661  0.75157  1.0000
  N   N32       1.0  0.50028  0.86661  0.74843  1.0000
  N   N33       1.0  0.44711  0.50996  0.25308  1.0000
  N   N34       1.0  0.55289  0.00996  0.24692  1.0000
  N   N35       1.0  0.55289  0.49004  0.74692  1.0000
  N   N36       1.0  0.44711  0.99004  0.75308  1.0000
  N   N37       1.0  0.38170  0.46993  0.17873  1.0000
  N   N38       1.0  0.61830  0.96993  0.32127  1.0000
  N   N39       1.0  0.61830  0.53007  0.82127  1.0000
  N   N40       1.0  0.38171  0.03007  0.67873  1.0000
  N   N41       1.0  0.20350  0.49336  0.91767  1.0000
  N   N42       1.0  0.79650  0.99336  0.58233  1.0000
  N   N43       1.0  0.79650  0.50664  0.08233  1.0000
  N   N44       1.0  0.20350  0.00664  0.41767  1.0000
  N   N45       1.0  0.38672  0.69251  0.99255  1.0000
  N   N46       1.0  0.61328  0.19251  0.50745  1.0000
  N   N47       1.0  0.61328  0.30749  0.00745  1.0000
  N   N48       1.0  0.38672  0.80749  0.49255  1.0000
