data_image0
_chemical_formula_structural       Dy2H54C48S12N6O18
_chemical_formula_sum              "Dy2 H54 C48 S12 N6 O18"
_cell_length_a       7.73331
_cell_length_b       11.645
_cell_length_c       17.456
_cell_angle_alpha    93.8947
_cell_angle_beta     94.7728
_cell_angle_gamma    91.8526

_space_group_name_H-M_alt    "P 1"
_space_group_IT_number       1

loop_
  _space_group_symop_operation_xyz
  'x, y, z'

loop_
  _atom_site_type_symbol
  _atom_site_label
  _atom_site_symmetry_multiplicity
  _atom_site_fract_x
  _atom_site_fract_y
  _atom_site_fract_z
  _atom_site_occupancy
  Dy  Dy1       1.0  0.78048  0.58877  0.75357  1.0000
  Dy  Dy2       1.0  0.21953  0.41122  0.24643  1.0000
  H   H1        1.0  0.43867  0.69332  0.96227  1.0000
  H   H2        1.0  0.56134  0.30668  0.03773  1.0000
  H   H3        1.0  0.33678  0.82005  0.07258  1.0000
  H   H4        1.0  0.66322  0.17995  0.92742  1.0000
  H   H5        1.0  0.53754  0.98056  0.13068  1.0000
  H   H6        1.0  0.46245  0.01944  0.86932  1.0000
  H   H7        1.0  0.18085  0.42617  0.71985  1.0000
  H   H8        1.0  0.81915  0.57383  0.28015  1.0000
  H   H9        1.0  0.95885  0.26192  0.71101  1.0000
  H   H10       1.0  0.04114  0.73809  0.28899  1.0000
  H   H11       1.0  0.06596  0.06158  0.72104  1.0000
  H   H12       1.0  0.93403  0.93842  0.27896  1.0000
  H   H13       1.0  0.72012  0.12171  0.49049  1.0000
  H   H14       1.0  0.27989  0.87828  0.50951  1.0000
  H   H15       1.0  0.72888  0.92612  0.42185  1.0000
  H   H16       1.0  0.27113  0.07387  0.57816  1.0000
  H   H17       1.0  0.70010  0.75270  0.50148  1.0000
  H   H18       1.0  0.29991  0.24730  0.49853  1.0000
  H   H19       1.0  0.19937  0.75145  0.86359  1.0000
  H   H20       1.0  0.80064  0.24856  0.13641  1.0000
  H   H21       1.0  0.34897  0.85151  0.82781  1.0000
  H   H22       1.0  0.65104  0.14849  0.17219  1.0000
  H   H23       1.0  0.34377  0.70179  0.79206  1.0000
  H   H24       1.0  0.65623  0.29821  0.20794  1.0000
  H   H25       1.0  0.14912  0.85739  0.61727  1.0000
  H   H26       1.0  0.85088  0.14261  0.38273  1.0000
  H   H27       1.0  0.31638  0.76486  0.65365  1.0000
  H   H28       1.0  0.68362  0.23514  0.34636  1.0000
  H   H29       1.0  0.31780  0.91624  0.68786  1.0000
  H   H30       1.0  0.68220  0.08376  0.31214  1.0000
  H   H31       1.0  0.83047  0.32931  0.89152  1.0000
  H   H32       1.0  0.16952  0.67069  0.10848  1.0000
  H   H33       1.0  0.98795  0.31076  0.97226  1.0000
  H   H34       1.0  0.01205  0.68923  0.02774  1.0000
  H   H35       1.0  0.04180  0.27855  0.87448  1.0000
  H   H36       1.0  0.95819  0.72144  0.12552  1.0000
  H   H37       1.0  0.33495  0.54259  0.90924  1.0000
  H   H38       1.0  0.66505  0.45741  0.09076  1.0000
  H   H39       1.0  0.30912  0.38920  0.89353  1.0000
  H   H40       1.0  0.69088  0.61080  0.10647  1.0000
  H   H41       1.0  0.29694  0.45680  0.98907  1.0000
  H   H42       1.0  0.70306  0.54319  0.01092  1.0000
  H   H43       1.0  0.09306  0.35299  0.55383  1.0000
  H   H44       1.0  0.90694  0.64701  0.44617  1.0000
  H   H45       1.0  0.93441  0.31621  0.47495  1.0000
  H   H46       1.0  0.06559  0.68378  0.52505  1.0000
  H   H47       1.0  0.91996  0.25027  0.56615  1.0000
  H   H48       1.0  0.08003  0.74973  0.43385  1.0000
  H   H49       1.0  0.53151  0.43987  0.57766  1.0000
  H   H50       1.0  0.46850  0.56014  0.42234  1.0000
  H   H51       1.0  0.61716  0.29719  0.57808  1.0000
  H   H52       1.0  0.38285  0.70282  0.42192  1.0000
  H   H53       1.0  0.58624  0.36870  0.48861  1.0000
  H   H54       1.0  0.41377  0.63130  0.51138  1.0000
  C   C1        1.0  0.77653  0.88820  0.99406  1.0000
  C   C2        1.0  0.22347  0.11180  0.00594  1.0000
  C   C3        1.0  0.67612  0.79085  0.95973  1.0000
  C   C4        1.0  0.32388  0.20915  0.04027  1.0000
  C   C5        1.0  0.51669  0.76712  0.98879  1.0000
  C   C6        1.0  0.48331  0.23288  0.01121  1.0000
  C   C7        1.0  0.46106  0.83560  0.04952  1.0000
  C   C8        1.0  0.53894  0.16440  0.95048  1.0000
  C   C9        1.0  0.57223  0.92635  0.08112  1.0000
  C   C10       1.0  0.42776  0.07365  0.91888  1.0000
  C   C11       1.0  0.73329  0.71501  0.89539  1.0000
  C   C12       1.0  0.26671  0.28499  0.10461  1.0000
  C   C13       1.0  0.44392  0.20009  0.74119  1.0000
  C   C14       1.0  0.55607  0.79991  0.25881  1.0000
  C   C15       1.0  0.39570  0.31611  0.73743  1.0000
  C   C16       1.0  0.60429  0.68389  0.26257  1.0000
  C   C17       1.0  0.21981  0.33761  0.72388  1.0000
  C   C18       1.0  0.78019  0.66239  0.27612  1.0000
  C   C19       1.0  0.09709  0.24653  0.71851  1.0000
  C   C20       1.0  0.90290  0.75347  0.28149  1.0000
  C   C21       1.0  0.15746  0.13574  0.72372  1.0000
  C   C22       1.0  0.84253  0.86427  0.27628  1.0000
  C   C23       1.0  0.52514  0.41419  0.74799  1.0000
  C   C24       1.0  0.47485  0.58580  0.25201  1.0000
  C   C25       1.0  0.68151  0.85607  0.60594  1.0000
  C   C26       1.0  0.31849  0.14393  0.39406  1.0000
  C   C27       1.0  0.68266  0.97049  0.63973  1.0000
  C   C28       1.0  0.31734  0.02951  0.36026  1.0000
  C   C29       1.0  0.71255  0.04422  0.52218  1.0000
  C   C30       1.0  0.28746  0.95577  0.47782  1.0000
  C   C31       1.0  0.71699  0.93563  0.48362  1.0000
  C   C32       1.0  0.28304  0.06436  0.51638  1.0000
  C   C33       1.0  0.70006  0.84073  0.52701  1.0000
  C   C34       1.0  0.29996  0.15927  0.47299  1.0000
  C   C35       1.0  0.66954  0.75323  0.65170  1.0000
  C   C36       1.0  0.33045  0.24677  0.34830  1.0000
  C   C37       1.0  0.26744  0.77296  0.81363  1.0000
  C   C38       1.0  0.73257  0.22704  0.18637  1.0000
  C   C39       1.0  0.23729  0.83888  0.66705  1.0000
  C   C40       1.0  0.76271  0.16112  0.33295  1.0000
  C   C41       1.0  0.96836  0.33388  0.91232  1.0000
  C   C42       1.0  0.03163  0.66612  0.08768  1.0000
  C   C43       1.0  0.26893  0.46528  0.92701  1.0000
  C   C44       1.0  0.73108  0.53471  0.07299  1.0000
  C   C45       1.0  0.95640  0.32776  0.53801  1.0000
  C   C46       1.0  0.04359  0.67224  0.46198  1.0000
  C   C47       1.0  0.61938  0.37983  0.55120  1.0000
  C   C48       1.0  0.38063  0.62018  0.44880  1.0000
  S   S1        1.0  0.97382  0.92863  0.95848  1.0000
  S   S2        1.0  0.02618  0.07138  0.04152  1.0000
  S   S3        1.0  0.66882  0.17020  0.75680  1.0000
  S   S4        1.0  0.33118  0.82980  0.24319  1.0000
  S   S5        1.0  0.66852  0.99354  0.74136  1.0000
  S   S6        1.0  0.33148  0.00646  0.25863  1.0000
  S   S7        1.0  0.10121  0.80366  0.74096  1.0000
  S   S8        1.0  0.89879  0.19635  0.25905  1.0000
  S   S9        1.0  0.03904  0.48187  0.90801  1.0000
  S   S10       1.0  0.96096  0.51813  0.09199  1.0000
  S   S11       1.0  0.83283  0.44703  0.57053  1.0000
  S   S12       1.0  0.16717  0.55297  0.42947  1.0000
  N   N1        1.0  0.72478  0.95240  0.05455  1.0000
  N   N2        1.0  0.27522  0.04760  0.94545  1.0000
  N   N3        1.0  0.32671  0.11230  0.73283  1.0000
  N   N4        1.0  0.67327  0.88771  0.26717  1.0000
  N   N5        1.0  0.69657  0.06204  0.59782  1.0000
  N   N6        1.0  0.30343  0.93796  0.40218  1.0000
  O   O1        1.0  0.87511  0.73925  0.86656  1.0000
  O   O2        1.0  0.12489  0.26075  0.13344  1.0000
  O   O3        1.0  0.63839  0.62589  0.86945  1.0000
  O   O4        1.0  0.36161  0.37412  0.13054  1.0000
  O   O5        1.0  0.49034  0.50972  0.71949  1.0000
  O   O6        1.0  0.50965  0.49027  0.28052  1.0000
  O   O7        1.0  0.67155  0.39927  0.78499  1.0000
  O   O8        1.0  0.32844  0.60072  0.21502  1.0000
  O   O9        1.0  0.67473  0.65274  0.61924  1.0000
  O   O10       1.0  0.32527  0.34726  0.38077  1.0000
  O   O11       1.0  0.66244  0.77041  0.72479  1.0000
  O   O12       1.0  0.33755  0.22959  0.27522  1.0000
  O   O13       1.0  0.01726  0.68684  0.71017  1.0000
  O   O14       1.0  0.98274  0.31316  0.28983  1.0000
  O   O15       1.0  0.01399  0.50853  0.82375  1.0000
  O   O16       1.0  0.98601  0.49147  0.17625  1.0000
  O   O17       1.0  0.86805  0.45391  0.65796  1.0000
  O   O18       1.0  0.13195  0.54609  0.34204  1.0000
