data_image0
_chemical_formula_structural       Hg8H24C40Br8N48
_chemical_formula_sum              "Hg8 H24 C40 Br8 N48"
_cell_length_a       6.51796
_cell_length_b       11.631
_cell_length_c       23.855
_cell_angle_alpha    90
_cell_angle_beta     90
_cell_angle_gamma    90

_space_group_name_H-M_alt    "P 1"
_space_group_IT_number       1

loop_
  _space_group_symop_operation_xyz
  'x, y, z'

loop_
  _atom_site_type_symbol
  _atom_site_label
  _atom_site_symmetry_multiplicity
  _atom_site_fract_x
  _atom_site_fract_y
  _atom_site_fract_z
  _atom_site_occupancy
  Hg  Hg1       1.0  0.67843  0.21415  0.61484  1.0000
  Hg  Hg2       1.0  0.17842  0.28585  0.38516  1.0000
  Hg  Hg3       1.0  0.32157  0.71415  0.88516  1.0000
  Hg  Hg4       1.0  0.82158  0.78585  0.11484  1.0000
  Hg  Hg5       1.0  0.32158  0.78585  0.38516  1.0000
  Hg  Hg6       1.0  0.82159  0.71415  0.61484  1.0000
  Hg  Hg7       1.0  0.67842  0.28585  0.11484  1.0000
  Hg  Hg8       1.0  0.17842  0.21415  0.88516  1.0000
  H   H1        1.0  0.05319  0.91841  0.54718  1.0000
  H   H2        1.0  0.55319  0.58159  0.45282  1.0000
  H   H3        1.0  0.94681  0.41841  0.95282  1.0000
  H   H4        1.0  0.44682  0.08159  0.04718  1.0000
  H   H5        1.0  0.94681  0.08159  0.45282  1.0000
  H   H6        1.0  0.44682  0.41841  0.54718  1.0000
  H   H7        1.0  0.05319  0.58159  0.04718  1.0000
  H   H8        1.0  0.55318  0.91841  0.95282  1.0000
  H   H9        1.0  0.13391  0.84170  0.71642  1.0000
  H   H10       1.0  0.63390  0.65830  0.28358  1.0000
  H   H11       1.0  0.86609  0.34169  0.78358  1.0000
  H   H12       1.0  0.36609  0.15831  0.21643  1.0000
  H   H13       1.0  0.86609  0.15831  0.28357  1.0000
  H   H14       1.0  0.36610  0.34169  0.71642  1.0000
  H   H15       1.0  0.13391  0.65831  0.21642  1.0000
  H   H16       1.0  0.63390  0.84169  0.78358  1.0000
  H   H17       1.0  0.40657  0.99593  0.72303  1.0000
  H   H18       1.0  0.90656  0.50407  0.27697  1.0000
  H   H19       1.0  0.59343  0.49593  0.77697  1.0000
  H   H20       1.0  0.09343  0.00407  0.22303  1.0000
  H   H21       1.0  0.59342  0.00407  0.27697  1.0000
  H   H22       1.0  0.09343  0.49593  0.72303  1.0000
  H   H23       1.0  0.40657  0.50407  0.22303  1.0000
  H   H24       1.0  0.90656  0.99593  0.77697  1.0000
  C   C1        1.0  0.34713  0.08456  0.54118  1.0000
  C   C2        1.0  0.84713  0.41544  0.45882  1.0000
  C   C3        1.0  0.65286  0.58456  0.95882  1.0000
  C   C4        1.0  0.15286  0.91544  0.04118  1.0000
  C   C5        1.0  0.65286  0.91544  0.45882  1.0000
  C   C6        1.0  0.15287  0.58456  0.54118  1.0000
  C   C7        1.0  0.34713  0.41544  0.04118  1.0000
  C   C8        1.0  0.84713  0.08456  0.95882  1.0000
  C   C9        1.0  0.28694  0.01824  0.59031  1.0000
  C   C10       1.0  0.78694  0.48176  0.40969  1.0000
  C   C11       1.0  0.71306  0.51824  0.90969  1.0000
  C   C12       1.0  0.21306  0.98176  0.09031  1.0000
  C   C13       1.0  0.71306  0.98176  0.40969  1.0000
  C   C14       1.0  0.21307  0.51824  0.59031  1.0000
  C   C15       1.0  0.28694  0.48176  0.09031  1.0000
  C   C16       1.0  0.78693  0.01824  0.90969  1.0000
  C   C17       1.0  0.13355  0.93418  0.58650  1.0000
  C   C18       1.0  0.63355  0.56582  0.41350  1.0000
  C   C19       1.0  0.86645  0.43418  0.91350  1.0000
  C   C20       1.0  0.36645  0.06582  0.08650  1.0000
  C   C21       1.0  0.86645  0.06582  0.41350  1.0000
  C   C22       1.0  0.36646  0.43418  0.58650  1.0000
  C   C23       1.0  0.13356  0.56582  0.08650  1.0000
  C   C24       1.0  0.63354  0.93418  0.91350  1.0000
  C   C25       1.0  0.17666  0.89343  0.68009  1.0000
  C   C26       1.0  0.67665  0.60657  0.31992  1.0000
  C   C27       1.0  0.82334  0.39343  0.81991  1.0000
  C   C28       1.0  0.32335  0.10657  0.18009  1.0000
  C   C29       1.0  0.82334  0.10657  0.31991  1.0000
  C   C30       1.0  0.32335  0.39343  0.68009  1.0000
  C   C31       1.0  0.17665  0.60657  0.18008  1.0000
  C   C32       1.0  0.67665  0.89343  0.81991  1.0000
  C   C33       1.0  0.32890  0.97779  0.68346  1.0000
  C   C34       1.0  0.82889  0.52221  0.31653  1.0000
  C   C35       1.0  0.67110  0.47779  0.81653  1.0000
  C   C36       1.0  0.17111  0.02221  0.18347  1.0000
  C   C37       1.0  0.67110  0.02221  0.31653  1.0000
  C   C38       1.0  0.17111  0.47779  0.68346  1.0000
  C   C39       1.0  0.32890  0.52221  0.18346  1.0000
  C   C40       1.0  0.82889  0.97779  0.81654  1.0000
  Br  Br1       1.0  0.91050  0.18925  0.69605  1.0000
  Br  Br2       1.0  0.41050  0.31076  0.30395  1.0000
  Br  Br3       1.0  0.08950  0.68925  0.80395  1.0000
  Br  Br4       1.0  0.58954  0.81076  0.19606  1.0000
  Br  Br5       1.0  0.08950  0.81075  0.30395  1.0000
  Br  Br6       1.0  0.58950  0.68924  0.69605  1.0000
  Br  Br7       1.0  0.91050  0.31076  0.19605  1.0000
  Br  Br8       1.0  0.41050  0.18925  0.80395  1.0000
  N   N1        1.0  0.49648  0.16504  0.54104  1.0000
  N   N2        1.0  0.99648  0.33496  0.45895  1.0000
  N   N3        1.0  0.50352  0.66504  0.95896  1.0000
  N   N4        1.0  0.00352  0.83496  0.04105  1.0000
  N   N5        1.0  0.50352  0.83496  0.45895  1.0000
  N   N6        1.0  0.00353  0.66504  0.54104  1.0000
  N   N7        1.0  0.49648  0.33496  0.04105  1.0000
  N   N8        1.0  0.99647  0.16504  0.95896  1.0000
  N   N9        1.0  0.50726  0.20795  0.48913  1.0000
  N   N10       1.0  0.00726  0.29205  0.51087  1.0000
  N   N11       1.0  0.49274  0.70795  0.01088  1.0000
  N   N12       1.0  0.99273  0.79205  0.98913  1.0000
  N   N13       1.0  0.49274  0.79205  0.51087  1.0000
  N   N14       1.0  0.99274  0.70795  0.48913  1.0000
  N   N15       1.0  0.50726  0.29205  0.98913  1.0000
  N   N16       1.0  0.00726  0.20795  0.01087  1.0000
  N   N17       1.0  0.36788  0.15350  0.45882  1.0000
  N   N18       1.0  0.86788  0.34650  0.54118  1.0000
  N   N19       1.0  0.63212  0.65350  0.04118  1.0000
  N   N20       1.0  0.13212  0.84650  0.95882  1.0000
  N   N21       1.0  0.63213  0.84650  0.54118  1.0000
  N   N22       1.0  0.13212  0.65350  0.45882  1.0000
  N   N23       1.0  0.36788  0.34650  0.95882  1.0000
  N   N24       1.0  0.86788  0.15350  0.04118  1.0000
  N   N25       1.0  0.26567  0.07569  0.48990  1.0000
  N   N26       1.0  0.76567  0.42431  0.51010  1.0000
  N   N27       1.0  0.73433  0.57569  0.01010  1.0000
  N   N28       1.0  0.23433  0.92431  0.98991  1.0000
  N   N29       1.0  0.73433  0.92431  0.51009  1.0000
  N   N30       1.0  0.23433  0.57569  0.48990  1.0000
  N   N31       1.0  0.26567  0.42431  0.98991  1.0000
  N   N32       1.0  0.76567  0.07569  0.01010  1.0000
  N   N33       1.0  0.38399  0.03993  0.63892  1.0000
  N   N34       1.0  0.88400  0.46007  0.36108  1.0000
  N   N35       1.0  0.61600  0.53993  0.86108  1.0000
  N   N36       1.0  0.11601  0.96007  0.13893  1.0000
  N   N37       1.0  0.61600  0.96007  0.36107  1.0000
  N   N38       1.0  0.11601  0.53993  0.63892  1.0000
  N   N39       1.0  0.38400  0.46007  0.13892  1.0000
  N   N40       1.0  0.88399  0.03993  0.86108  1.0000
  N   N41       1.0  0.07958  0.87266  0.63151  1.0000
  N   N42       1.0  0.57957  0.62734  0.36849  1.0000
  N   N43       1.0  0.92042  0.37266  0.86849  1.0000
  N   N44       1.0  0.42042  0.12734  0.13151  1.0000
  N   N45       1.0  0.92042  0.12734  0.36849  1.0000
  N   N46       1.0  0.42043  0.37266  0.63151  1.0000
  N   N47       1.0  0.07958  0.62734  0.13151  1.0000
  N   N48       1.0  0.57957  0.87266  0.86849  1.0000
