data_image0
_chemical_formula_structural       Zn2H34C48N12O4
_chemical_formula_sum              "Zn2 H34 C48 N12 O4"
_cell_length_a       9.44222
_cell_length_b       10.7362
_cell_length_c       12.4526
_cell_angle_alpha    112.502
_cell_angle_beta     95.4721
_cell_angle_gamma    110.723

_space_group_name_H-M_alt    "P 1"
_space_group_IT_number       1

loop_
  _space_group_symop_operation_xyz
  'x, y, z'

loop_
  _atom_site_type_symbol
  _atom_site_label
  _atom_site_symmetry_multiplicity
  _atom_site_fract_x
  _atom_site_fract_y
  _atom_site_fract_z
  _atom_site_occupancy
  Zn  Zn1       1.0  0.62787  0.70225  0.63331  1.0000
  Zn  Zn2       1.0  0.37214  0.29775  0.36669  1.0000
  H   H1        1.0  0.05383  0.61403  0.45210  1.0000
  H   H2        1.0  0.94617  0.38598  0.54790  1.0000
  H   H3        1.0  0.34118  0.79929  0.62025  1.0000
  H   H4        1.0  0.65882  0.20072  0.37976  1.0000
  H   H5        1.0  0.56613  0.18584  0.90569  1.0000
  H   H6        1.0  0.43387  0.81416  0.09431  1.0000
  H   H7        1.0  0.66765  0.23243  0.71632  1.0000
  H   H8        1.0  0.33234  0.76757  0.28368  1.0000
  H   H9        1.0  0.78831  0.16202  0.54004  1.0000
  H   H10       1.0  0.21170  0.83798  0.45996  1.0000
  H   H11       1.0  0.85616  0.05507  0.34504  1.0000
  H   H12       1.0  0.14384  0.94494  0.65497  1.0000
  H   H13       1.0  0.82487  0.79028  0.26123  1.0000
  H   H14       1.0  0.17512  0.20972  0.73877  1.0000
  H   H15       1.0  0.72896  0.64547  0.37752  1.0000
  H   H16       1.0  0.27104  0.35453  0.62248  1.0000
  H   H17       1.0  0.82077  0.72278  0.93384  1.0000
  H   H18       1.0  0.17923  0.27722  0.06616  1.0000
  H   H19       1.0  0.05238  0.72032  0.04145  1.0000
  H   H20       1.0  0.94761  0.27967  0.95854  1.0000
  H   H21       1.0  0.24592  0.57618  0.83681  1.0000
  H   H22       1.0  0.75407  0.42382  0.16319  1.0000
  H   H23       1.0  0.01964  0.57229  0.15820  1.0000
  H   H24       1.0  0.98036  0.42770  0.84179  1.0000
  H   H25       1.0  0.56333  0.92629  0.87180  1.0000
  H   H26       1.0  0.43667  0.07371  0.12820  1.0000
  H   H27       1.0  0.07329  0.99670  0.14577  1.0000
  H   H28       1.0  0.92671  0.00330  0.85423  1.0000
  H   H29       1.0  0.80051  0.93545  0.03752  1.0000
  H   H30       1.0  0.19949  0.06455  0.96248  1.0000
  H   H31       1.0  0.70027  0.13286  0.10457  1.0000
  H   H32       1.0  0.29973  0.86714  0.89543  1.0000
  H   H33       1.0  0.87172  0.37868  0.28049  1.0000
  H   H34       1.0  0.12828  0.62132  0.71951  1.0000
  C   C1        1.0  0.17075  0.45877  0.40221  1.0000
  C   C2        1.0  0.82925  0.54123  0.59779  1.0000
  C   C3        1.0  0.15589  0.59174  0.46493  1.0000
  C   C4        1.0  0.84411  0.40826  0.53507  1.0000
  C   C5        1.0  0.30016  0.68566  0.55130  1.0000
  C   C6        1.0  0.69985  0.31434  0.44871  1.0000
  C   C7        1.0  0.60103  0.11928  0.83212  1.0000
  C   C8        1.0  0.39896  0.88073  0.16788  1.0000
  C   C9        1.0  0.65296  0.13956  0.73645  1.0000
  C   C10       1.0  0.34704  0.86044  0.26355  1.0000
  C   C11       1.0  0.67757  0.01190  0.67126  1.0000
  C   C12       1.0  0.32243  0.98810  0.32874  1.0000
  C   C13       1.0  0.72431  0.95993  0.55950  1.0000
  C   C14       1.0  0.27569  0.04007  0.44050  1.0000
  C   C15       1.0  0.77771  0.04848  0.50089  1.0000
  C   C16       1.0  0.22230  0.95152  0.49912  1.0000
  C   C17       1.0  0.81503  0.98850  0.39278  1.0000
  C   C18       1.0  0.18497  0.01151  0.60722  1.0000
  C   C19       1.0  0.79827  0.84187  0.34597  1.0000
  C   C20       1.0  0.20174  0.15813  0.65404  1.0000
  C   C21       1.0  0.74584  0.76115  0.41061  1.0000
  C   C22       1.0  0.25415  0.23885  0.58939  1.0000
  C   C23       1.0  0.53728  0.68393  0.87191  1.0000
  C   C24       1.0  0.46272  0.31607  0.12809  1.0000
  C   C25       1.0  0.51848  0.58876  0.93757  1.0000
  C   C26       1.0  0.48152  0.41124  0.06243  1.0000
  C   C27       1.0  0.65152  0.58240  0.99264  1.0000
  C   C28       1.0  0.34848  0.41760  0.00736  1.0000
  C   C29       1.0  0.80644  0.66207  0.98789  1.0000
  C   C30       1.0  0.19356  0.33792  0.01211  1.0000
  C   C31       1.0  0.93528  0.65955  0.04678  1.0000
  C   C32       1.0  0.06472  0.34045  0.95322  1.0000
  C   C33       1.0  0.36765  0.50694  0.94300  1.0000
  C   C34       1.0  0.63235  0.49306  0.05699  1.0000
  C   C35       1.0  0.23064  0.50760  0.88421  1.0000
  C   C36       1.0  0.76936  0.49240  0.11579  1.0000
  C   C37       1.0  0.91673  0.57454  0.11265  1.0000
  C   C38       1.0  0.08327  0.42546  0.88735  1.0000
  C   C39       1.0  0.02430  0.07865  0.17156  1.0000
  C   C40       1.0  0.97570  0.92135  0.82844  1.0000
  C   C41       1.0  0.87360  0.04486  0.11128  1.0000
  C   C42       1.0  0.12640  0.95514  0.88872  1.0000
  C   C43       1.0  0.81723  0.15427  0.14929  1.0000
  C   C44       1.0  0.18278  0.84574  0.85071  1.0000
  C   C45       1.0  0.91245  0.29170  0.24601  1.0000
  C   C46       1.0  0.08755  0.70830  0.75399  1.0000
  C   C47       1.0  0.06325  0.31787  0.30166  1.0000
  C   C48       1.0  0.93675  0.68213  0.69834  1.0000
  N   N1        1.0  0.39421  0.61355  0.54050  1.0000
  N   N2        1.0  0.60580  0.38645  0.45950  1.0000
  N   N3        1.0  0.31506  0.47500  0.44991  1.0000
  N   N4        1.0  0.68495  0.52500  0.55009  1.0000
  N   N5        1.0  0.59733  0.98763  0.82169  1.0000
  N   N6        1.0  0.40267  0.01237  0.17831  1.0000
  N   N7        1.0  0.64310  0.92177  0.72538  1.0000
  N   N8        1.0  0.35690  0.07823  0.27462  1.0000
  N   N9        1.0  0.71050  0.81837  0.51493  1.0000
  N   N10       1.0  0.28949  0.18163  0.48506  1.0000
  N   N11       1.0  0.11738  0.21150  0.26392  1.0000
  N   N12       1.0  0.88262  0.78850  0.73608  1.0000
  O   O1        1.0  0.56658  0.63421  0.77099  1.0000
  O   O2        1.0  0.43342  0.36579  0.22901  1.0000
  O   O3        1.0  0.52278  0.80517  0.92443  1.0000
  O   O4        1.0  0.47722  0.19483  0.07557  1.0000
