data_image0
_chemical_formula_structural       Cu4H32C20N8O12
_chemical_formula_sum              "Cu4 H32 C20 N8 O12"
_cell_length_a       8.43535
_cell_length_b       8.70817
_cell_length_c       9.65647
_cell_angle_alpha    89.9999
_cell_angle_beta     90.0004
_cell_angle_gamma    89.9994

_space_group_name_H-M_alt    "P 1"
_space_group_IT_number       1

loop_
  _space_group_symop_operation_xyz
  'x, y, z'

loop_
  _atom_site_type_symbol
  _atom_site_label
  _atom_site_symmetry_multiplicity
  _atom_site_fract_x
  _atom_site_fract_y
  _atom_site_fract_z
  _atom_site_occupancy
  Cu  Cu1       1.0  0.10415  0.06273  0.81684  1.0000
  Cu  Cu2       1.0  0.89583  0.56273  0.68317  1.0000
  Cu  Cu3       1.0  0.39584  0.93726  0.31684  1.0000
  Cu  Cu4       1.0  0.60415  0.43726  0.18317  1.0000
  H   H1        1.0  0.24161  0.32070  0.86305  1.0000
  H   H2        1.0  0.75840  0.82070  0.63696  1.0000
  H   H3        1.0  0.25839  0.67929  0.36305  1.0000
  H   H4        1.0  0.74162  0.17930  0.13695  1.0000
  H   H5        1.0  0.36221  0.16901  0.87584  1.0000
  H   H6        1.0  0.63779  0.66901  0.62416  1.0000
  H   H7        1.0  0.13780  0.83099  0.37584  1.0000
  H   H8        1.0  0.86221  0.33100  0.12416  1.0000
  H   H9        1.0  0.16739  0.31855  0.08669  1.0000
  H   H10       1.0  0.83263  0.81856  0.41332  1.0000
  H   H11       1.0  0.33263  0.68144  0.58669  1.0000
  H   H12       1.0  0.66738  0.18144  0.91331  1.0000
  H   H13       1.0  0.34695  0.21779  0.11281  1.0000
  H   H14       1.0  0.65305  0.71781  0.38718  1.0000
  H   H15       1.0  0.15306  0.78219  0.61281  1.0000
  H   H16       1.0  0.84695  0.28220  0.88719  1.0000
  H   H17       1.0  0.05753  0.77684  0.08526  1.0000
  H   H18       1.0  0.94246  0.27686  0.41473  1.0000
  H   H19       1.0  0.44247  0.22315  0.58525  1.0000
  H   H20       1.0  0.55753  0.72316  0.91473  1.0000
  H   H21       1.0  0.73775  0.93633  0.03398  1.0000
  H   H22       1.0  0.26225  0.43633  0.46601  1.0000
  H   H23       1.0  0.76225  0.06367  0.53398  1.0000
  H   H24       1.0  0.23776  0.56368  0.96603  1.0000
  H   H25       1.0  0.84206  0.93852  0.19528  1.0000
  H   H26       1.0  0.15794  0.43853  0.30471  1.0000
  H   H27       1.0  0.65794  0.06147  0.69529  1.0000
  H   H28       1.0  0.34205  0.56148  0.80472  1.0000
  H   H29       1.0  0.77738  0.76071  0.12448  1.0000
  H   H30       1.0  0.22262  0.26072  0.37552  1.0000
  H   H31       1.0  0.72261  0.23929  0.62449  1.0000
  H   H32       1.0  0.27738  0.73929  0.87552  1.0000
  C   C1        1.0  0.23348  0.21480  0.05701  1.0000
  C   C2        1.0  0.76652  0.71480  0.44299  1.0000
  C   C3        1.0  0.26653  0.78520  0.55701  1.0000
  C   C4        1.0  0.73348  0.28520  0.94299  1.0000
  C   C5        1.0  0.13969  0.07397  0.10554  1.0000
  C   C6        1.0  0.86031  0.57396  0.39446  1.0000
  C   C7        1.0  0.36030  0.92604  0.60556  1.0000
  C   C8        1.0  0.63971  0.42604  0.89445  1.0000
  C   C9        1.0  0.98387  0.85713  0.02468  1.0000
  C   C10       1.0  0.01614  0.35712  0.47533  1.0000
  C   C11       1.0  0.51613  0.14287  0.52466  1.0000
  C   C12       1.0  0.48387  0.64288  0.97533  1.0000
  C   C13       1.0  0.95780  0.78703  0.88125  1.0000
  C   C14       1.0  0.04219  0.28703  0.61876  1.0000
  C   C15       1.0  0.54218  0.21296  0.38124  1.0000
  C   C16       1.0  0.45779  0.71297  0.11875  1.0000
  C   C17       1.0  0.82390  0.87466  0.09868  1.0000
  C   C18       1.0  0.17610  0.37467  0.40131  1.0000
  C   C19       1.0  0.67610  0.12533  0.59869  1.0000
  C   C20       1.0  0.32390  0.62534  0.90132  1.0000
  N   N1        1.0  0.25570  0.21444  0.90567  1.0000
  N   N2        1.0  0.74429  0.71443  0.59433  1.0000
  N   N3        1.0  0.24429  0.78556  0.40568  1.0000
  N   N4        1.0  0.75571  0.28557  0.09433  1.0000
  N   N5        1.0  0.06645  0.00084  0.00327  1.0000
  N   N6        1.0  0.93355  0.50084  0.49674  1.0000
  N   N7        1.0  0.43355  0.99916  0.50326  1.0000
  N   N8        1.0  0.56645  0.49917  0.99673  1.0000
  O   O1        1.0  0.13594  0.03817  0.23243  1.0000
  O   O2        1.0  0.86407  0.53817  0.26758  1.0000
  O   O3        1.0  0.36407  0.96183  0.73242  1.0000
  O   O4        1.0  0.63593  0.46184  0.76757  1.0000
  O   O5        1.0  0.97923  0.87234  0.77421  1.0000
  O   O6        1.0  0.02072  0.37232  0.72579  1.0000
  O   O7        1.0  0.52075  0.12766  0.27421  1.0000
  O   O8        1.0  0.47922  0.62766  0.22579  1.0000
  O   O9        1.0  0.91352  0.64820  0.87288  1.0000
  O   O10       1.0  0.08649  0.14818  0.62712  1.0000
  O   O11       1.0  0.58648  0.35180  0.37287  1.0000
  O   O12       1.0  0.41354  0.85181  0.12712  1.0000
