data_image0
_chemical_formula_structural       In4H80C36S4N4O4
_chemical_formula_sum              "In4 H80 C36 S4 N4 O4"
_cell_length_a       7.8529
_cell_length_b       8.32689
_cell_length_c       18.1539
_cell_angle_alpha    95.3825
_cell_angle_beta     90
_cell_angle_gamma    90

_space_group_name_H-M_alt    "P 1"
_space_group_IT_number       1

loop_
  _space_group_symop_operation_xyz
  'x, y, z'

loop_
  _atom_site_type_symbol
  _atom_site_label
  _atom_site_symmetry_multiplicity
  _atom_site_fract_x
  _atom_site_fract_y
  _atom_site_fract_z
  _atom_site_occupancy
  In  In1       1.0  0.07249  0.94974  0.78382  1.0000
  In  In2       1.0  0.42751  0.94974  0.28382  1.0000
  In  In3       1.0  0.92751  0.05026  0.21618  1.0000
  In  In4       1.0  0.57248  0.05026  0.71618  1.0000
  H   H1        1.0  0.97145  0.65457  0.81961  1.0000
  H   H2        1.0  0.52855  0.65458  0.31961  1.0000
  H   H3        1.0  0.02853  0.34542  0.18038  1.0000
  H   H4        1.0  0.47145  0.34542  0.68039  1.0000
  H   H5        1.0  0.83645  0.72189  0.75154  1.0000
  H   H6        1.0  0.66355  0.72189  0.25154  1.0000
  H   H7        1.0  0.16355  0.27811  0.24846  1.0000
  H   H8        1.0  0.33645  0.27811  0.74846  1.0000
  H   H9        1.0  0.00456  0.47818  0.69731  1.0000
  H   H10       1.0  0.49544  0.47817  0.19732  1.0000
  H   H11       1.0  0.99544  0.52183  0.30268  1.0000
  H   H12       1.0  0.50457  0.52183  0.80268  1.0000
  H   H13       1.0  0.19770  0.57849  0.72183  1.0000
  H   H14       1.0  0.30229  0.57848  0.22183  1.0000
  H   H15       1.0  0.80229  0.42152  0.27817  1.0000
  H   H16       1.0  0.69771  0.42151  0.77817  1.0000
  H   H17       1.0  0.06547  0.65188  0.65382  1.0000
  H   H18       1.0  0.43452  0.65188  0.15382  1.0000
  H   H19       1.0  0.93452  0.34812  0.34618  1.0000
  H   H20       1.0  0.56548  0.34812  0.84618  1.0000
  H   H21       1.0  0.06852  0.11446  0.91917  1.0000
  H   H22       1.0  0.43148  0.11446  0.41917  1.0000
  H   H23       1.0  0.93149  0.88555  0.08083  1.0000
  H   H24       1.0  0.56851  0.88554  0.58083  1.0000
  H   H25       1.0  0.25535  0.16278  0.87129  1.0000
  H   H26       1.0  0.24465  0.16278  0.37129  1.0000
  H   H27       1.0  0.74466  0.83721  0.12871  1.0000
  H   H28       1.0  0.75534  0.83722  0.62871  1.0000
  H   H29       1.0  0.06115  0.40867  0.89545  1.0000
  H   H30       1.0  0.43884  0.40867  0.39545  1.0000
  H   H31       1.0  0.93886  0.59133  0.10455  1.0000
  H   H32       1.0  0.56114  0.59133  0.60455  1.0000
  H   H33       1.0  0.89677  0.30313  0.84490  1.0000
  H   H34       1.0  0.60322  0.30313  0.34490  1.0000
  H   H35       1.0  0.10323  0.69687  0.15510  1.0000
  H   H36       1.0  0.39676  0.69687  0.65510  1.0000
  H   H37       1.0  0.08447  0.35458  0.79931  1.0000
  H   H38       1.0  0.41552  0.35458  0.29931  1.0000
  H   H39       1.0  0.91554  0.64541  0.20068  1.0000
  H   H40       1.0  0.58447  0.64541  0.70068  1.0000
  H   H41       1.0  0.99757  0.21462  0.47802  1.0000
  H   H42       1.0  0.50242  0.21461  0.97801  1.0000
  H   H43       1.0  0.00243  0.78539  0.52199  1.0000
  H   H44       1.0  0.49757  0.78539  0.02199  1.0000
  H   H45       1.0  0.14468  0.09598  0.52249  1.0000
  H   H46       1.0  0.35532  0.09598  0.02249  1.0000
  H   H47       1.0  0.85532  0.90402  0.47751  1.0000
  H   H48       1.0  0.64468  0.90402  0.97751  1.0000
  H   H49       1.0  0.27866  0.35467  0.49304  1.0000
  H   H50       1.0  0.22135  0.35466  0.99304  1.0000
  H   H51       1.0  0.72135  0.64533  0.50697  1.0000
  H   H52       1.0  0.77866  0.64534  0.00697  1.0000
  H   H53       1.0  0.27113  0.34342  0.59056  1.0000
  H   H54       1.0  0.22887  0.34341  0.09056  1.0000
  H   H55       1.0  0.72888  0.65658  0.40944  1.0000
  H   H56       1.0  0.77112  0.65659  0.90945  1.0000
  H   H57       1.0  0.12457  0.46762  0.54771  1.0000
  H   H58       1.0  0.37543  0.46761  0.04770  1.0000
  H   H59       1.0  0.87544  0.53238  0.45230  1.0000
  H   H60       1.0  0.62456  0.53238  0.95230  1.0000
  H   H61       1.0  0.84783  0.42554  0.57562  1.0000
  H   H62       1.0  0.65217  0.42553  0.07562  1.0000
  H   H63       1.0  0.15217  0.57446  0.42438  1.0000
  H   H64       1.0  0.34783  0.57447  0.92438  1.0000
  H   H65       1.0  0.75367  0.32416  0.64625  1.0000
  H   H66       1.0  0.74632  0.32415  0.14625  1.0000
  H   H67       1.0  0.24632  0.67585  0.35375  1.0000
  H   H68       1.0  0.25369  0.67585  0.85375  1.0000
  H   H69       1.0  0.56245  0.33026  0.53485  1.0000
  H   H70       1.0  0.93755  0.33025  0.03485  1.0000
  H   H71       1.0  0.43756  0.66974  0.46514  1.0000
  H   H72       1.0  0.06245  0.66974  0.96514  1.0000
  H   H73       1.0  0.61260  0.12871  0.55116  1.0000
  H   H74       1.0  0.88740  0.12871  0.05117  1.0000
  H   H75       1.0  0.38741  0.87129  0.44883  1.0000
  H   H76       1.0  0.11259  0.87129  0.94883  1.0000
  H   H77       1.0  0.71576  0.22033  0.47874  1.0000
  H   H78       1.0  0.78424  0.22032  0.97874  1.0000
  H   H79       1.0  0.28425  0.77968  0.52125  1.0000
  H   H80       1.0  0.21575  0.77967  0.02125  1.0000
  C   C1        1.0  0.98529  0.11615  0.64864  1.0000
  C   C2        1.0  0.51471  0.11615  0.14864  1.0000
  C   C3        1.0  0.01471  0.88386  0.35136  1.0000
  C   C4        1.0  0.48531  0.88385  0.85136  1.0000
  C   C5        1.0  0.97071  0.70589  0.76601  1.0000
  C   C6        1.0  0.52929  0.70588  0.26601  1.0000
  C   C7        1.0  0.02928  0.29410  0.23399  1.0000
  C   C8        1.0  0.47071  0.29411  0.73399  1.0000
  C   C9        1.0  0.06408  0.59804  0.70690  1.0000
  C   C10       1.0  0.43591  0.59804  0.20690  1.0000
  C   C11       1.0  0.93591  0.40196  0.29310  1.0000
  C   C12       1.0  0.56409  0.40196  0.79310  1.0000
  C   C13       1.0  0.11605  0.15296  0.86663  1.0000
  C   C14       1.0  0.38394  0.15296  0.36663  1.0000
  C   C15       1.0  0.88395  0.84704  0.13337  1.0000
  C   C16       1.0  0.61605  0.84704  0.63337  1.0000
  C   C17       1.0  0.03557  0.31247  0.85075  1.0000
  C   C18       1.0  0.46443  0.31247  0.35075  1.0000
  C   C19       1.0  0.96444  0.68753  0.14925  1.0000
  C   C20       1.0  0.53556  0.68753  0.64925  1.0000
  C   C21       1.0  0.07277  0.20930  0.52888  1.0000
  C   C22       1.0  0.42723  0.20930  0.02888  1.0000
  C   C23       1.0  0.92724  0.79070  0.47113  1.0000
  C   C24       1.0  0.57277  0.79070  0.97113  1.0000
  C   C25       1.0  0.19358  0.35253  0.54085  1.0000
  C   C26       1.0  0.30642  0.35252  0.04085  1.0000
  C   C27       1.0  0.80643  0.64748  0.45915  1.0000
  C   C28       1.0  0.69358  0.64748  0.95915  1.0000
  C   C29       1.0  0.80362  0.30691  0.58976  1.0000
  C   C30       1.0  0.69639  0.30690  0.08976  1.0000
  C   C31       1.0  0.19639  0.69310  0.41024  1.0000
  C   C32       1.0  0.30362  0.69310  0.91024  1.0000
  C   C33       1.0  0.66644  0.24234  0.53541  1.0000
  C   C34       1.0  0.83356  0.24233  0.03541  1.0000
  C   C35       1.0  0.33357  0.75767  0.46458  1.0000
  C   C36       1.0  0.16644  0.75766  0.96458  1.0000
  S   S1        1.0  0.17102  0.00128  0.64969  1.0000
  S   S2        1.0  0.32898  0.00127  0.14968  1.0000
  S   S3        1.0  0.82898  0.99873  0.35032  1.0000
  S   S4        1.0  0.67103  0.99872  0.85032  1.0000
  N   N1        1.0  0.95289  0.20133  0.59027  1.0000
  N   N2        1.0  0.54712  0.20132  0.09027  1.0000
  N   N3        1.0  0.04712  0.79868  0.40973  1.0000
  N   N4        1.0  0.45289  0.79868  0.90973  1.0000
  O   O1        1.0  0.88184  0.11815  0.70338  1.0000
  O   O2        1.0  0.61816  0.11815  0.20338  1.0000
  O   O3        1.0  0.11816  0.88186  0.29662  1.0000
  O   O4        1.0  0.38185  0.88185  0.79662  1.0000
