data_image0
_chemical_formula_structural       CdH52C52N10O6
_chemical_formula_sum              "Cd1 H52 C52 N10 O6"
_cell_length_a       9.05125
_cell_length_b       9.53983
_cell_length_c       15.163
_cell_angle_alpha    95.8016
_cell_angle_beta     100.802
_cell_angle_gamma    115.964

_space_group_name_H-M_alt    "P 1"
_space_group_IT_number       1

loop_
  _space_group_symop_operation_xyz
  'x, y, z'

loop_
  _atom_site_type_symbol
  _atom_site_label
  _atom_site_symmetry_multiplicity
  _atom_site_fract_x
  _atom_site_fract_y
  _atom_site_fract_z
  _atom_site_occupancy
  Cd  Cd1       1.0  0.99999  0.99999  1.00000  1.0000
  H   H1        1.0  0.51617  0.88584  0.13846  1.0000
  H   H2        1.0  0.48381  0.11413  0.86153  1.0000
  H   H3        1.0  0.17728  0.77251  0.49440  1.0000
  H   H4        1.0  0.82273  0.22750  0.50561  1.0000
  H   H5        1.0  0.40824  0.19388  0.04005  1.0000
  H   H6        1.0  0.59175  0.80611  0.95995  1.0000
  H   H7        1.0  0.64271  0.47054  0.09089  1.0000
  H   H8        1.0  0.35728  0.52945  0.90911  1.0000
  H   H9        1.0  0.29496  0.60601  0.18770  1.0000
  H   H10       1.0  0.70503  0.39398  0.81228  1.0000
  H   H11       1.0  0.07305  0.31882  0.13524  1.0000
  H   H12       1.0  0.92694  0.68118  0.86474  1.0000
  H   H13       1.0  0.72660  0.74806  0.22672  1.0000
  H   H14       1.0  0.27340  0.25193  0.77327  1.0000
  H   H15       1.0  0.68204  0.76381  0.11165  1.0000
  H   H16       1.0  0.31795  0.23617  0.88834  1.0000
  H   H17       1.0  0.47538  0.16368  0.39786  1.0000
  H   H18       1.0  0.52462  0.83633  0.60214  1.0000
  H   H19       1.0  0.57665  0.79139  0.48654  1.0000
  H   H20       1.0  0.42334  0.20860  0.51345  1.0000
  H   H21       1.0  0.60491  0.71703  0.33685  1.0000
  H   H22       1.0  0.39510  0.28297  0.66315  1.0000
  H   H23       1.0  0.61502  0.15256  0.19484  1.0000
  H   H24       1.0  0.38497  0.84742  0.80514  1.0000
  H   H25       1.0  0.52189  0.23668  0.26234  1.0000
  H   H26       1.0  0.47813  0.76332  0.73765  1.0000
  H   H27       1.0  0.39233  0.06328  0.17477  1.0000
  H   H28       1.0  0.60766  0.93671  0.82523  1.0000
  H   H29       1.0  0.08045  0.07612  0.22069  1.0000
  H   H30       1.0  0.91956  0.92389  0.77932  1.0000
  H   H31       1.0  0.11880  0.95894  0.35835  1.0000
  H   H32       1.0  0.88122  0.04107  0.64165  1.0000
  H   H33       1.0  0.99101  0.52585  0.17163  1.0000
  H   H34       1.0  0.00900  0.47415  0.82837  1.0000
  H   H35       1.0  0.96152  0.66006  0.04310  1.0000
  H   H36       1.0  0.03845  0.33994  0.95690  1.0000
  H   H37       1.0  0.03399  0.52837  0.33269  1.0000
  H   H38       1.0  0.96603  0.47165  0.66732  1.0000
  H   H39       1.0  0.24001  0.69183  0.36933  1.0000
  H   H40       1.0  0.76000  0.30819  0.63068  1.0000
  H   H41       1.0  0.72930  0.65153  0.63143  1.0000
  H   H42       1.0  0.27072  0.34851  0.36858  1.0000
  H   H43       1.0  0.49607  0.41904  0.34646  1.0000
  H   H44       1.0  0.50393  0.58097  0.65355  1.0000
  H   H45       1.0  0.77469  0.51657  0.31740  1.0000
  H   H46       1.0  0.22532  0.48344  0.68262  1.0000
  H   H47       1.0  0.02272  0.79024  0.69024  1.0000
  H   H48       1.0  0.97730  0.20979  0.30977  1.0000
  H   H49       1.0  0.12476  0.90434  0.61392  1.0000
  H   H50       1.0  0.87525  0.09567  0.38609  1.0000
  H   H51       1.0  0.14396  0.73230  0.63044  1.0000
  H   H52       1.0  0.85606  0.26772  0.36957  1.0000
  C   C1        1.0  0.38787  0.28872  0.07294  1.0000
  C   C2        1.0  0.61212  0.71127  0.92706  1.0000
  C   C3        1.0  0.51862  0.44430  0.10207  1.0000
  C   C4        1.0  0.48138  0.55569  0.89794  1.0000
  C   C5        1.0  0.48729  0.56340  0.14298  1.0000
  C   C6        1.0  0.51270  0.43659  0.85702  1.0000
  C   C7        1.0  0.32516  0.51754  0.15619  1.0000
  C   C8        1.0  0.67482  0.48245  0.84379  1.0000
  C   C9        1.0  0.20151  0.35913  0.12669  1.0000
  C   C10       1.0  0.79848  0.64087  0.87331  1.0000
  C   C11       1.0  0.62382  0.73572  0.16927  1.0000
  C   C12       1.0  0.37617  0.26427  0.83073  1.0000
  C   C13       1.0  0.55276  0.89411  0.27788  1.0000
  C   C14       1.0  0.44724  0.10589  0.72211  1.0000
  C   C15       1.0  0.51971  0.02470  0.29827  1.0000
  C   C16       1.0  0.48028  0.97529  0.70173  1.0000
  C   C17       1.0  0.50011  0.06250  0.38480  1.0000
  C   C18       1.0  0.49989  0.93750  0.61519  1.0000
  C   C19       1.0  0.51464  0.98004  0.45530  1.0000
  C   C20       1.0  0.48537  0.01996  0.54469  1.0000
  C   C21       1.0  0.55813  0.85804  0.43522  1.0000
  C   C22       1.0  0.44187  0.14195  0.56477  1.0000
  C   C23       1.0  0.57489  0.81483  0.34874  1.0000
  C   C24       1.0  0.42511  0.18517  0.65126  1.0000
  C   C25       1.0  0.51158  0.12416  0.22920  1.0000
  C   C26       1.0  0.48842  0.87583  0.77079  1.0000
  C   C27       1.0  0.06426  0.95496  0.21309  1.0000
  C   C28       1.0  0.93573  0.04504  0.78691  1.0000
  C   C29       1.0  0.08542  0.88936  0.28946  1.0000
  C   C30       1.0  0.91460  0.11065  0.71054  1.0000
  C   C31       1.0  0.06536  0.73400  0.27672  1.0000
  C   C32       1.0  0.93465  0.26601  0.72328  1.0000
  C   C33       1.0  0.01722  0.64994  0.18641  1.0000
  C   C34       1.0  0.98279  0.35006  0.81360  1.0000
  C   C35       1.0  0.99863  0.72408  0.11386  1.0000
  C   C36       1.0  0.00136  0.27592  0.88615  1.0000
  C   C37       1.0  0.10386  0.65923  0.35560  1.0000
  C   C38       1.0  0.89615  0.34078  0.64441  1.0000
  C   C39       1.0  0.91528  0.64669  0.45697  1.0000
  C   C40       1.0  0.08473  0.35333  0.54304  1.0000
  C   C41       1.0  0.89812  0.68202  0.54683  1.0000
  C   C42       1.0  0.10190  0.31800  0.45319  1.0000
  C   C43       1.0  0.73629  0.62204  0.56137  1.0000
  C   C44       1.0  0.26373  0.37800  0.43864  1.0000
  C   C45       1.0  0.58506  0.52757  0.49136  1.0000
  C   C46       1.0  0.41497  0.47246  0.50866  1.0000
  C   C47       1.0  0.60669  0.49099  0.40411  1.0000
  C   C48       1.0  0.39333  0.50902  0.59590  1.0000
  C   C49       1.0  0.76659  0.54775  0.38687  1.0000
  C   C50       1.0  0.23342  0.45226  0.61315  1.0000
  C   C51       1.0  0.05405  0.78200  0.62404  1.0000
  C   C52       1.0  0.94597  0.21803  0.37597  1.0000
  N   N1        1.0  0.23053  0.24611  0.08393  1.0000
  N   N2        1.0  0.76947  0.75388  0.91606  1.0000
  N   N3        1.0  0.56977  0.85257  0.19210  1.0000
  N   N4        1.0  0.43023  0.14743  0.80790  1.0000
  N   N5        1.0  0.02317  0.87511  0.12628  1.0000
  N   N6        1.0  0.97682  0.12489  0.87372  1.0000
  N   N7        1.0  0.07402  0.70918  0.44040  1.0000
  N   N8        1.0  0.92599  0.29084  0.55960  1.0000
  N   N9        1.0  0.75133  0.15546  0.03789  1.0000
  N   N10       1.0  0.24862  0.84451  0.96209  1.0000
  O   O1        1.0  0.83395  0.08671  0.07690  1.0000
  O   O2        1.0  0.16605  0.91330  0.92309  1.0000
  O   O3        1.0  0.77721  0.28866  0.07892  1.0000
  O   O4        1.0  0.22275  0.71132  0.92103  1.0000
  O   O5        1.0  0.64752  0.08668  0.96068  1.0000
  O   O6        1.0  0.35239  0.91322  0.03932  1.0000
