data_image0
_chemical_formula_structural       Mn4H28C24N8O26
_chemical_formula_sum              "Mn4 H28 C24 N8 O26"
_cell_length_a       7.15386
_cell_length_b       10.37
_cell_length_c       13.406
_cell_angle_alpha    102.555
_cell_angle_beta     100.912
_cell_angle_gamma    102.295

_space_group_name_H-M_alt    "P 1"
_space_group_IT_number       1

loop_
  _space_group_symop_operation_xyz
  'x, y, z'

loop_
  _atom_site_type_symbol
  _atom_site_label
  _atom_site_symmetry_multiplicity
  _atom_site_fract_x
  _atom_site_fract_y
  _atom_site_fract_z
  _atom_site_occupancy
  Mn  Mn1       1.0  0.21317  0.99413  0.80427  1.0000
  Mn  Mn2       1.0  0.78683  0.00587  0.19574  1.0000
  Mn  Mn3       1.0  0.83224  0.48735  0.69194  1.0000
  Mn  Mn4       1.0  0.16777  0.51265  0.30806  1.0000
  H   H1        1.0  0.39442  0.80811  0.72352  1.0000
  H   H2        1.0  0.60557  0.19189  0.27648  1.0000
  H   H3        1.0  0.41864  0.79368  0.84230  1.0000
  H   H4        1.0  0.58135  0.20632  0.15770  1.0000
  H   H5        1.0  0.87869  0.92730  0.89155  1.0000
  H   H6        1.0  0.12117  0.07262  0.10834  1.0000
  H   H7        1.0  0.97517  0.79888  0.87074  1.0000
  H   H8        1.0  0.02485  0.20113  0.12927  1.0000
  H   H9        1.0  0.89415  0.74491  0.63513  1.0000
  H   H10       1.0  0.10585  0.25509  0.36487  1.0000
  H   H11       1.0  0.67767  0.69948  0.64689  1.0000
  H   H12       1.0  0.32232  0.30051  0.35310  1.0000
  H   H13       1.0  0.56718  0.58883  0.81150  1.0000
  H   H14       1.0  0.43282  0.41117  0.18850  1.0000
  H   H15       1.0  0.41246  0.50420  0.70629  1.0000
  H   H16       1.0  0.58754  0.49580  0.29371  1.0000
  H   H17       1.0  0.16239  0.56057  0.59191  1.0000
  H   H18       1.0  0.83761  0.43943  0.40808  1.0000
  H   H19       1.0  0.19477  0.64471  0.70922  1.0000
  H   H20       1.0  0.80523  0.35529  0.29077  1.0000
  H   H21       1.0  0.95276  0.19329  0.69374  1.0000
  H   H22       1.0  0.04725  0.80671  0.30626  1.0000
  H   H23       1.0  0.33481  0.49077  0.03815  1.0000
  H   H24       1.0  0.66520  0.50923  0.96185  1.0000
  H   H25       1.0  0.62381  0.24828  0.80902  1.0000
  H   H26       1.0  0.37620  0.75172  0.19098  1.0000
  H   H27       1.0  0.28643  0.05725  0.43656  1.0000
  H   H28       1.0  0.71358  0.94275  0.56345  1.0000
  C   C1        1.0  0.03336  0.25823  0.77236  1.0000
  C   C2        1.0  0.96664  0.74177  0.22764  1.0000
  C   C3        1.0  0.12407  0.46929  0.89295  1.0000
  C   C4        1.0  0.87593  0.53071  0.10705  1.0000
  C   C5        1.0  0.24920  0.42323  0.96177  1.0000
  C   C6        1.0  0.75081  0.57677  0.03822  1.0000
  C   C7        1.0  0.25313  0.28731  0.93000  1.0000
  C   C8        1.0  0.74688  0.71269  0.06999  1.0000
  C   C9        1.0  0.09462  0.61212  0.92376  1.0000
  C   C10       1.0  0.90539  0.38788  0.07625  1.0000
  C   C11       1.0  0.37849  0.22103  0.99580  1.0000
  C   C12       1.0  0.62153  0.77898  0.00420  1.0000
  C   C13       1.0  0.54797  0.20560  0.72545  1.0000
  C   C14       1.0  0.45203  0.79440  0.27456  1.0000
  C   C15       1.0  0.29877  0.04280  0.59642  1.0000
  C   C16       1.0  0.70123  0.95720  0.40358  1.0000
  C   C17       1.0  0.36203  0.09880  0.51951  1.0000
  C   C18       1.0  0.63797  0.90120  0.48050  1.0000
  C   C19       1.0  0.52408  0.21279  0.55369  1.0000
  C   C20       1.0  0.47592  0.78722  0.44632  1.0000
  C   C21       1.0  0.11999  0.92101  0.56790  1.0000
  C   C22       1.0  0.88002  0.07899  0.43210  1.0000
  C   C23       1.0  0.60630  0.28018  0.47647  1.0000
  C   C24       1.0  0.39370  0.71982  0.52354  1.0000
  N   N1        1.0  0.14296  0.20438  0.83555  1.0000
  N   N2        1.0  0.85704  0.79562  0.16445  1.0000
  N   N3        1.0  0.01839  0.38713  0.79794  1.0000
  N   N4        1.0  0.98161  0.61287  0.20206  1.0000
  N   N5        1.0  0.61591  0.26697  0.65633  1.0000
  N   N6        1.0  0.38409  0.73303  0.34368  1.0000
  N   N7        1.0  0.39359  0.09506  0.69922  1.0000
  N   N8        1.0  0.60641  0.90494  0.30078  1.0000
  O   O1        1.0  0.33073  0.81802  0.78454  1.0000
  O   O2        1.0  0.66927  0.18198  0.21546  1.0000
  O   O3        1.0  0.99438  0.90045  0.87613  1.0000
  O   O4        1.0  0.00563  0.09957  0.12390  1.0000
  O   O5        1.0  0.79217  0.66418  0.63766  1.0000
  O   O6        1.0  0.20783  0.33582  0.36234  1.0000
  O   O7        1.0  0.54503  0.51145  0.74809  1.0000
  O   O8        1.0  0.45496  0.48855  0.25192  1.0000
  O   O9        1.0  0.14446  0.55004  0.66196  1.0000
  O   O10       1.0  0.85553  0.44996  0.33803  1.0000
  O   O11       1.0  0.18103  0.68695  0.01375  1.0000
  O   O12       1.0  0.81898  0.31305  0.98626  1.0000
  O   O13       1.0  0.97387  0.64001  0.85169  1.0000
  O   O14       1.0  0.02616  0.35999  0.14831  1.0000
  O   O15       1.0  0.40489  0.10906  0.94907  1.0000
  O   O16       1.0  0.59511  0.89094  0.05094  1.0000
  O   O17       1.0  0.44823  0.28075  0.09329  1.0000
  O   O18       1.0  0.55179  0.71926  0.90670  1.0000
  O   O19       1.0  0.04722  0.90008  0.64618  1.0000
  O   O20       1.0  0.95278  0.09992  0.35382  1.0000
  O   O21       1.0  0.05645  0.85214  0.47441  1.0000
  O   O22       1.0  0.94355  0.14786  0.52559  1.0000
  O   O23       1.0  0.74695  0.38829  0.51382  1.0000
  O   O24       1.0  0.25305  0.61172  0.48618  1.0000
  O   O25       1.0  0.52437  0.22113  0.37971  1.0000
  O   O26       1.0  0.47564  0.77887  0.62030  1.0000
