data_image0
_chemical_formula_structural       Nd4H36C20S4N4O36
_chemical_formula_sum              "Nd4 H36 C20 S4 N4 O36"
_cell_length_a       6.34811
_cell_length_b       10.383
_cell_length_c       17.0715
_cell_angle_alpha    74.0426
_cell_angle_beta     79.2835
_cell_angle_gamma    72.1996

_space_group_name_H-M_alt    "P 1"
_space_group_IT_number       1

loop_
  _space_group_symop_operation_xyz
  'x, y, z'

loop_
  _atom_site_type_symbol
  _atom_site_label
  _atom_site_symmetry_multiplicity
  _atom_site_fract_x
  _atom_site_fract_y
  _atom_site_fract_z
  _atom_site_occupancy
  Nd  Nd1       1.0  0.82445  0.56963  0.75164  1.0000
  Nd  Nd2       1.0  0.14564  0.93029  0.74838  1.0000
  Nd  Nd3       1.0  0.17555  0.43037  0.24836  1.0000
  Nd  Nd4       1.0  0.85436  0.06971  0.25162  1.0000
  H   H1        1.0  0.43309  0.84977  0.48804  1.0000
  H   H2        1.0  0.77068  0.65020  0.01179  1.0000
  H   H3        1.0  0.56690  0.15023  0.51196  1.0000
  H   H4        1.0  0.22932  0.34980  0.98821  1.0000
  H   H5        1.0  0.67401  0.77210  0.42735  1.0000
  H   H6        1.0  0.87324  0.72767  0.07261  1.0000
  H   H7        1.0  0.32599  0.22790  0.57265  1.0000
  H   H8        1.0  0.12675  0.27233  0.92739  1.0000
  H   H9        1.0  0.82287  0.50053  0.55675  1.0000
  H   H10       1.0  0.88014  0.99937  0.94317  1.0000
  H   H11       1.0  0.17713  0.49947  0.44325  1.0000
  H   H12       1.0  0.11987  0.00063  0.05683  1.0000
  H   H13       1.0  0.79636  0.51924  0.45051  1.0000
  H   H14       1.0  0.76626  0.98070  0.04942  1.0000
  H   H15       1.0  0.20364  0.48076  0.54949  1.0000
  H   H16       1.0  0.23374  0.01930  0.95058  1.0000
  H   H17       1.0  0.20885  0.71776  0.46390  1.0000
  H   H18       1.0  0.39034  0.78226  0.03616  1.0000
  H   H19       1.0  0.79115  0.28223  0.53610  1.0000
  H   H20       1.0  0.60966  0.21774  0.96383  1.0000
  H   H21       1.0  0.43857  0.64566  0.39691  1.0000
  H   H22       1.0  0.48122  0.85434  0.10312  1.0000
  H   H23       1.0  0.56143  0.35434  0.60309  1.0000
  H   H24       1.0  0.51878  0.14566  0.89688  1.0000
  H   H25       1.0  0.43248  0.62280  0.57474  1.0000
  H   H26       1.0  0.62974  0.87718  0.92524  1.0000
  H   H27       1.0  0.56752  0.37720  0.42526  1.0000
  H   H28       1.0  0.37026  0.12282  0.07476  1.0000
  H   H29       1.0  0.71476  0.48642  0.93849  1.0000
  H   H30       1.0  0.13981  0.01344  0.56154  1.0000
  H   H31       1.0  0.28524  0.51358  0.06151  1.0000
  H   H32       1.0  0.86019  0.98656  0.43846  1.0000
  H   H33       1.0  0.49513  0.60458  0.91154  1.0000
  H   H34       1.0  0.01120  0.89540  0.58844  1.0000
  H   H35       1.0  0.50487  0.39542  0.08846  1.0000
  H   H36       1.0  0.98880  0.10461  0.41156  1.0000
  C   C1        1.0  0.73184  0.77212  0.54837  1.0000
  C   C2        1.0  0.05221  0.72783  0.95158  1.0000
  C   C3        1.0  0.26816  0.22788  0.45163  1.0000
  C   C4        1.0  0.94779  0.27217  0.04842  1.0000
  C   C5        1.0  0.58535  0.76330  0.48938  1.0000
  C   C6        1.0  0.83786  0.73660  0.01054  1.0000
  C   C7        1.0  0.41466  0.23670  0.51062  1.0000
  C   C8        1.0  0.16214  0.26340  0.98946  1.0000
  C   C9        1.0  0.71261  0.50418  0.51351  1.0000
  C   C10       1.0  0.73032  0.99579  0.98643  1.0000
  C   C11       1.0  0.28739  0.49582  0.48649  1.0000
  C   C12       1.0  0.26968  0.00421  0.01357  1.0000
  C   C13       1.0  0.35699  0.62996  0.46017  1.0000
  C   C14       1.0  0.44707  0.87004  0.03988  1.0000
  C   C15       1.0  0.64301  0.37004  0.53983  1.0000
  C   C16       1.0  0.55293  0.12996  0.96012  1.0000
  C   C17       1.0  0.00310  0.22985  0.79740  1.0000
  C   C18       1.0  0.03003  0.26998  0.70262  1.0000
  C   C19       1.0  0.99689  0.77015  0.20260  1.0000
  C   C20       1.0  0.96997  0.73002  0.29738  1.0000
  S   S1        1.0  0.33140  0.56758  0.74261  1.0000
  S   S2        1.0  0.64135  0.93244  0.75742  1.0000
  S   S3        1.0  0.66860  0.43242  0.25739  1.0000
  S   S4        1.0  0.35865  0.06756  0.24258  1.0000
  N   N1        1.0  0.51646  0.63007  0.51501  1.0000
  N   N2        1.0  0.66142  0.86989  0.98496  1.0000
  N   N3        1.0  0.48354  0.36993  0.48499  1.0000
  N   N4        1.0  0.33858  0.13011  0.01504  1.0000
  O   O1        1.0  0.83360  0.86562  0.52561  1.0000
  O   O2        1.0  0.22485  0.63448  0.97437  1.0000
  O   O3        1.0  0.16640  0.13438  0.47439  1.0000
  O   O4        1.0  0.77515  0.36552  0.02563  1.0000
  O   O5        1.0  0.74018  0.68309  0.61608  1.0000
  O   O6        1.0  0.03917  0.81680  0.88386  1.0000
  O   O7        1.0  0.25982  0.31691  0.38392  1.0000
  O   O8        1.0  0.96083  0.18321  0.11614  1.0000
  O   O9        1.0  0.91861  0.32690  0.83421  1.0000
  O   O10       1.0  0.07874  0.17301  0.66579  1.0000
  O   O11       1.0  0.08139  0.67310  0.16579  1.0000
  O   O12       1.0  0.92126  0.82699  0.33421  1.0000
  O   O13       1.0  0.07188  0.10177  0.83130  1.0000
  O   O14       1.0  0.00465  0.39807  0.66873  1.0000
  O   O15       1.0  0.92812  0.89823  0.16870  1.0000
  O   O16       1.0  0.99535  0.60193  0.33127  1.0000
  O   O17       1.0  0.16896  0.52590  0.81234  1.0000
  O   O18       1.0  0.50694  0.97450  0.68765  1.0000
  O   O19       1.0  0.83104  0.47410  0.18766  1.0000
  O   O20       1.0  0.49306  0.02550  0.31235  1.0000
  O   O21       1.0  0.22224  0.60821  0.66597  1.0000
  O   O22       1.0  0.49610  0.89160  0.83399  1.0000
  O   O23       1.0  0.77775  0.39179  0.33403  1.0000
  O   O24       1.0  0.50390  0.10840  0.16601  1.0000
  O   O25       1.0  0.39634  0.68995  0.75342  1.0000
  O   O26       1.0  0.83937  0.81009  0.74650  1.0000
  O   O27       1.0  0.60366  0.31005  0.24658  1.0000
  O   O28       1.0  0.16063  0.18991  0.25350  1.0000
  O   O29       1.0  0.54121  0.45562  0.73871  1.0000
  O   O30       1.0  0.73541  0.04421  0.76157  1.0000
  O   O31       1.0  0.45879  0.54438  0.26129  1.0000
  O   O32       1.0  0.26459  0.95579  0.23843  1.0000
  O   O33       1.0  0.65591  0.56852  0.89393  1.0000
  O   O34       1.0  0.11845  0.93131  0.60607  1.0000
  O   O35       1.0  0.34409  0.43148  0.10607  1.0000
  O   O36       1.0  0.88154  0.06869  0.39393  1.0000
