data_image0
_chemical_formula_structural       V2Cu2P2H28C32N6O12F2
_chemical_formula_sum              "V2 Cu2 P2 H28 C32 N6 O12 F2"
_cell_length_a       8.54538
_cell_length_b       11.3472
_cell_length_c       11.3324
_cell_angle_alpha    120.043
_cell_angle_beta     109.468
_cell_angle_gamma    89.9998

_space_group_name_H-M_alt    "P 1"
_space_group_IT_number       1

loop_
  _space_group_symop_operation_xyz
  'x, y, z'

loop_
  _atom_site_type_symbol
  _atom_site_label
  _atom_site_symmetry_multiplicity
  _atom_site_fract_x
  _atom_site_fract_y
  _atom_site_fract_z
  _atom_site_occupancy
  V   V1        1.0  0.48523  0.87039  0.52071  1.0000
  V   V2        1.0  0.51478  0.34968  0.47929  1.0000
  Cu  Cu1       1.0  0.87452  0.02299  0.26874  1.0000
  Cu  Cu2       1.0  0.12547  0.75424  0.73125  1.0000
  P   P1        1.0  0.28422  0.06292  0.39946  1.0000
  P   P2        1.0  0.71578  0.66346  0.60055  1.0000
  H   H1        1.0  0.73046  0.02498  0.46036  1.0000
  H   H2        1.0  0.26953  0.56461  0.53963  1.0000
  H   H3        1.0  0.75843  0.18302  0.50744  1.0000
  H   H4        1.0  0.24157  0.67558  0.49256  1.0000
  H   H5        1.0  0.06454  0.85391  0.39484  1.0000
  H   H6        1.0  0.93545  0.45906  0.60515  1.0000
  H   H7        1.0  0.96270  0.65170  0.40358  1.0000
  H   H8        1.0  0.03730  0.24812  0.59642  1.0000
  H   H9        1.0  0.65490  0.53751  0.26663  1.0000
  H   H10       1.0  0.34510  0.27089  0.73338  1.0000
  H   H11       1.0  0.46626  0.61249  0.10507  1.0000
  H   H12       1.0  0.53373  0.50742  0.89493  1.0000
  H   H13       1.0  0.58723  0.17210  0.91894  1.0000
  H   H14       1.0  0.41276  0.25316  0.08107  1.0000
  H   H15       1.0  0.81859  0.37152  0.01865  1.0000
  H   H16       1.0  0.18141  0.35287  0.98135  1.0000
  H   H17       1.0  0.07439  0.43863  0.25005  1.0000
  H   H18       1.0  0.92562  0.18858  0.74995  1.0000
  H   H19       1.0  0.09148  0.29432  0.36174  1.0000
  H   H20       1.0  0.90851  0.93258  0.63825  1.0000
  H   H21       1.0  0.29389  0.03845  0.18258  1.0000
  H   H22       1.0  0.70612  0.85586  0.81742  1.0000
  H   H23       1.0  0.40798  0.92736  0.23062  1.0000
  H   H24       1.0  0.59203  0.69673  0.76938  1.0000
  H   H25       1.0  0.24152  0.70915  0.18247  1.0000
  H   H26       1.0  0.75851  0.52668  0.81755  1.0000
  H   H27       1.0  0.00002  0.50967  0.00001  1.0000
  H   H28       1.0  0.00000  0.94682  1.00000  1.0000
  C   C1        1.0  0.93403  0.79528  0.32984  1.0000
  C   C2        1.0  0.06597  0.46544  0.67015  1.0000
  C   C3        1.0  0.87612  0.68316  0.33448  1.0000
  C   C4        1.0  0.12388  0.34867  0.66552  1.0000
  C   C5        1.0  0.70589  0.61783  0.25563  1.0000
  C   C6        1.0  0.29411  0.36220  0.74438  1.0000
  C   C7        1.0  0.60071  0.65901  0.16546  1.0000
  C   C8        1.0  0.39928  0.49355  0.83454  1.0000
  C   C9        1.0  0.66943  0.76439  0.15648  1.0000
  C   C10       1.0  0.33057  0.60791  0.84351  1.0000
  C   C11       1.0  0.57623  0.81638  0.06369  1.0000
  C   C12       1.0  0.42376  0.75269  0.93631  1.0000
  C   C13       1.0  0.58590  0.01915  0.04986  1.0000
  C   C14       1.0  0.41409  0.96929  0.95013  1.0000
  C   C15       1.0  0.70967  0.13957  0.09728  1.0000
  C   C16       1.0  0.29032  0.04228  0.90271  1.0000
  C   C17       1.0  0.69504  0.20849  0.02207  1.0000
  C   C18       1.0  0.30496  0.18641  0.97793  1.0000
  C   C19       1.0  0.82725  0.31664  0.07600  1.0000
  C   C20       1.0  0.17275  0.24064  0.92400  1.0000
  C   C21       1.0  0.96983  0.35288  0.20186  1.0000
  C   C22       1.0  0.03018  0.15103  0.79814  1.0000
  C   C23       1.0  0.97954  0.27534  0.26754  1.0000
  C   C24       1.0  0.02046  0.00780  0.73245  1.0000
  C   C25       1.0  0.28655  0.96186  0.21400  1.0000
  C   C26       1.0  0.71346  0.74786  0.78601  1.0000
  C   C27       1.0  0.13967  0.84126  0.10233  1.0000
  C   C28       1.0  0.86034  0.73894  0.89768  1.0000
  C   C29       1.0  0.13791  0.71680  0.10063  1.0000
  C   C30       1.0  0.86211  0.61618  0.89938  1.0000
  C   C31       1.0  0.00001  0.60583  0.00001  1.0000
  C   C32       1.0  0.00001  0.85045  0.00000  1.0000
  N   N1        1.0  0.83252  0.83510  0.24380  1.0000
  N   N2        1.0  0.16747  0.59130  0.75619  1.0000
  N   N3        1.0  0.65213  0.94318  0.10740  1.0000
  N   N4        1.0  0.34786  0.83577  0.89259  1.0000
  N   N5        1.0  0.85327  0.17093  0.21533  1.0000
  N   N6        1.0  0.14672  0.95560  0.78466  1.0000
  O   O1        1.0  0.79873  0.09543  0.45841  1.0000
  O   O2        1.0  0.20126  0.63702  0.54158  1.0000
  O   O3        1.0  0.11021  0.10293  0.38639  1.0000
  O   O4        1.0  0.88978  0.71654  0.61361  1.0000
  O   O5        1.0  0.31501  0.97662  0.47210  1.0000
  O   O6        1.0  0.68500  0.50452  0.52790  1.0000
  O   O7        1.0  0.61933  0.91343  0.46553  1.0000
  O   O8        1.0  0.38067  0.44790  0.53447  1.0000
  O   O9        1.0  0.42520  0.19320  0.48778  1.0000
  O   O10       1.0  0.57480  0.70543  0.51224  1.0000
  O   O11       1.0  0.54718  0.96774  0.70024  1.0000
  O   O12       1.0  0.45283  0.26750  0.29977  1.0000
  F   F1        1.0  0.28424  0.72697  0.39644  1.0000
  F   F2        1.0  0.71577  0.33052  0.60356  1.0000
