data_image0
_chemical_formula_structural       Zn2P4H36C36N4O12
_chemical_formula_sum              "Zn2 P4 H36 C36 N4 O12"
_cell_length_a       8.3361
_cell_length_b       10.4946
_cell_length_c       11.441
_cell_angle_alpha    94.8097
_cell_angle_beta     93.5102
_cell_angle_gamma    109.808

_space_group_name_H-M_alt    "P 1"
_space_group_IT_number       1

loop_
  _space_group_symop_operation_xyz
  'x, y, z'

loop_
  _atom_site_type_symbol
  _atom_site_label
  _atom_site_symmetry_multiplicity
  _atom_site_fract_x
  _atom_site_fract_y
  _atom_site_fract_z
  _atom_site_occupancy
  Zn  Zn1       1.0  0.07017  0.35415  0.37984  1.0000
  Zn  Zn2       1.0  0.92983  0.64585  0.62017  1.0000
  P   P1        1.0  0.77115  0.51842  0.37204  1.0000
  P   P2        1.0  0.22885  0.48159  0.62796  1.0000
  P   P3        1.0  0.81681  0.46585  0.84962  1.0000
  P   P4        1.0  0.18319  0.53415  0.15038  1.0000
  H   H1        1.0  0.91270  0.60795  0.22379  1.0000
  H   H2        1.0  0.08730  0.39206  0.77621  1.0000
  H   H3        1.0  0.93135  0.58723  0.02389  1.0000
  H   H4        1.0  0.06864  0.41277  0.97611  1.0000
  H   H5        1.0  0.24077  0.27712  0.16959  1.0000
  H   H6        1.0  0.75923  0.72288  0.83041  1.0000
  H   H7        1.0  0.23473  0.06710  0.04872  1.0000
  H   H8        1.0  0.76527  0.93290  0.95129  1.0000
  H   H9        1.0  0.03255  0.83899  0.09578  1.0000
  H   H10       1.0  0.96746  0.16101  0.90422  1.0000
  H   H11       1.0  0.86137  0.83434  0.26491  1.0000
  H   H12       1.0  0.13864  0.16566  0.73510  1.0000
  H   H13       1.0  0.74828  0.84153  0.41995  1.0000
  H   H14       1.0  0.25172  0.15847  0.58005  1.0000
  H   H15       1.0  0.59677  0.87229  0.59376  1.0000
  H   H16       1.0  0.40322  0.12770  0.40624  1.0000
  H   H17       1.0  0.63324  0.10827  0.68254  1.0000
  H   H18       1.0  0.36675  0.89172  0.31746  1.0000
  H   H19       1.0  0.82593  0.30825  0.59126  1.0000
  H   H20       1.0  0.17407  0.69174  0.40875  1.0000
  H   H21       1.0  0.51633  0.33169  0.38223  1.0000
  H   H22       1.0  0.48367  0.66831  0.61777  1.0000
  H   H23       1.0  0.47558  0.44969  0.29455  1.0000
  H   H24       1.0  0.52443  0.55032  0.70545  1.0000
  H   H25       1.0  0.62994  0.15705  0.29922  1.0000
  H   H26       1.0  0.37006  0.84295  0.70078  1.0000
  H   H27       1.0  0.55569  0.45187  0.08279  1.0000
  H   H28       1.0  0.44431  0.54813  0.91721  1.0000
  H   H29       1.0  0.68030  0.02700  0.12266  1.0000
  H   H30       1.0  0.31970  0.97300  0.87734  1.0000
  H   H31       1.0  0.58346  0.25668  0.80103  1.0000
  H   H32       1.0  0.41655  0.74332  0.19897  1.0000
  H   H33       1.0  0.51351  0.38688  0.86096  1.0000
  H   H34       1.0  0.48648  0.61312  0.13904  1.0000
  H   H35       1.0  0.66842  0.10989  0.92580  1.0000
  H   H36       1.0  0.33158  0.89011  0.07420  1.0000
  C   C1        1.0  0.15999  0.17729  0.18870  1.0000
  C   C2        1.0  0.84001  0.82271  0.81130  1.0000
  C   C3        1.0  0.15348  0.05895  0.12063  1.0000
  C   C4        1.0  0.84652  0.94106  0.87937  1.0000
  C   C5        1.0  0.04251  0.93418  0.14697  1.0000
  C   C6        1.0  0.95749  0.06583  0.85304  1.0000
  C   C7        1.0  0.94493  0.93185  0.24196  1.0000
  C   C8        1.0  0.05508  0.06815  0.75805  1.0000
  C   C9        1.0  0.96069  0.05438  0.30802  1.0000
  C   C10       1.0  0.03931  0.94562  0.69199  1.0000
  C   C11       1.0  0.86587  0.06041  0.41234  1.0000
  C   C12       1.0  0.13413  0.93958  0.58766  1.0000
  C   C13       1.0  0.76136  0.94381  0.45776  1.0000
  C   C14       1.0  0.23864  0.05618  0.54224  1.0000
  C   C15       1.0  0.67737  0.96111  0.55606  1.0000
  C   C16       1.0  0.32263  0.03888  0.44394  1.0000
  C   C17       1.0  0.69821  0.09222  0.60598  1.0000
  C   C18       1.0  0.30179  0.90777  0.39402  1.0000
  C   C19       1.0  0.80495  0.20324  0.55618  1.0000
  C   C20       1.0  0.19505  0.79676  0.44383  1.0000
  C   C21       1.0  0.56479  0.39508  0.31156  1.0000
  C   C22       1.0  0.43522  0.60493  0.68844  1.0000
  C   C23       1.0  0.58621  0.31262  0.20335  1.0000
  C   C24       1.0  0.41380  0.68739  0.79665  1.0000
  C   C25       1.0  0.62268  0.19258  0.21295  1.0000
  C   C26       1.0  0.37733  0.80742  0.78705  1.0000
  C   C27       1.0  0.58099  0.35772  0.09186  1.0000
  C   C28       1.0  0.41901  0.64228  0.90814  1.0000
  C   C29       1.0  0.65298  0.12053  0.11390  1.0000
  C   C30       1.0  0.34703  0.87947  0.88610  1.0000
  C   C31       1.0  0.61125  0.33927  0.87326  1.0000
  C   C32       1.0  0.38875  0.66073  0.12674  1.0000
  C   C33       1.0  0.61086  0.28624  0.99129  1.0000
  C   C34       1.0  0.38914  0.71376  0.00871  1.0000
  C   C35       1.0  0.64715  0.16703  0.00361  1.0000
  C   C36       1.0  0.35285  0.83297  0.99639  1.0000
  N   N1        1.0  0.06572  0.17535  0.27965  1.0000
  N   N2        1.0  0.93429  0.82465  0.72035  1.0000
  N   N3        1.0  0.88701  0.18677  0.46221  1.0000
  N   N4        1.0  0.11298  0.81323  0.53780  1.0000
  O   O1        1.0  0.74793  0.59608  0.48506  1.0000
  O   O2        1.0  0.25207  0.40392  0.51494  1.0000
  O   O3        1.0  0.78950  0.51543  0.73180  1.0000
  O   O4        1.0  0.21050  0.48457  0.26820  1.0000
  O   O5        1.0  0.89719  0.44449  0.38436  1.0000
  O   O6        1.0  0.10282  0.55552  0.61564  1.0000
  O   O7        1.0  0.82398  0.62349  0.27610  1.0000
  O   O8        1.0  0.17602  0.37652  0.72390  1.0000
  O   O9        1.0  0.95545  0.40065  0.86239  1.0000
  O   O10       1.0  0.04455  0.59935  0.13761  1.0000
  O   O11       1.0  0.85189  0.58697  0.95137  1.0000
  O   O12       1.0  0.14811  0.41302  0.04863  1.0000
