data_image0
_chemical_formula_structural       Cd2H32C28S4N8
_chemical_formula_sum              "Cd2 H32 C28 S4 N8"
_cell_length_a       8.93088
_cell_length_b       10.2664
_cell_length_c       11.0258
_cell_angle_alpha    114.229
_cell_angle_beta     109.24
_cell_angle_gamma    98.7342

_space_group_name_H-M_alt    "P 1"
_space_group_IT_number       1

loop_
  _space_group_symop_operation_xyz
  'x, y, z'

loop_
  _atom_site_type_symbol
  _atom_site_label
  _atom_site_symmetry_multiplicity
  _atom_site_fract_x
  _atom_site_fract_y
  _atom_site_fract_z
  _atom_site_occupancy
  Cd  Cd1       1.0  0.12683  0.25100  0.95760  1.0000
  Cd  Cd2       1.0  0.87316  0.74898  0.04240  1.0000
  H   H1        1.0  0.93820  0.23004  0.62805  1.0000
  H   H2        1.0  0.06180  0.76996  0.37195  1.0000
  H   H3        1.0  0.98909  0.17772  0.40383  1.0000
  H   H4        1.0  0.01091  0.82229  0.59617  1.0000
  H   H5        1.0  0.26007  0.13893  0.40690  1.0000
  H   H6        1.0  0.73992  0.86108  0.59310  1.0000
  H   H7        1.0  0.47178  0.15604  0.63574  1.0000
  H   H8        1.0  0.52821  0.84396  0.36426  1.0000
  H   H9        1.0  0.55160  0.19388  0.88395  1.0000
  H   H10       1.0  0.44840  0.80613  0.11605  1.0000
  H   H11       1.0  0.63592  0.22504  0.10717  1.0000
  H   H12       1.0  0.36408  0.77496  0.89283  1.0000
  H   H13       1.0  0.40639  0.02527  0.07832  1.0000
  H   H14       1.0  0.59361  0.97473  0.92168  1.0000
  H   H15       1.0  0.34084  0.16583  0.18400  1.0000
  H   H16       1.0  0.65916  0.83417  0.81600  1.0000
  H   H17       1.0  0.52086  0.08099  0.34135  1.0000
  H   H18       1.0  0.47914  0.91902  0.65866  1.0000
  H   H19       1.0  0.68527  0.12538  0.29452  1.0000
  H   H20       1.0  0.31473  0.87463  0.70549  1.0000
  H   H21       1.0  0.74181  0.33453  0.54066  1.0000
  H   H22       1.0  0.25820  0.66547  0.45934  1.0000
  H   H23       1.0  0.54378  0.35262  0.46549  1.0000
  H   H24       1.0  0.45622  0.64739  0.53451  1.0000
  H   H25       1.0  0.83377  0.41198  0.38264  1.0000
  H   H26       1.0  0.16623  0.58802  0.61736  1.0000
  H   H27       1.0  0.76462  0.54967  0.48759  1.0000
  H   H28       1.0  0.23538  0.45033  0.51241  1.0000
  H   H29       1.0  0.48585  0.44701  0.27100  1.0000
  H   H30       1.0  0.51415  0.55299  0.72900  1.0000
  H   H31       1.0  0.64948  0.49249  0.22288  1.0000
  H   H32       1.0  0.35052  0.50750  0.77711  1.0000
  C   C1        1.0  0.31267  0.20013  0.74834  1.0000
  C   C2        1.0  0.68733  0.79987  0.25166  1.0000
  C   C3        1.0  0.05473  0.21325  0.62424  1.0000
  C   C4        1.0  0.94527  0.78675  0.37576  1.0000
  C   C5        1.0  0.08355  0.18409  0.50024  1.0000
  C   C6        1.0  0.91645  0.81592  0.49977  1.0000
  C   C7        1.0  0.23436  0.16207  0.50237  1.0000
  C   C8        1.0  0.76563  0.83794  0.49763  1.0000
  C   C9        1.0  0.35128  0.17085  0.62845  1.0000
  C   C10       1.0  0.64872  0.82915  0.37155  1.0000
  C   C11       1.0  0.43308  0.21116  0.88389  1.0000
  C   C12       1.0  0.56691  0.78884  0.11612  1.0000
  C   C13       1.0  0.52840  0.25233  0.12809  1.0000
  C   C14       1.0  0.47160  0.74767  0.87191  1.0000
  C   C15       1.0  0.45202  0.14203  0.16976  1.0000
  C   C16       1.0  0.54798  0.85797  0.83024  1.0000
  C   C17       1.0  0.57971  0.15941  0.31284  1.0000
  C   C18       1.0  0.42029  0.84060  0.68716  1.0000
  C   C19       1.0  0.64727  0.32277  0.43940  1.0000
  C   C20       1.0  0.35273  0.67724  0.56060  1.0000
  C   C21       1.0  0.72156  0.43284  0.39730  1.0000
  C   C22       1.0  0.27844  0.56716  0.60269  1.0000
  C   C23       1.0  0.59366  0.41634  0.25490  1.0000
  C   C24       1.0  0.40634  0.58366  0.74509  1.0000
  C   C25       1.0  0.99965  0.13570  0.15832  1.0000
  C   C26       1.0  0.00034  0.86429  0.84168  1.0000
  C   C27       1.0  0.79036  0.36571  0.87772  1.0000
  C   C28       1.0  0.20965  0.63427  0.12228  1.0000
  S   S1        1.0  0.79303  0.19365  0.79190  1.0000
  S   S2        1.0  0.20696  0.80632  0.20810  1.0000
  S   S3        1.0  0.07192  0.31048  0.19571  1.0000
  S   S4        1.0  0.92807  0.68950  0.80429  1.0000
  N   N1        1.0  0.16567  0.22011  0.74460  1.0000
  N   N2        1.0  0.83433  0.77989  0.25540  1.0000
  N   N3        1.0  0.40235  0.23931  0.99593  1.0000
  N   N4        1.0  0.59765  0.76068  0.00406  1.0000
  N   N5        1.0  0.78248  0.48764  0.94000  1.0000
  N   N6        1.0  0.21753  0.51234  0.06002  1.0000
  N   N7        1.0  0.94850  0.01134  0.13666  1.0000
  N   N8        1.0  0.05150  0.98865  0.86335  1.0000
