data_image0
_chemical_formula_structural       CuH26C32N6O12
_chemical_formula_sum              "Cu1 H26 C32 N6 O12"
_cell_length_a       8.11125
_cell_length_b       9.73458
_cell_length_c       11.4937
_cell_angle_alpha    63.854
_cell_angle_beta     87.3912
_cell_angle_gamma    73.3779

_space_group_name_H-M_alt    "P 1"
_space_group_IT_number       1

loop_
  _space_group_symop_operation_xyz
  'x, y, z'

loop_
  _atom_site_type_symbol
  _atom_site_label
  _atom_site_symmetry_multiplicity
  _atom_site_fract_x
  _atom_site_fract_y
  _atom_site_fract_z
  _atom_site_occupancy
  Cu  Cu1       1.0  1.00000  0.50000  0.50000  1.0000
  H   H1        1.0  0.28487  0.58389  0.45862  1.0000
  H   H2        1.0  0.71512  0.41611  0.54138  1.0000
  H   H3        1.0  0.41227  0.40590  0.53430  1.0000
  H   H4        1.0  0.58772  0.59410  0.46570  1.0000
  H   H5        1.0  0.85119  0.47256  0.09518  1.0000
  H   H6        1.0  0.14879  0.52744  0.90482  1.0000
  H   H7        1.0  0.45360  0.27988  0.86571  1.0000
  H   H8        1.0  0.54640  0.72012  0.13429  1.0000
  H   H9        1.0  0.76346  0.64193  0.88717  1.0000
  H   H10       1.0  0.23653  0.35807  0.11282  1.0000
  H   H11       1.0  0.75447  0.02992  0.86223  1.0000
  H   H12       1.0  0.24554  0.97008  0.13778  1.0000
  H   H13       1.0  0.25063  0.17360  0.59896  1.0000
  H   H14       1.0  0.74937  0.82640  0.40103  1.0000
  H   H15       1.0  0.43104  0.52534  0.68049  1.0000
  H   H16       1.0  0.56897  0.47465  0.31951  1.0000
  H   H17       1.0  0.32061  0.94847  0.53657  1.0000
  H   H18       1.0  0.67938  0.05152  0.46343  1.0000
  H   H19       1.0  0.87532  0.46024  0.28906  1.0000
  H   H20       1.0  0.12469  0.53976  0.71093  1.0000
  H   H21       1.0  0.13971  0.97559  0.35087  1.0000
  H   H22       1.0  0.86029  0.02441  0.64913  1.0000
  H   H23       1.0  0.64104  0.19275  0.05525  1.0000
  H   H24       1.0  0.35895  0.80725  0.94475  1.0000
  H   H25       1.0  0.57991  0.72260  0.68492  1.0000
  H   H26       1.0  0.42009  0.27740  0.31507  1.0000
  C   C1        1.0  0.95964  0.12375  0.87163  1.0000
  C   C2        1.0  0.04036  0.87626  0.12838  1.0000
  C   C3        1.0  0.69862  0.56184  0.87987  1.0000
  C   C4        1.0  0.30138  0.43816  0.12013  1.0000
  C   C5        1.0  0.86291  0.01544  0.92361  1.0000
  C   C6        1.0  0.13709  0.98457  0.07639  1.0000
  C   C7        1.0  0.99113  0.21949  0.30624  1.0000
  C   C8        1.0  0.00887  0.78051  0.69376  1.0000
  C   C9        1.0  0.20384  0.22408  0.91006  1.0000
  C   C10       1.0  0.79616  0.77592  0.08995  1.0000
  C   C11       1.0  0.71811  0.41169  0.98751  1.0000
  C   C12       1.0  0.28189  0.58831  0.01249  1.0000
  C   C13       1.0  0.18467  0.18460  0.51332  1.0000
  C   C14       1.0  0.81532  0.81540  0.48668  1.0000
  C   C15       1.0  0.91326  0.24860  0.73245  1.0000
  C   C16       1.0  0.08674  0.75140  0.26756  1.0000
  C   C17       1.0  0.09850  0.10838  0.94990  1.0000
  C   C18       1.0  0.90151  0.89162  0.05011  1.0000
  C   C19       1.0  0.51320  0.50183  0.76397  1.0000
  C   C20       1.0  0.48679  0.49817  0.23602  1.0000
  C   C21       1.0  0.22046  0.05944  0.47865  1.0000
  C   C22       1.0  0.77955  0.94056  0.52135  1.0000
  C   C23       1.0  0.96955  0.34326  0.34150  1.0000
  C   C24       1.0  0.03045  0.65674  0.65849  1.0000
  C   C25       1.0  0.12052  0.07471  0.37599  1.0000
  C   C26       1.0  0.87947  0.92529  0.62401  1.0000
  C   C27       1.0  0.63207  0.31069  0.97724  1.0000
  C   C28       1.0  0.36793  0.68932  0.02277  1.0000
  C   C29       1.0  0.87141  0.23010  0.20482  1.0000
  C   C30       1.0  0.12859  0.76989  0.79517  1.0000
  C   C31       1.0  0.59600  0.60650  0.76824  1.0000
  C   C32       1.0  0.40400  0.39349  0.23176  1.0000
  N   N1        1.0  0.06211  0.32408  0.44475  1.0000
  N   N2        1.0  0.93788  0.67593  0.55524  1.0000
  N   N3        1.0  0.81909  0.37489  0.09756  1.0000
  N   N4        1.0  0.18091  0.62511  0.90243  1.0000
  N   N5        1.0  0.53363  0.35922  0.86754  1.0000
  N   N6        1.0  0.46638  0.64078  0.13246  1.0000
  O   O1        1.0  0.01023  0.34094  0.68610  1.0000
  O   O2        1.0  0.98977  0.65906  0.31391  1.0000
  O   O3        1.0  0.78489  0.25427  0.66976  1.0000
  O   O4        1.0  0.21512  0.74572  0.33025  1.0000
  O   O5        1.0  0.82648  0.11161  0.22204  1.0000
  O   O6        1.0  0.17355  0.88839  0.77794  1.0000
  O   O7        1.0  0.35161  0.18385  0.87084  1.0000
  O   O8        1.0  0.64839  0.81615  0.12917  1.0000
  O   O9        1.0  0.14120  0.34653  0.92936  1.0000
  O   O10       1.0  0.85880  0.65348  0.07065  1.0000
  O   O11       1.0  0.31503  0.48361  0.54527  1.0000
  O   O12       1.0  0.68496  0.51639  0.45473  1.0000
