data_image0
_chemical_formula_structural       Cu3H28C42N6O20
_chemical_formula_sum              "Cu3 H28 C42 N6 O20"
_cell_length_a       6.61858
_cell_length_b       10.8438
_cell_length_c       14.2342
_cell_angle_alpha    103.793
_cell_angle_beta     98.6554
_cell_angle_gamma    91.5085

_space_group_name_H-M_alt    "P 1"
_space_group_IT_number       1

loop_
  _space_group_symop_operation_xyz
  'x, y, z'

loop_
  _atom_site_type_symbol
  _atom_site_label
  _atom_site_symmetry_multiplicity
  _atom_site_fract_x
  _atom_site_fract_y
  _atom_site_fract_z
  _atom_site_occupancy
  Cu  Cu1       1.0  0.46195  0.70726  0.28917  1.0000
  Cu  Cu2       1.0  0.53790  0.29266  0.71078  1.0000
  Cu  Cu3       1.0  0.00005  0.99998  0.50007  1.0000
  H   H1        1.0  0.86810  0.88428  0.02676  1.0000
  H   H2        1.0  0.13177  0.11563  0.97322  1.0000
  H   H3        1.0  0.90133  0.62856  0.25647  1.0000
  H   H4        1.0  0.09874  0.37146  0.74358  1.0000
  H   H5        1.0  0.90699  0.77555  0.29025  1.0000
  H   H6        1.0  0.09306  0.22447  0.70979  1.0000
  H   H7        1.0  0.15645  0.62960  0.80689  1.0000
  H   H8        1.0  0.84351  0.37038  0.19309  1.0000
  H   H9        1.0  0.15624  0.51863  0.92841  1.0000
  H   H10       1.0  0.84364  0.48135  0.07158  1.0000
  H   H11       1.0  0.77799  0.98897  0.83154  1.0000
  H   H12       1.0  0.22191  0.01100  0.16847  1.0000
  H   H13       1.0  0.24318  0.51877  0.10318  1.0000
  H   H14       1.0  0.75669  0.48121  0.89681  1.0000
  H   H15       1.0  0.16636  0.54325  0.48896  1.0000
  H   H16       1.0  0.83380  0.45680  0.51102  1.0000
  H   H17       1.0  0.45427  0.89712  0.00088  1.0000
  H   H18       1.0  0.54566  0.10284  0.99911  1.0000
  H   H19       1.0  0.65247  0.60282  0.55951  1.0000
  H   H20       1.0  0.34773  0.39719  0.44043  1.0000
  H   H21       1.0  0.18501  0.97524  0.69842  1.0000
  H   H22       1.0  0.81494  0.02474  0.30164  1.0000
  H   H23       1.0  0.07896  0.73033  0.42161  1.0000
  H   H24       1.0  0.92119  0.26974  0.57841  1.0000
  H   H25       1.0  0.54005  0.87878  0.17049  1.0000
  H   H26       1.0  0.45982  0.12121  0.82950  1.0000
  H   H27       1.0  0.25883  0.57374  0.67052  1.0000
  H   H28       1.0  0.74128  0.42623  0.32946  1.0000
  C   C1        1.0  0.23844  0.60175  0.98002  1.0000
  C   C2        1.0  0.76146  0.39822  0.01995  1.0000
  C   C3        1.0  0.75805  0.90390  0.77146  1.0000
  C   C4        1.0  0.24190  0.09609  0.22853  1.0000
  C   C5        1.0  0.28680  0.60117  0.07816  1.0000
  C   C6        1.0  0.71306  0.39880  0.92182  1.0000
  C   C7        1.0  0.16859  0.63668  0.53863  1.0000
  C   C8        1.0  0.83152  0.36336  0.46137  1.0000
  C   C9        1.0  0.73284  0.67425  0.71618  1.0000
  C   C10       1.0  0.26727  0.32574  0.28378  1.0000
  C   C11       1.0  0.64986  0.81030  0.49151  1.0000
  C   C12       1.0  0.35010  0.18982  0.50849  1.0000
  C   C13       1.0  0.72862  0.05256  0.66707  1.0000
  C   C14       1.0  0.27151  0.94745  0.33295  1.0000
  C   C15       1.0  0.68725  0.80620  0.59764  1.0000
  C   C16       1.0  0.31294  0.19380  0.40233  1.0000
  C   C17       1.0  0.40535  0.81127  0.01966  1.0000
  C   C18       1.0  0.59457  0.18870  0.98033  1.0000
  C   C19       1.0  0.68781  0.68714  0.62006  1.0000
  C   C20       1.0  0.31229  0.31286  0.37991  1.0000
  C   C21       1.0  0.22065  0.77745  0.69926  1.0000
  C   C22       1.0  0.77939  0.22252  0.30075  1.0000
  C   C23       1.0  0.17958  0.87790  0.65462  1.0000
  C   C24       1.0  0.82042  0.12210  0.34541  1.0000
  C   C25       1.0  0.12134  0.74044  0.49996  1.0000
  C   C26       1.0  0.87875  0.25959  0.50005  1.0000
  C   C27       1.0  0.76661  0.78508  0.79331  1.0000
  C   C28       1.0  0.23341  0.21490  0.20666  1.0000
  C   C29       1.0  0.80337  0.77805  0.89728  1.0000
  C   C30       1.0  0.19657  0.22190  0.10269  1.0000
  C   C31       1.0  0.45229  0.80129  0.11550  1.0000
  C   C32       1.0  0.54762  0.19869  0.88449  1.0000
  C   C33       1.0  0.26748  0.80989  0.80861  1.0000
  C   C34       1.0  0.73253  0.19008  0.19139  1.0000
  C   C35       1.0  0.21788  0.65413  0.63955  1.0000
  C   C36       1.0  0.78223  0.34587  0.36045  1.0000
  C   C37       1.0  0.75110  0.54161  0.73184  1.0000
  C   C38       1.0  0.24902  0.45838  0.26813  1.0000
  C   C39       1.0  0.72428  0.91637  0.67518  1.0000
  C   C40       1.0  0.27578  0.08363  0.32480  1.0000
  C   C41       1.0  0.29450  0.70961  0.94895  1.0000
  C   C42       1.0  0.70543  0.29036  0.05104  1.0000
  N   N1        1.0  0.39057  0.69989  0.14593  1.0000
  N   N2        1.0  0.60931  0.30008  0.85405  1.0000
  N   N3        1.0  0.24224  0.70930  0.85049  1.0000
  N   N4        1.0  0.75774  0.29066  0.14950  1.0000
  N   N5        1.0  0.12695  0.85936  0.55725  1.0000
  N   N6        1.0  0.87313  0.14067  0.44279  1.0000
  O   O1        1.0  0.52932  0.72109  0.43354  1.0000
  O   O2        1.0  0.47018  0.27918  0.56652  1.0000
  O   O3        1.0  0.78648  0.68069  0.92563  1.0000
  O   O4        1.0  0.21335  0.31926  0.07434  1.0000
  O   O5        1.0  0.58032  0.47932  0.72393  1.0000
  O   O6        1.0  0.41982  0.52066  0.27607  1.0000
  O   O7        1.0  0.88987  0.10317  0.65140  1.0000
  O   O8        1.0  0.11030  0.89686  0.34868  1.0000
  O   O9        1.0  0.73586  0.89772  0.46307  1.0000
  O   O10       1.0  0.26399  0.10244  0.53694  1.0000
  O   O11       1.0  0.56608  0.10666  0.68618  1.0000
  O   O12       1.0  0.43404  0.89337  0.31381  1.0000
  O   O13       1.0  0.85610  0.89363  0.95940  1.0000
  O   O14       1.0  0.14383  0.10629  0.04059  1.0000
  O   O15       1.0  0.32279  0.92011  0.85597  1.0000
  O   O16       1.0  0.67725  0.07985  0.14405  1.0000
  O   O17       1.0  0.92906  0.50314  0.74593  1.0000
  O   O18       1.0  0.07107  0.49688  0.25409  1.0000
  O   O19       1.0  0.81162  0.70012  0.26216  1.0000
  O   O20       1.0  0.18842  0.29989  0.73792  1.0000
