data_image0
_chemical_formula_structural       Na4B4H72C28N8O12
_chemical_formula_sum              "Na4 B4 H72 C28 N8 O12"
_cell_length_a       7.31852
_cell_length_b       10.3464
_cell_length_c       15.1232
_cell_angle_alpha    90
_cell_angle_beta     90
_cell_angle_gamma    105.381

_space_group_name_H-M_alt    "P 1"
_space_group_IT_number       1

loop_
  _space_group_symop_operation_xyz
  'x, y, z'

loop_
  _atom_site_type_symbol
  _atom_site_label
  _atom_site_symmetry_multiplicity
  _atom_site_fract_x
  _atom_site_fract_y
  _atom_site_fract_z
  _atom_site_occupancy
  Na  Na1       1.0  0.74730  0.53017  0.50905  1.0000
  Na  Na2       1.0  0.74730  0.03017  0.99095  1.0000
  Na  Na3       1.0  0.25270  0.46983  0.49095  1.0000
  Na  Na4       1.0  0.25270  0.96983  0.00905  1.0000
  B   B1        1.0  0.60902  0.38783  0.83210  1.0000
  B   B2        1.0  0.60902  0.88784  0.66791  1.0000
  B   B3        1.0  0.39098  0.61216  0.16790  1.0000
  B   B4        1.0  0.39098  0.11217  0.33210  1.0000
  H   H1        1.0  0.54151  0.45268  0.88421  1.0000
  H   H2        1.0  0.54151  0.95268  0.61579  1.0000
  H   H3        1.0  0.45849  0.54732  0.11579  1.0000
  H   H4        1.0  0.45849  0.04732  0.38421  1.0000
  H   H5        1.0  0.50518  0.72880  0.38265  1.0000
  H   H6        1.0  0.50519  0.22881  0.11735  1.0000
  H   H7        1.0  0.49481  0.27119  0.61735  1.0000
  H   H8        1.0  0.49482  0.77119  0.88265  1.0000
  H   H9        1.0  0.82425  0.88866  0.50118  1.0000
  H   H10       1.0  0.82425  0.38866  0.99882  1.0000
  H   H11       1.0  0.17575  0.11134  0.49882  1.0000
  H   H12       1.0  0.17575  0.61134  0.00118  1.0000
  H   H13       1.0  0.48843  0.85354  0.46069  1.0000
  H   H14       1.0  0.48843  0.35354  0.03931  1.0000
  H   H15       1.0  0.51157  0.14646  0.53931  1.0000
  H   H16       1.0  0.51157  0.64646  0.96069  1.0000
  H   H17       1.0  0.16810  0.74903  0.39985  1.0000
  H   H18       1.0  0.16810  0.24903  0.10015  1.0000
  H   H19       1.0  0.83189  0.25097  0.60015  1.0000
  H   H20       1.0  0.83189  0.75098  0.89985  1.0000
  H   H21       1.0  0.03244  0.57932  0.30952  1.0000
  H   H22       1.0  0.03243  0.07931  0.19048  1.0000
  H   H23       1.0  0.96756  0.42068  0.69049  1.0000
  H   H24       1.0  0.96757  0.92069  0.80952  1.0000
  H   H25       1.0  0.72999  0.73413  0.29123  1.0000
  H   H26       1.0  0.72999  0.23413  0.20877  1.0000
  H   H27       1.0  0.27001  0.26586  0.70877  1.0000
  H   H28       1.0  0.27001  0.76587  0.79123  1.0000
  H   H29       1.0  0.01429  0.81902  0.57659  1.0000
  H   H30       1.0  0.01429  0.31901  0.92341  1.0000
  H   H31       1.0  0.98571  0.18099  0.42341  1.0000
  H   H32       1.0  0.98570  0.68099  0.07659  1.0000
  H   H33       1.0  0.25561  0.82584  0.55564  1.0000
  H   H34       1.0  0.25561  0.32584  0.94436  1.0000
  H   H35       1.0  0.74438  0.17416  0.44436  1.0000
  H   H36       1.0  0.74438  0.67416  0.05564  1.0000
  H   H37       1.0  0.14166  0.91035  0.42325  1.0000
  H   H38       1.0  0.14167  0.41035  0.07675  1.0000
  H   H39       1.0  0.85833  0.08965  0.57675  1.0000
  H   H40       1.0  0.85833  0.58965  0.92325  1.0000
  H   H41       1.0  0.76520  0.38098  0.85661  1.0000
  H   H42       1.0  0.76520  0.88099  0.64339  1.0000
  H   H43       1.0  0.23480  0.61901  0.14339  1.0000
  H   H44       1.0  0.23480  0.11901  0.35661  1.0000
  H   H45       1.0  0.79173  0.93151  0.38992  1.0000
  H   H46       1.0  0.79173  0.43151  0.11007  1.0000
  H   H47       1.0  0.20826  0.06849  0.61007  1.0000
  H   H48       1.0  0.20826  0.56849  0.88993  1.0000
  H   H49       1.0  0.97579  0.80353  0.27621  1.0000
  H   H50       1.0  0.97579  0.30353  0.22379  1.0000
  H   H51       1.0  0.02420  0.19647  0.72379  1.0000
  H   H52       1.0  0.02421  0.69647  0.77621  1.0000
  H   H53       1.0  0.87991  0.57593  0.21814  1.0000
  H   H54       1.0  0.87991  0.07593  0.28185  1.0000
  H   H55       1.0  0.12009  0.42407  0.78186  1.0000
  H   H56       1.0  0.12009  0.92407  0.71815  1.0000
  H   H57       1.0  0.54307  0.71513  0.56921  1.0000
  H   H58       1.0  0.54307  0.21513  0.93079  1.0000
  H   H59       1.0  0.45693  0.28487  0.43079  1.0000
  H   H60       1.0  0.45693  0.78487  0.06921  1.0000
  H   H61       1.0  0.50344  0.27476  0.82245  1.0000
  H   H62       1.0  0.50344  0.77476  0.67755  1.0000
  H   H63       1.0  0.49656  0.72524  0.17755  1.0000
  H   H64       1.0  0.49656  0.22524  0.32245  1.0000
  H   H65       1.0  0.13511  0.61526  0.60206  1.0000
  H   H66       1.0  0.13511  0.11526  0.89794  1.0000
  H   H67       1.0  0.86489  0.38474  0.39794  1.0000
  H   H68       1.0  0.86489  0.88474  0.10206  1.0000
  H   H69       1.0  0.62740  0.48270  0.32095  1.0000
  H   H70       1.0  0.62739  0.98270  0.17905  1.0000
  H   H71       1.0  0.37260  0.51730  0.67904  1.0000
  H   H72       1.0  0.37261  0.01730  0.82095  1.0000
  C   C1        1.0  0.77354  0.84598  0.43639  1.0000
  C   C2        1.0  0.77354  0.34599  0.06361  1.0000
  C   C3        1.0  0.22646  0.15401  0.56361  1.0000
  C   C4        1.0  0.22646  0.65402  0.93639  1.0000
  C   C5        1.0  0.63220  0.45790  0.74025  1.0000
  C   C6        1.0  0.63220  0.95791  0.75975  1.0000
  C   C7        1.0  0.36781  0.54209  0.25975  1.0000
  C   C8        1.0  0.36781  0.04209  0.24025  1.0000
  C   C9        1.0  0.08322  0.80249  0.43803  1.0000
  C   C10       1.0  0.08322  0.30249  0.06197  1.0000
  C   C11       1.0  0.91678  0.19751  0.56197  1.0000
  C   C12       1.0  0.91678  0.69751  0.93803  1.0000
  C   C13       1.0  0.56348  0.77745  0.44471  1.0000
  C   C14       1.0  0.56348  0.27746  0.05529  1.0000
  C   C15       1.0  0.43652  0.22254  0.55529  1.0000
  C   C16       1.0  0.43652  0.72254  0.94471  1.0000
  C   C17       1.0  0.86954  0.72728  0.31420  1.0000
  C   C18       1.0  0.86954  0.22728  0.18580  1.0000
  C   C19       1.0  0.13046  0.27272  0.68580  1.0000
  C   C20       1.0  0.13047  0.77273  0.81420  1.0000
  C   C21       1.0  0.89225  0.58965  0.29040  1.0000
  C   C22       1.0  0.89224  0.08965  0.20960  1.0000
  C   C23       1.0  0.10776  0.41035  0.70960  1.0000
  C   C24       1.0  0.10776  0.91035  0.79039  1.0000
  C   C25       1.0  0.10910  0.77680  0.53538  1.0000
  C   C26       1.0  0.10911  0.27680  0.96461  1.0000
  C   C27       1.0  0.89089  0.22320  0.46462  1.0000
  C   C28       1.0  0.89089  0.72321  0.03538  1.0000
  N   N1        1.0  0.88470  0.75395  0.40962  1.0000
  N   N2        1.0  0.88471  0.25395  0.09037  1.0000
  N   N3        1.0  0.11529  0.24605  0.59038  1.0000
  N   N4        1.0  0.11529  0.74605  0.90963  1.0000
  N   N5        1.0  0.64674  0.50755  0.66980  1.0000
  N   N6        1.0  0.64675  0.00756  0.83020  1.0000
  N   N7        1.0  0.35326  0.49244  0.33020  1.0000
  N   N8        1.0  0.35326  0.99244  0.16980  1.0000
  O   O1        1.0  0.75867  0.48245  0.33512  1.0000
  O   O2        1.0  0.75866  0.98245  0.16487  1.0000
  O   O3        1.0  0.24134  0.51755  0.66487  1.0000
  O   O4        1.0  0.24134  0.01755  0.83513  1.0000
  O   O5        1.0  0.52457  0.67252  0.51044  1.0000
  O   O6        1.0  0.52457  0.17253  0.98956  1.0000
  O   O7        1.0  0.47543  0.32747  0.48956  1.0000
  O   O8        1.0  0.47543  0.82747  0.01044  1.0000
  O   O9        1.0  0.06687  0.63465  0.54925  1.0000
  O   O10       1.0  0.06687  0.13465  0.95075  1.0000
  O   O11       1.0  0.93313  0.36535  0.45075  1.0000
  O   O12       1.0  0.93313  0.86535  0.04925  1.0000
