data_image0
_chemical_formula_structural       Cd4H36C76Br4N8O20
_chemical_formula_sum              "Cd4 H36 C76 Br4 N8 O20"
_cell_length_a       7.93269
_cell_length_b       14.2344
_cell_length_c       16.515
_cell_angle_alpha    113.884
_cell_angle_beta     90
_cell_angle_gamma    90

_space_group_name_H-M_alt    "P 1"
_space_group_IT_number       1

loop_
  _space_group_symop_operation_xyz
  'x, y, z'

loop_
  _atom_site_type_symbol
  _atom_site_label
  _atom_site_symmetry_multiplicity
  _atom_site_fract_x
  _atom_site_fract_y
  _atom_site_fract_z
  _atom_site_occupancy
  Cd  Cd1       1.0  0.49692  0.34167  0.39636  1.0000
  Cd  Cd2       1.0  0.99692  0.65833  0.10364  1.0000
  Cd  Cd3       1.0  0.50308  0.65833  0.60364  1.0000
  Cd  Cd4       1.0  0.00308  0.34167  0.89636  1.0000
  H   H1        1.0  0.05861  0.64262  0.59044  1.0000
  H   H2        1.0  0.55861  0.35738  0.90956  1.0000
  H   H3        1.0  0.94139  0.35738  0.40956  1.0000
  H   H4        1.0  0.44138  0.64262  0.09044  1.0000
  H   H5        1.0  0.86264  0.82025  0.45181  1.0000
  H   H6        1.0  0.36263  0.17975  0.04820  1.0000
  H   H7        1.0  0.13737  0.17976  0.54820  1.0000
  H   H8        1.0  0.63737  0.82025  0.95180  1.0000
  H   H9        1.0  0.19247  0.56435  0.31786  1.0000
  H   H10       1.0  0.69246  0.43565  0.18214  1.0000
  H   H11       1.0  0.80754  0.43565  0.68214  1.0000
  H   H12       1.0  0.30753  0.56435  0.81786  1.0000
  H   H13       1.0  0.34822  0.44566  0.62995  1.0000
  H   H14       1.0  0.84822  0.55434  0.87005  1.0000
  H   H15       1.0  0.65179  0.55434  0.37005  1.0000
  H   H16       1.0  0.15178  0.44566  0.12995  1.0000
  H   H17       1.0  0.36235  0.38227  0.75155  1.0000
  H   H18       1.0  0.86235  0.61773  0.74845  1.0000
  H   H19       1.0  0.63766  0.61773  0.24845  1.0000
  H   H20       1.0  0.13765  0.38227  0.25155  1.0000
  H   H21       1.0  0.50207  0.21471  0.72405  1.0000
  H   H22       1.0  0.00207  0.78529  0.77595  1.0000
  H   H23       1.0  0.49793  0.78529  0.27595  1.0000
  H   H24       1.0  0.99793  0.21471  0.22405  1.0000
  H   H25       1.0  0.84849  0.93926  0.38276  1.0000
  H   H26       1.0  0.34849  0.06073  0.11725  1.0000
  H   H27       1.0  0.15151  0.06073  0.61724  1.0000
  H   H28       1.0  0.65151  0.93927  0.88275  1.0000
  H   H29       1.0  0.86959  0.97647  0.24800  1.0000
  H   H30       1.0  0.36959  0.02353  0.25200  1.0000
  H   H31       1.0  0.13041  0.02353  0.75200  1.0000
  H   H32       1.0  0.63041  0.97647  0.74800  1.0000
  H   H33       1.0  0.72192  0.12669  0.24041  1.0000
  H   H34       1.0  0.22192  0.87331  0.25959  1.0000
  H   H35       1.0  0.27809  0.87331  0.75959  1.0000
  H   H36       1.0  0.77808  0.12669  0.74041  1.0000
  C   C1        1.0  0.13572  0.59409  0.45403  1.0000
  C   C2        1.0  0.63571  0.40591  0.04597  1.0000
  C   C3        1.0  0.86429  0.40591  0.54597  1.0000
  C   C4        1.0  0.36428  0.59409  0.95403  1.0000
  C   C5        1.0  0.04873  0.65685  0.53063  1.0000
  C   C6        1.0  0.54873  0.34315  0.96937  1.0000
  C   C7        1.0  0.95127  0.34315  0.46937  1.0000
  C   C8        1.0  0.45127  0.65685  0.03063  1.0000
  C   C9        1.0  0.94999  0.73637  0.52804  1.0000
  C   C10       1.0  0.44999  0.26363  0.97196  1.0000
  C   C11       1.0  0.05002  0.26363  0.47197  1.0000
  C   C12       1.0  0.55001  0.73637  0.02804  1.0000
  C   C13       1.0  0.93952  0.75728  0.45272  1.0000
  C   C14       1.0  0.43952  0.24273  0.04728  1.0000
  C   C15       1.0  0.06048  0.24273  0.54728  1.0000
  C   C16       1.0  0.56047  0.75727  0.95272  1.0000
  C   C17       1.0  0.02857  0.69462  0.37659  1.0000
  C   C18       1.0  0.52857  0.30538  0.12342  1.0000
  C   C19       1.0  0.97143  0.30538  0.62342  1.0000
  C   C20       1.0  0.47143  0.69462  0.87658  1.0000
  C   C21       1.0  0.12388  0.61235  0.37728  1.0000
  C   C22       1.0  0.62388  0.38765  0.12272  1.0000
  C   C23       1.0  0.87612  0.38765  0.62272  1.0000
  C   C24       1.0  0.37612  0.61235  0.87728  1.0000
  C   C25       1.0  0.24835  0.51104  0.45674  1.0000
  C   C26       1.0  0.74835  0.48896  0.04326  1.0000
  C   C27       1.0  0.75165  0.48897  0.54326  1.0000
  C   C28       1.0  0.25165  0.51103  0.95674  1.0000
  C   C29       1.0  0.01722  0.71261  0.29273  1.0000
  C   C30       1.0  0.51722  0.28739  0.20727  1.0000
  C   C31       1.0  0.98278  0.28740  0.70727  1.0000
  C   C32       1.0  0.48278  0.71261  0.79273  1.0000
  C   C33       1.0  0.40763  0.37253  0.61945  1.0000
  C   C34       1.0  0.90763  0.62747  0.88055  1.0000
  C   C35       1.0  0.59237  0.62747  0.38055  1.0000
  C   C36       1.0  0.09237  0.37253  0.11945  1.0000
  C   C37       1.0  0.41780  0.33706  0.68695  1.0000
  C   C38       1.0  0.91780  0.66294  0.81305  1.0000
  C   C39       1.0  0.58220  0.66294  0.31305  1.0000
  C   C40       1.0  0.08220  0.33706  0.18695  1.0000
  C   C41       1.0  0.49567  0.24281  0.67176  1.0000
  C   C42       1.0  0.99567  0.75719  0.82824  1.0000
  C   C43       1.0  0.50433  0.75719  0.32824  1.0000
  C   C44       1.0  0.00433  0.24281  0.17175  1.0000
  C   C45       1.0  0.56217  0.18812  0.58784  1.0000
  C   C46       1.0  0.06217  0.81188  0.91216  1.0000
  C   C47       1.0  0.43783  0.81188  0.41216  1.0000
  C   C48       1.0  0.93783  0.18812  0.08784  1.0000
  C   C49       1.0  0.65921  0.08902  0.54537  1.0000
  C   C50       1.0  0.15920  0.91098  0.95463  1.0000
  C   C51       1.0  0.34079  0.91098  0.45463  1.0000
  C   C52       1.0  0.84079  0.08902  0.04537  1.0000
  C   C53       1.0  0.69868  0.07857  0.45260  1.0000
  C   C54       1.0  0.19868  0.92142  0.04740  1.0000
  C   C55       1.0  0.30132  0.92142  0.54740  1.0000
  C   C56       1.0  0.80133  0.07858  0.95260  1.0000
  C   C57       1.0  0.78832  0.00788  0.38188  1.0000
  C   C58       1.0  0.28832  0.99212  0.11813  1.0000
  C   C59       1.0  0.21168  0.99212  0.61812  1.0000
  C   C60       1.0  0.71168  0.00788  0.88187  1.0000
  C   C61       1.0  0.79832  0.02767  0.30516  1.0000
  C   C62       1.0  0.29832  0.97233  0.19484  1.0000
  C   C63       1.0  0.20168  0.97233  0.69483  1.0000
  C   C64       1.0  0.70168  0.02767  0.80516  1.0000
  C   C65       1.0  0.71885  0.11297  0.30070  1.0000
  C   C66       1.0  0.21885  0.88703  0.19930  1.0000
  C   C67       1.0  0.28115  0.88703  0.69930  1.0000
  C   C68       1.0  0.78115  0.11297  0.80070  1.0000
  C   C69       1.0  0.62681  0.16311  0.44244  1.0000
  C   C70       1.0  0.12681  0.83689  0.05756  1.0000
  C   C71       1.0  0.37319  0.83689  0.55756  1.0000
  C   C72       1.0  0.87319  0.16311  0.94243  1.0000
  C   C73       1.0  0.54493  0.23035  0.52489  1.0000
  C   C74       1.0  0.04493  0.76965  0.97511  1.0000
  C   C75       1.0  0.45507  0.76964  0.47511  1.0000
  C   C76       1.0  0.95507  0.23035  0.02489  1.0000
  Br  Br1       1.0  0.82473  0.81710  0.63142  1.0000
  Br  Br2       1.0  0.32473  0.18289  0.86858  1.0000
  Br  Br3       1.0  0.17527  0.18289  0.36859  1.0000
  Br  Br4       1.0  0.67527  0.81710  0.13141  1.0000
  N   N1        1.0  0.47100  0.31869  0.53730  1.0000
  N   N2        1.0  0.97100  0.68131  0.96270  1.0000
  N   N3        1.0  0.52900  0.68131  0.46270  1.0000
  N   N4        1.0  0.02900  0.31869  0.03730  1.0000
  N   N5        1.0  0.63331  0.18197  0.37017  1.0000
  N   N6        1.0  0.13331  0.81803  0.12983  1.0000
  N   N7        1.0  0.36670  0.81803  0.62983  1.0000
  N   N8        1.0  0.86670  0.18197  0.87016  1.0000
  O   O1        1.0  0.27141  0.43242  0.38435  1.0000
  O   O2        1.0  0.77142  0.56758  0.11566  1.0000
  O   O3        1.0  0.72859  0.56758  0.61566  1.0000
  O   O4        1.0  0.22858  0.43242  0.88434  1.0000
  O   O5        1.0  0.31691  0.52341  0.52987  1.0000
  O   O6        1.0  0.81691  0.47660  0.97013  1.0000
  O   O7        1.0  0.68309  0.47660  0.47013  1.0000
  O   O8        1.0  0.18309  0.52340  0.02987  1.0000
  O   O9        1.0  0.10504  0.65082  0.22724  1.0000
  O   O10       1.0  0.60504  0.34918  0.27276  1.0000
  O   O11       1.0  0.89496  0.34918  0.77276  1.0000
  O   O12       1.0  0.39496  0.65082  0.72724  1.0000
  O   O13       1.0  0.92352  0.78287  0.29039  1.0000
  O   O14       1.0  0.42352  0.21713  0.20961  1.0000
  O   O15       1.0  0.07648  0.21713  0.70961  1.0000
  O   O16       1.0  0.57648  0.78287  0.79039  1.0000
  O   O17       1.0  0.69797  0.02928  0.57883  1.0000
  O   O18       1.0  0.19797  0.97073  0.92117  1.0000
  O   O19       1.0  0.30203  0.97072  0.42117  1.0000
  O   O20       1.0  0.80204  0.02927  0.07883  1.0000
