data_image0
_chemical_formula_structural       Cu2H30C50N6O8
_chemical_formula_sum              "Cu2 H30 C50 N6 O8"
_cell_length_a       9.43792
_cell_length_b       10.0422
_cell_length_c       12.348
_cell_angle_alpha    99.3869
_cell_angle_beta     105.85
_cell_angle_gamma    111.872

_space_group_name_H-M_alt    "P 1"
_space_group_IT_number       1

loop_
  _space_group_symop_operation_xyz
  'x, y, z'

loop_
  _atom_site_type_symbol
  _atom_site_label
  _atom_site_symmetry_multiplicity
  _atom_site_fract_x
  _atom_site_fract_y
  _atom_site_fract_z
  _atom_site_occupancy
  Cu  Cu1       1.0  0.87453  0.59104  0.72525  1.0000
  Cu  Cu2       1.0  0.12547  0.40897  0.27476  1.0000
  H   H1        1.0  0.59773  0.49680  0.47793  1.0000
  H   H2        1.0  0.40227  0.50322  0.52207  1.0000
  H   H3        1.0  0.89660  0.29217  0.58415  1.0000
  H   H4        1.0  0.10341  0.70785  0.41586  1.0000
  H   H5        1.0  0.47807  0.06166  0.25839  1.0000
  H   H6        1.0  0.52194  0.93835  0.74162  1.0000
  H   H7        1.0  0.95033  0.88620  0.28162  1.0000
  H   H8        1.0  0.04965  0.11379  0.71838  1.0000
  H   H9        1.0  0.86775  0.70576  0.39631  1.0000
  H   H10       1.0  0.13224  0.29423  0.60370  1.0000
  H   H11       1.0  0.70681  0.73724  0.51821  1.0000
  H   H12       1.0  0.29318  0.26276  0.48180  1.0000
  H   H13       1.0  0.62035  0.94310  0.52211  1.0000
  H   H14       1.0  0.37964  0.05690  0.47789  1.0000
  H   H15       1.0  0.52876  0.42282  0.74180  1.0000
  H   H16       1.0  0.47124  0.57718  0.25820  1.0000
  H   H17       1.0  0.41408  0.21752  0.83017  1.0000
  H   H18       1.0  0.58591  0.78247  0.16982  1.0000
  H   H19       1.0  0.59643  0.11531  0.93623  1.0000
  H   H20       1.0  0.40357  0.88467  0.06375  1.0000
  H   H21       1.0  0.87957  0.11879  0.99976  1.0000
  H   H22       1.0  0.12043  0.88119  0.00022  1.0000
  H   H23       1.0  0.16312  0.22386  0.00382  1.0000
  H   H24       1.0  0.83688  0.77613  0.99617  1.0000
  H   H25       1.0  0.38063  0.40688  0.94540  1.0000
  H   H26       1.0  0.61938  0.59311  0.05460  1.0000
  H   H27       1.0  0.45863  0.61722  0.85289  1.0000
  H   H28       1.0  0.54137  0.38278  0.14711  1.0000
  H   H29       1.0  0.24499  0.69362  0.75600  1.0000
  H   H30       1.0  0.75501  0.30637  0.24400  1.0000
  C   C1        1.0  0.36580  0.27727  0.27426  1.0000
  C   C2        1.0  0.63420  0.72274  0.72575  1.0000
  C   C3        1.0  0.51819  0.27832  0.35747  1.0000
  C   C4        1.0  0.48181  0.72170  0.64253  1.0000
  C   C5        1.0  0.62271  0.40006  0.45847  1.0000
  C   C6        1.0  0.37729  0.59995  0.54153  1.0000
  C   C7        1.0  0.78947  0.28696  0.51773  1.0000
  C   C8        1.0  0.21054  0.71306  0.48228  1.0000
  C   C9        1.0  0.69513  0.16014  0.41846  1.0000
  C   C10       1.0  0.30487  0.83987  0.58155  1.0000
  C   C11       1.0  0.55719  0.15742  0.33688  1.0000
  C   C12       1.0  0.44281  0.84259  0.66313  1.0000
  C   C13       1.0  0.74038  0.03307  0.40722  1.0000
  C   C14       1.0  0.25963  0.96694  0.59279  1.0000
  C   C15       1.0  0.83319  0.01614  0.33892  1.0000
  C   C16       1.0  0.16682  0.98386  0.66110  1.0000
  C   C17       1.0  0.88584  0.12202  0.26842  1.0000
  C   C18       1.0  0.11417  0.87799  0.73160  1.0000
  C   C19       1.0  0.87734  0.89722  0.33442  1.0000
  C   C20       1.0  0.12265  0.10277  0.66559  1.0000
  C   C21       1.0  0.83085  0.79658  0.39777  1.0000
  C   C22       1.0  0.16915  0.20342  0.60224  1.0000
  C   C23       1.0  0.73848  0.81283  0.46567  1.0000
  C   C24       1.0  0.26151  0.18717  0.53435  1.0000
  C   C25       1.0  0.69287  0.92994  0.46947  1.0000
  C   C26       1.0  0.30713  0.07007  0.53054  1.0000
  C   C27       1.0  0.60449  0.37536  0.78823  1.0000
  C   C28       1.0  0.39552  0.62464  0.21177  1.0000
  C   C29       1.0  0.54191  0.26094  0.83836  1.0000
  C   C30       1.0  0.45809  0.73906  0.16163  1.0000
  C   C31       1.0  0.64206  0.20279  0.89554  1.0000
  C   C32       1.0  0.35793  0.79720  0.10444  1.0000
  C   C33       1.0  0.80590  0.25757  0.90088  1.0000
  C   C34       1.0  0.19410  0.74242  0.09911  1.0000
  C   C35       1.0  0.85813  0.37299  0.84796  1.0000
  C   C36       1.0  0.14187  0.62700  0.15203  1.0000
  C   C37       1.0  0.91987  0.20441  0.95637  1.0000
  C   C38       1.0  0.08013  0.79557  0.04361  1.0000
  C   C39       1.0  0.07706  0.26310  0.95825  1.0000
  C   C40       1.0  0.92294  0.73689  0.04174  1.0000
  C   C41       1.0  0.13223  0.37946  0.90502  1.0000
  C   C42       1.0  0.86776  0.62053  0.09497  1.0000
  C   C43       1.0  0.02211  0.43432  0.85009  1.0000
  C   C44       1.0  0.97788  0.56568  0.14990  1.0000
  C   C45       1.0  0.29242  0.44616  0.90425  1.0000
  C   C46       1.0  0.70758  0.55383  0.09574  1.0000
  C   C47       1.0  0.33471  0.55955  0.85200  1.0000
  C   C48       1.0  0.66529  0.44045  0.14800  1.0000
  C   C49       1.0  0.21636  0.60558  0.79854  1.0000
  C   C50       1.0  0.78365  0.39442  0.20146  1.0000
  N   N1        1.0  0.75580  0.40494  0.53751  1.0000
  N   N2        1.0  0.24421  0.59508  0.46250  1.0000
  N   N3        1.0  0.75920  0.43088  0.79385  1.0000
  N   N4        1.0  0.24080  0.56912  0.20614  1.0000
  N   N5        1.0  0.06400  0.54442  0.79750  1.0000
  N   N6        1.0  0.93600  0.45557  0.20250  1.0000
  O   O1        1.0  0.31703  0.36576  0.32550  1.0000
  O   O2        1.0  0.68297  0.63425  0.67451  1.0000
  O   O3        1.0  0.30456  0.19794  0.16968  1.0000
  O   O4        1.0  0.69544  0.80207  0.83033  1.0000
  O   O5        1.0  0.00226  0.25305  0.33397  1.0000
  O   O6        1.0  0.99775  0.74696  0.66605  1.0000
  O   O7        1.0  0.81773  0.07794  0.15908  1.0000
  O   O8        1.0  0.18230  0.92206  0.84094  1.0000
