data_image0
_chemical_formula_structural       Cd2H44C52O12
_chemical_formula_sum              "Cd2 H44 C52 O12"
_cell_length_a       6.67353
_cell_length_b       7.40309
_cell_length_c       23.0388
_cell_angle_alpha    90.1091
_cell_angle_beta     98.1557
_cell_angle_gamma    90.0003

_space_group_name_H-M_alt    "P 1"
_space_group_IT_number       1

loop_
  _space_group_symop_operation_xyz
  'x, y, z'

loop_
  _atom_site_type_symbol
  _atom_site_label
  _atom_site_symmetry_multiplicity
  _atom_site_fract_x
  _atom_site_fract_y
  _atom_site_fract_z
  _atom_site_occupancy
  Cd  Cd1       1.0  0.50000  0.00000  0.50000  1.0000
  Cd  Cd2       1.0  1.00000  0.50000  0.50000  1.0000
  H   H1        1.0  0.28184  0.81681  0.36771  1.0000
  H   H2        1.0  0.91443  0.68450  0.63248  1.0000
  H   H3        1.0  0.71815  0.18319  0.63229  1.0000
  H   H4        1.0  0.08556  0.31551  0.36752  1.0000
  H   H5        1.0  0.87466  0.73862  0.31908  1.0000
  H   H6        1.0  0.55569  0.76026  0.67991  1.0000
  H   H7        1.0  0.12533  0.26137  0.68093  1.0000
  H   H8        1.0  0.44430  0.23972  0.32009  1.0000
  H   H9        1.0  0.17821  0.08069  0.01114  1.0000
  H   H10       1.0  0.16692  0.41806  0.98861  1.0000
  H   H11       1.0  0.82179  0.91930  0.98886  1.0000
  H   H12       1.0  0.83307  0.58195  0.01139  1.0000
  H   H13       1.0  0.14954  0.89949  0.26586  1.0000
  H   H14       1.0  0.88393  0.60249  0.73456  1.0000
  H   H15       1.0  0.85046  0.10052  0.73414  1.0000
  H   H16       1.0  0.11606  0.39753  0.26544  1.0000
  H   H17       1.0  0.12289  0.09766  0.19497  1.0000
  H   H18       1.0  0.92801  0.40324  0.80500  1.0000
  H   H19       1.0  0.87712  0.90233  0.80503  1.0000
  H   H20       1.0  0.07199  0.59676  0.19499  1.0000
  H   H21       1.0  0.74659  0.83224  0.21728  1.0000
  H   H22       1.0  0.52932  0.66761  0.78197  1.0000
  H   H23       1.0  0.25342  0.16776  0.78272  1.0000
  H   H24       1.0  0.47066  0.33237  0.21803  1.0000
  H   H25       1.0  0.58463  0.76842  0.13350  1.0000
  H   H26       1.0  0.45095  0.73179  0.86604  1.0000
  H   H27       1.0  0.41540  0.23159  0.86651  1.0000
  H   H28       1.0  0.54905  0.26821  0.13395  1.0000
  H   H29       1.0  0.47070  0.86945  0.03261  1.0000
  H   H30       1.0  0.43772  0.62969  0.96695  1.0000
  H   H31       1.0  0.52931  0.13055  0.96739  1.0000
  H   H32       1.0  0.56228  0.37030  0.03304  1.0000
  H   H33       1.0  0.00512  0.19327  0.09353  1.0000
  H   H34       1.0  0.91151  0.30649  0.90646  1.0000
  H   H35       1.0  0.99489  0.80673  0.90648  1.0000
  H   H36       1.0  0.08848  0.69352  0.09354  1.0000
  H   H37       1.0  0.91321  0.92699  0.55244  1.0000
  H   H38       1.0  0.36032  0.57204  0.44745  1.0000
  H   H39       1.0  0.08680  0.07300  0.44756  1.0000
  H   H40       1.0  0.63968  0.42796  0.55255  1.0000
  H   H41       1.0  0.87373  0.11118  0.51734  1.0000
  H   H42       1.0  0.35660  0.38841  0.48294  1.0000
  H   H43       1.0  0.12628  0.88882  0.48265  1.0000
  H   H44       1.0  0.64341  0.61159  0.51706  1.0000
  C   C1        1.0  0.38258  0.81593  0.33437  1.0000
  C   C2        1.0  0.04837  0.68482  0.66562  1.0000
  C   C3        1.0  0.61741  0.18407  0.66563  1.0000
  C   C4        1.0  0.95163  0.31519  0.33437  1.0000
  C   C5        1.0  0.67077  0.71487  0.41072  1.0000
  C   C6        1.0  0.26059  0.78474  0.58888  1.0000
  C   C7        1.0  0.32922  0.28512  0.58928  1.0000
  C   C8        1.0  0.73941  0.21527  0.41112  1.0000
  C   C9        1.0  0.36358  0.92597  0.17238  1.0000
  C   C10       1.0  0.19111  0.57472  0.82741  1.0000
  C   C11       1.0  0.63643  0.07403  0.82762  1.0000
  C   C12       1.0  0.80888  0.42529  0.17258  1.0000
  C   C13       1.0  0.43759  0.87003  0.23331  1.0000
  C   C14       1.0  0.20436  0.63080  0.76646  1.0000
  C   C15       1.0  0.56241  0.12996  0.76669  1.0000
  C   C16       1.0  0.79563  0.36921  0.23353  1.0000
  C   C17       1.0  0.58713  0.76938  0.34978  1.0000
  C   C18       1.0  0.23756  0.73049  0.64986  1.0000
  C   C19       1.0  0.41287  0.23062  0.65022  1.0000
  C   C20       1.0  0.76244  0.26952  0.35014  1.0000
  C   C21       1.0  0.71616  0.77465  0.30675  1.0000
  C   C22       1.0  0.40961  0.72491  0.69259  1.0000
  C   C23       1.0  0.28385  0.22534  0.69325  1.0000
  C   C24       1.0  0.59039  0.27508  0.30742  1.0000
  C   C25       1.0  0.23026  0.03833  0.05609  1.0000
  C   C26       1.0  0.17400  0.46107  0.94367  1.0000
  C   C27       1.0  0.76975  0.96166  0.94391  1.0000
  C   C28       1.0  0.82600  0.53892  0.05633  1.0000
  C   C29       1.0  0.30927  0.86438  0.27689  1.0000
  C   C30       1.0  0.03255  0.63688  0.72320  1.0000
  C   C31       1.0  0.69074  0.13562  0.72312  1.0000
  C   C32       1.0  0.96743  0.36313  0.27679  1.0000
  C   C33       1.0  0.19860  0.04494  0.15953  1.0000
  C   C34       1.0  0.03898  0.45565  0.84037  1.0000
  C   C35       1.0  0.80141  0.95505  0.84048  1.0000
  C   C36       1.0  0.96101  0.54435  0.15963  1.0000
  C   C37       1.0  0.64273  0.82494  0.24968  1.0000
  C   C38       1.0  0.39316  0.67518  0.74976  1.0000
  C   C39       1.0  0.35726  0.17505  0.75032  1.0000
  C   C40       1.0  0.60683  0.32482  0.25024  1.0000
  C   C41       1.0  0.45948  0.86388  0.12542  1.0000
  C   C42       1.0  0.33389  0.63632  0.87424  1.0000
  C   C43       1.0  0.54053  0.13612  0.87459  1.0000
  C   C44       1.0  0.66612  0.36368  0.12576  1.0000
  C   C45       1.0  0.39393  0.91985  0.06812  1.0000
  C   C46       1.0  0.32559  0.57972  0.93153  1.0000
  C   C47       1.0  0.60608  0.08015  0.93188  1.0000
  C   C48       1.0  0.67440  0.42027  0.06847  1.0000
  C   C49       1.0  0.13256  0.10041  0.10213  1.0000
  C   C50       1.0  0.03032  0.39949  0.89777  1.0000
  C   C51       1.0  0.86745  0.89959  0.89788  1.0000
  C   C52       1.0  0.96968  0.60051  0.10222  1.0000
  O   O1        1.0  0.55353  0.72299  0.45126  1.0000
  O   O2        1.0  0.10344  0.77641  0.54845  1.0000
  O   O3        1.0  0.44647  0.27701  0.54874  1.0000
  O   O4        1.0  0.89657  0.22361  0.45155  1.0000
  O   O5        1.0  0.82151  0.03341  0.54703  1.0000
  O   O6        1.0  0.27460  0.46529  0.45309  1.0000
  O   O7        1.0  0.17850  0.96659  0.45297  1.0000
  O   O8        1.0  0.72541  0.53472  0.54691  1.0000
  O   O9        1.0  0.85239  0.66210  0.42048  1.0000
  O   O10       1.0  0.43250  0.83785  0.57907  1.0000
  O   O11       1.0  0.14762  0.33791  0.57952  1.0000
  O   O12       1.0  0.56750  0.16215  0.42093  1.0000
