data_image0
_chemical_formula_structural       Zn2H44C52O12
_chemical_formula_sum              "Zn2 H44 C52 O12"
_cell_length_a       6.45508
_cell_length_b       7.25761
_cell_length_c       22.7872
_cell_angle_alpha    89.1553
_cell_angle_beta     98.1773
_cell_angle_gamma    90.0643

_space_group_name_H-M_alt    "P 1"
_space_group_IT_number       1

loop_
  _space_group_symop_operation_xyz
  'x, y, z'

loop_
  _atom_site_type_symbol
  _atom_site_label
  _atom_site_symmetry_multiplicity
  _atom_site_fract_x
  _atom_site_fract_y
  _atom_site_fract_z
  _atom_site_occupancy
  Zn  Zn1       1.0  0.50001  0.00000  0.50000  1.0000
  Zn  Zn2       1.0  0.00000  0.50000  0.50000  1.0000
  H   H1        1.0  0.92732  0.25473  0.32580  1.0000
  H   H2        1.0  0.60321  0.24541  0.67411  1.0000
  H   H3        1.0  0.07270  0.74531  0.67419  1.0000
  H   H4        1.0  0.39679  0.75461  0.32588  1.0000
  H   H5        1.0  0.01720  0.21299  0.13730  1.0000
  H   H6        1.0  0.88131  0.28664  0.86245  1.0000
  H   H7        1.0  0.98282  0.78697  0.86270  1.0000
  H   H8        1.0  0.11864  0.71335  0.13753  1.0000
  H   H9        1.0  0.62204  0.10943  0.26842  1.0000
  H   H10       1.0  0.35611  0.38921  0.73173  1.0000
  H   H11       1.0  0.37797  0.89051  0.73159  1.0000
  H   H12       1.0  0.64388  0.61081  0.26827  1.0000
  H   H13       1.0  0.59582  0.92513  0.19754  1.0000
  H   H14       1.0  0.40128  0.57398  0.80273  1.0000
  H   H15       1.0  0.40421  0.07485  0.80246  1.0000
  H   H16       1.0  0.59870  0.42603  0.19729  1.0000
  H   H17       1.0  0.95189  0.16082  0.22272  1.0000
  H   H18       1.0  0.73143  0.33905  0.77718  1.0000
  H   H19       1.0  0.04812  0.83920  0.77728  1.0000
  H   H20       1.0  0.26854  0.66099  0.22281  1.0000
  H   H21       1.0  0.59252  0.18803  0.37171  1.0000
  H   H22       1.0  0.22290  0.31083  0.62840  1.0000
  H   H23       1.0  0.40747  0.81192  0.62829  1.0000
  H   H24       1.0  0.77712  0.68918  0.37160  1.0000
  H   H25       1.0  0.61829  0.83453  0.09506  1.0000
  H   H26       1.0  0.52536  0.66527  0.90526  1.0000
  H   H27       1.0  0.38176  0.16550  0.90494  1.0000
  H   H28       1.0  0.47456  0.33474  0.09476  1.0000
  H   H29       1.0  0.33818  0.92702  0.01282  1.0000
  H   H30       1.0  0.32605  0.57325  0.98724  1.0000
  H   H31       1.0  0.66187  0.07298  0.98718  1.0000
  H   H32       1.0  0.67384  0.42671  0.01278  1.0000
  H   H33       1.0  0.03744  0.11698  0.03542  1.0000
  H   H34       1.0  0.00250  0.38300  0.96437  1.0000
  H   H35       1.0  0.96260  0.88301  0.96458  1.0000
  H   H36       1.0  0.99741  0.61695  0.03562  1.0000
  H   H37       1.0  0.15207  0.08526  0.54696  1.0000
  H   H38       1.0  0.60431  0.41458  0.45300  1.0000
  H   H39       1.0  0.84795  0.91474  0.45304  1.0000
  H   H40       1.0  0.39567  0.58542  0.54699  1.0000
  H   H41       1.0  0.15307  0.88804  0.51691  1.0000
  H   H42       1.0  0.63615  0.61165  0.48316  1.0000
  H   H43       1.0  0.84698  0.11196  0.48309  1.0000
  H   H44       1.0  0.36385  0.38835  0.51684  1.0000
  C   C1        1.0  0.23781  0.28409  0.41663  1.0000
  C   C2        1.0  0.82226  0.21600  0.58332  1.0000
  C   C3        1.0  0.76219  0.71590  0.58337  1.0000
  C   C4        1.0  0.17777  0.78401  0.41668  1.0000
  C   C5        1.0  0.25757  0.22975  0.35501  1.0000
  C   C6        1.0  0.90430  0.26999  0.64494  1.0000
  C   C7        1.0  0.74244  0.77023  0.64499  1.0000
  C   C8        1.0  0.09571  0.73003  0.35505  1.0000
  C   C9        1.0  0.07819  0.22121  0.31250  1.0000
  C   C10       1.0  0.76756  0.27866  0.68743  1.0000
  C   C11       1.0  0.92183  0.77880  0.68750  1.0000
  C   C12       1.0  0.23244  0.72137  0.31256  1.0000
  C   C13       1.0  0.28911  0.13042  0.23727  1.0000
  C   C14       1.0  0.05424  0.36889  0.76275  1.0000
  C   C15       1.0  0.71091  0.86958  0.76273  1.0000
  C   C16       1.0  0.94574  0.63113  0.23725  1.0000
  C   C17       1.0  0.30416  0.07583  0.17575  1.0000
  C   C18       1.0  0.13076  0.42354  0.82429  1.0000
  C   C19       1.0  0.69587  0.92416  0.82425  1.0000
  C   C20       1.0  0.86921  0.57648  0.17571  1.0000
  C   C21       1.0  0.14808  0.12759  0.12879  1.0000
  C   C22       1.0  0.02088  0.37206  0.87110  1.0000
  C   C23       1.0  0.85195  0.87240  0.87121  1.0000
  C   C24       1.0  0.97906  0.62793  0.12889  1.0000
  C   C25       1.0  0.46821  0.14034  0.28036  1.0000
  C   C26       1.0  0.19015  0.35877  0.71970  1.0000
  C   C27       1.0  0.53180  0.85963  0.71964  1.0000
  C   C28       1.0  0.80985  0.64124  0.28030  1.0000
  C   C29       1.0  0.47342  0.96986  0.16220  1.0000
  C   C30       1.0  0.31372  0.52957  0.83798  1.0000
  C   C31       1.0  0.52661  0.03013  0.83780  1.0000
  C   C32       1.0  0.68623  0.47045  0.16203  1.0000
  C   C33       1.0  0.09373  0.17077  0.25477  1.0000
  C   C34       1.0  0.84117  0.32889  0.74517  1.0000
  C   C35       1.0  0.90629  0.82925  0.74523  1.0000
  C   C36       1.0  0.15882  0.67114  0.25482  1.0000
  C   C37       1.0  0.45315  0.18730  0.33854  1.0000
  C   C38       1.0  0.11662  0.31198  0.66150  1.0000
  C   C39       1.0  0.54685  0.81267  0.66146  1.0000
  C   C40       1.0  0.88339  0.68804  0.33850  1.0000
  C   C41       1.0  0.48587  0.91708  0.10418  1.0000
  C   C42       1.0  0.38357  0.58278  0.89601  1.0000
  C   C43       1.0  0.51417  0.08293  0.89582  1.0000
  C   C44       1.0  0.61635  0.41723  0.10401  1.0000
  C   C45       1.0  0.32865  0.96853  0.05819  1.0000
  C   C46       1.0  0.27161  0.53154  0.94185  1.0000
  C   C47       1.0  0.67139  0.03147  0.94181  1.0000
  C   C48       1.0  0.72829  0.46845  0.05815  1.0000
  C   C49       1.0  0.16018  0.07429  0.07087  1.0000
  C   C50       1.0  0.09035  0.42562  0.92903  1.0000
  C   C51       1.0  0.83986  0.92570  0.92913  1.0000
  C   C52       1.0  0.90957  0.57436  0.07096  1.0000
  O   O1        1.0  0.06537  0.34894  0.42703  1.0000
  O   O2        1.0  0.63902  0.15155  0.57293  1.0000
  O   O3        1.0  0.93465  0.65107  0.57297  1.0000
  O   O4        1.0  0.36102  0.84846  0.42706  1.0000
  O   O5        1.0  0.39983  0.26478  0.45737  1.0000
  O   O6        1.0  0.94334  0.23518  0.54256  1.0000
  O   O7        1.0  0.60017  0.73521  0.54263  1.0000
  O   O8        1.0  0.05670  0.76483  0.45744  1.0000
  O   O9        1.0  0.24097  0.97560  0.54341  1.0000
  O   O10       1.0  0.69718  0.52414  0.45665  1.0000
  O   O11       1.0  0.75907  0.02440  0.45659  1.0000
  O   O12       1.0  0.30282  0.47585  0.54335  1.0000
