data_image0
_chemical_formula_structural       Cu2H32C54N4O12
_chemical_formula_sum              "Cu2 H32 C54 N4 O12"
_cell_length_a       9.1303
_cell_length_b       10.4516
_cell_length_c       12.1649
_cell_angle_alpha    94.3835
_cell_angle_beta     93.1478
_cell_angle_gamma    91.1624

_space_group_name_H-M_alt    "P 1"
_space_group_IT_number       1

loop_
  _space_group_symop_operation_xyz
  'x, y, z'

loop_
  _atom_site_type_symbol
  _atom_site_label
  _atom_site_symmetry_multiplicity
  _atom_site_fract_x
  _atom_site_fract_y
  _atom_site_fract_z
  _atom_site_occupancy
  Cu  Cu1       1.0  0.13496  0.69282  0.22317  1.0000
  Cu  Cu2       1.0  0.86504  0.30718  0.77683  1.0000
  H   H1        1.0  0.28722  0.58080  0.40450  1.0000
  H   H2        1.0  0.71278  0.41920  0.59550  1.0000
  H   H3        1.0  0.55579  0.85358  0.50489  1.0000
  H   H4        1.0  0.44421  0.14642  0.49511  1.0000
  H   H5        1.0  0.77528  0.00288  0.52563  1.0000
  H   H6        1.0  0.22472  0.99712  0.47437  1.0000
  H   H7        1.0  0.78733  0.99372  0.17201  1.0000
  H   H8        1.0  0.21268  0.00628  0.82799  1.0000
  H   H9        1.0  0.55772  0.85699  0.15218  1.0000
  H   H10       1.0  0.44228  0.14301  0.84782  1.0000
  H   H11       1.0  0.25716  0.15864  0.26141  1.0000
  H   H12       1.0  0.74284  0.84136  0.73859  1.0000
  H   H13       1.0  0.00270  0.40011  0.47706  1.0000
  H   H14       1.0  0.99730  0.59989  0.52294  1.0000
  H   H15       1.0  0.81007  0.23002  0.47117  1.0000
  H   H16       1.0  0.18993  0.76997  0.52883  1.0000
  H   H17       1.0  0.37974  0.56656  0.08558  1.0000
  H   H18       1.0  0.62026  0.43344  0.91442  1.0000
  H   H19       1.0  0.39643  0.35301  0.97485  1.0000
  H   H20       1.0  0.60357  0.64698  0.02515  1.0000
  H   H21       1.0  0.18264  0.19683  0.96630  1.0000
  H   H22       1.0  0.81736  0.80317  0.03370  1.0000
  H   H23       1.0  0.92598  0.14738  0.02566  1.0000
  H   H24       1.0  0.07402  0.85262  0.97434  1.0000
  H   H25       1.0  0.71401  0.21534  0.13425  1.0000
  H   H26       1.0  0.28599  0.78466  0.86575  1.0000
  H   H27       1.0  0.59801  0.38465  0.26661  1.0000
  H   H28       1.0  0.40199  0.61535  0.73339  1.0000
  H   H29       1.0  0.62454  0.59765  0.37032  1.0000
  H   H30       1.0  0.37546  0.40235  0.62968  1.0000
  H   H31       1.0  0.84858  0.73769  0.34944  1.0000
  H   H32       1.0  0.15142  0.26231  0.65056  1.0000
  C   C1        1.0  0.40992  0.76172  0.31722  1.0000
  C   C2        1.0  0.59008  0.23828  0.68278  1.0000
  C   C3        1.0  0.54403  0.84677  0.32741  1.0000
  C   C4        1.0  0.45596  0.15323  0.67259  1.0000
  C   C5        1.0  0.60623  0.88669  0.43269  1.0000
  C   C6        1.0  0.39377  0.11331  0.56731  1.0000
  C   C7        1.0  0.72892  0.96866  0.44400  1.0000
  C   C8        1.0  0.27108  0.03134  0.55600  1.0000
  C   C9        1.0  0.79615  0.00661  0.35035  1.0000
  C   C10       1.0  0.20385  0.99338  0.64965  1.0000
  C   C11       1.0  0.73564  0.96357  0.24484  1.0000
  C   C12       1.0  0.26436  0.03643  0.75516  1.0000
  C   C13       1.0  0.60874  0.88677  0.23350  1.0000
  C   C14       1.0  0.39126  0.11323  0.76650  1.0000
  C   C15       1.0  0.92235  0.09791  0.36197  1.0000
  C   C16       1.0  0.07765  0.90209  0.63803  1.0000
  C   C17       1.0  0.05063  0.07670  0.30421  1.0000
  C   C18       1.0  0.94937  0.92330  0.69579  1.0000
  C   C19       1.0  0.07536  0.95041  0.24010  1.0000
  C   C20       1.0  0.92464  0.04959  0.75991  1.0000
  C   C21       1.0  0.15888  0.17336  0.30739  1.0000
  C   C22       1.0  0.84112  0.82664  0.69261  1.0000
  C   C23       1.0  0.14214  0.29058  0.36869  1.0000
  C   C24       1.0  0.85786  0.70942  0.63131  1.0000
  C   C25       1.0  0.25465  0.39501  0.36405  1.0000
  C   C26       1.0  0.74535  0.60499  0.63595  1.0000
  C   C27       1.0  0.01717  0.30945  0.42941  1.0000
  C   C28       1.0  0.98283  0.69055  0.57059  1.0000
  C   C29       1.0  0.90896  0.21380  0.42628  1.0000
  C   C30       1.0  0.09104  0.78620  0.57372  1.0000
  C   C31       1.0  0.28929  0.49620  0.07772  1.0000
  C   C32       1.0  0.71071  0.50380  0.92228  1.0000
  C   C33       1.0  0.29731  0.37657  0.01727  1.0000
  C   C34       1.0  0.70270  0.62342  0.98274  1.0000
  C   C35       1.0  0.17962  0.29019  0.01251  1.0000
  C   C36       1.0  0.82038  0.70980  0.98749  1.0000
  C   C37       1.0  0.05296  0.32337  0.06899  1.0000
  C   C38       1.0  0.94704  0.67663  0.93100  1.0000
  C   C39       1.0  0.05422  0.44618  0.12674  1.0000
  C   C40       1.0  0.94578  0.55382  0.87326  1.0000
  C   C41       1.0  0.92637  0.24068  0.07211  1.0000
  C   C42       1.0  0.07364  0.75932  0.92790  1.0000
  C   C43       1.0  0.80947  0.27915  0.13109  1.0000
  C   C44       1.0  0.19053  0.72085  0.86891  1.0000
  C   C45       1.0  0.80923  0.40192  0.19201  1.0000
  C   C46       1.0  0.19077  0.59808  0.80799  1.0000
  C   C47       1.0  0.93189  0.48577  0.18795  1.0000
  C   C48       1.0  0.06812  0.51423  0.81205  1.0000
  C   C49       1.0  0.69553  0.44471  0.25899  1.0000
  C   C50       1.0  0.30447  0.55529  0.74101  1.0000
  C   C51       1.0  0.70956  0.56401  0.31663  1.0000
  C   C52       1.0  0.29044  0.43599  0.68337  1.0000
  C   C53       1.0  0.83439  0.64267  0.30616  1.0000
  C   C54       1.0  0.16561  0.35733  0.69384  1.0000
  N   N1        1.0  0.17018  0.53021  0.12999  1.0000
  N   N2        1.0  0.82982  0.46979  0.87001  1.0000
  N   N3        1.0  0.94235  0.60409  0.24301  1.0000
  N   N4        1.0  0.05765  0.39591  0.75699  1.0000
  O   O1        1.0  0.34012  0.75047  0.22151  1.0000
  O   O2        1.0  0.65987  0.24953  0.77849  1.0000
  O   O3        1.0  0.37334  0.70744  0.40125  1.0000
  O   O4        1.0  0.62666  0.29257  0.59875  1.0000
  O   O5        1.0  0.09093  0.94558  0.13887  1.0000
  O   O6        1.0  0.90907  0.05441  0.86113  1.0000
  O   O7        1.0  0.08083  0.85325  0.30125  1.0000
  O   O8        1.0  0.91917  0.14675  0.69875  1.0000
  O   O9        1.0  0.36901  0.38107  0.31536  1.0000
  O   O10       1.0  0.63099  0.61893  0.68464  1.0000
  O   O11       1.0  0.21543  0.50589  0.41519  1.0000
  O   O12       1.0  0.78457  0.49411  0.58481  1.0000
