data_image0
_chemical_formula_structural       Cd2H12C16N24
_chemical_formula_sum              "Cd2 H12 C16 N24"
_cell_length_a       7.32343
_cell_length_b       8.87253
_cell_length_c       10.1452
_cell_angle_alpha    81.4305
_cell_angle_beta     68.8391
_cell_angle_gamma    65.6097

_space_group_name_H-M_alt    "P 1"
_space_group_IT_number       1

loop_
  _space_group_symop_operation_xyz
  'x, y, z'

loop_
  _atom_site_type_symbol
  _atom_site_label
  _atom_site_symmetry_multiplicity
  _atom_site_fract_x
  _atom_site_fract_y
  _atom_site_fract_z
  _atom_site_occupancy
  Cd  Cd1       1.0  0.83194  0.99994  0.00003  1.0000
  Cd  Cd2       1.0  0.58185  0.50001  0.50002  1.0000
  H   H1        1.0  0.11222  0.68148  0.44462  1.0000
  H   H2        1.0  0.23830  0.31845  0.55553  1.0000
  H   H3        1.0  0.30692  0.18151  0.05540  1.0000
  H   H4        1.0  0.54385  0.81854  0.94435  1.0000
  H   H5        1.0  0.29701  0.64656  0.00041  1.0000
  H   H6        1.0  0.94384  0.35342  0.99971  1.0000
  H   H7        1.0  0.04722  0.14678  0.49960  1.0000
  H   H8        1.0  0.69352  0.85337  0.50019  1.0000
  H   H9        1.0  0.70364  0.13458  0.34859  1.0000
  H   H10       1.0  0.18630  0.86537  0.65140  1.0000
  H   H11       1.0  0.80203  0.63457  0.15166  1.0000
  H   H12       1.0  0.58796  0.36527  0.84857  1.0000
  C   C1        1.0  0.11298  0.71253  0.33677  1.0000
  C   C2        1.0  0.16214  0.28741  0.66336  1.0000
  C   C3        1.0  0.19974  0.21262  0.16324  1.0000
  C   C4        1.0  0.57553  0.78751  0.83654  1.0000
  C   C5        1.0  0.21057  0.69422  0.10737  1.0000
  C   C6        1.0  0.01193  0.30577  0.89277  1.0000
  C   C7        1.0  0.06778  0.19441  0.39263  1.0000
  C   C8        1.0  0.65475  0.80576  0.60715  1.0000
  C   C9        1.0  0.62115  0.23159  0.28681  1.0000
  C   C10       1.0  0.13921  0.76835  0.71322  1.0000
  C   C11       1.0  0.65776  0.73158  0.21335  1.0000
  C   C12       1.0  0.60263  0.26829  0.78671  1.0000
  C   C13       1.0  0.42010  0.45532  0.22322  1.0000
  C   C14       1.0  0.09850  0.54459  0.77692  1.0000
  C   C15       1.0  0.39319  0.95537  0.27685  1.0000
  C   C16       1.0  0.62545  0.04461  0.72302  1.0000
  N   N1        1.0  0.98160  0.84672  0.29376  1.0000
  N   N2        1.0  0.12200  0.15323  0.70639  1.0000
  N   N3        1.0  0.02542  0.34688  0.20621  1.0000
  N   N4        1.0  0.57836  0.65331  0.79356  1.0000
  N   N5        1.0  0.04498  0.83477  0.14807  1.0000
  N   N6        1.0  0.02767  0.16521  0.85208  1.0000
  N   N7        1.0  0.94301  0.33500  0.35190  1.0000
  N   N8        1.0  0.62976  0.66522  0.64788  1.0000
  N   N9        1.0  0.26025  0.61305  0.22331  1.0000
  N   N10       1.0  0.09648  0.38690  0.77682  1.0000
  N   N11       1.0  0.23343  0.11316  0.27671  1.0000
  N   N12       1.0  0.62329  0.88693  0.72308  1.0000
  N   N13       1.0  0.52243  0.36265  0.10747  1.0000
  N   N14       1.0  0.99246  0.63727  0.89267  1.0000
  N   N15       1.0  0.37963  0.86280  0.39263  1.0000
  N   N16       1.0  0.63511  0.13730  0.60730  1.0000
  N   N17       1.0  0.65348  0.21702  0.15004  1.0000
  N   N18       1.0  0.02035  0.78290  0.85004  1.0000
  N   N19       1.0  0.55323  0.71714  0.35014  1.0000
  N   N20       1.0  0.62046  0.28291  0.64993  1.0000
  N   N21       1.0  0.47364  0.38265  0.33902  1.0000
  N   N22       1.0  0.19493  0.61730  0.66104  1.0000
  N   N23       1.0  0.56252  0.88264  0.16108  1.0000
  N   N24       1.0  0.60615  0.11725  0.83886  1.0000
