data_image0
_chemical_formula_structural       Cd2H24C24N4Cl4
_chemical_formula_sum              "Cd2 H24 C24 N4 Cl4"
_cell_length_a       7.25605
_cell_length_b       9.27923
_cell_length_c       10.7668
_cell_angle_alpha    115.622
_cell_angle_beta     103.475
_cell_angle_gamma    89.949

_space_group_name_H-M_alt    "P 1"
_space_group_IT_number       1

loop_
  _space_group_symop_operation_xyz
  'x, y, z'

loop_
  _atom_site_type_symbol
  _atom_site_label
  _atom_site_symmetry_multiplicity
  _atom_site_fract_x
  _atom_site_fract_y
  _atom_site_fract_z
  _atom_site_occupancy
  Cd  Cd1       1.0  0.25010  0.42093  0.00015  1.0000
  Cd  Cd2       1.0  0.74990  0.57907  0.99985  1.0000
  H   H1        1.0  0.94411  0.18008  0.70809  1.0000
  H   H2        1.0  0.55638  0.47237  0.29199  1.0000
  H   H3        1.0  0.05589  0.81992  0.29191  1.0000
  H   H4        1.0  0.44362  0.52763  0.70801  1.0000
  H   H5        1.0  0.84592  0.89252  0.44446  1.0000
  H   H6        1.0  0.65399  0.44879  0.55556  1.0000
  H   H7        1.0  0.15408  0.10748  0.55554  1.0000
  H   H8        1.0  0.34601  0.55121  0.44444  1.0000
  H   H9        1.0  0.65342  0.92807  0.52426  1.0000
  H   H10       1.0  0.84680  0.40438  0.47602  1.0000
  H   H11       1.0  0.34658  0.07193  0.47574  1.0000
  H   H12       1.0  0.15320  0.59562  0.52399  1.0000
  H   H13       1.0  0.74203  0.73819  0.46910  1.0000
  H   H14       1.0  0.75805  0.26962  0.53077  1.0000
  H   H15       1.0  0.25797  0.26181  0.53090  1.0000
  H   H16       1.0  0.24195  0.73037  0.46923  1.0000
  H   H17       1.0  0.92759  0.69612  0.66890  1.0000
  H   H18       1.0  0.57232  0.02751  0.33086  1.0000
  H   H19       1.0  0.07241  0.30388  0.33110  1.0000
  H   H20       1.0  0.42767  0.97249  0.66914  1.0000
  H   H21       1.0  0.15452  0.79989  0.90293  1.0000
  H   H22       1.0  0.34555  0.89699  0.09686  1.0000
  H   H23       1.0  0.84547  0.20011  0.09707  1.0000
  H   H24       1.0  0.65444  0.10302  0.90314  1.0000
  C   C1        1.0  0.99106  0.08941  0.74433  1.0000
  C   C2        1.0  0.50933  0.34539  0.25565  1.0000
  C   C3        1.0  0.00894  0.91059  0.25567  1.0000
  C   C4        1.0  0.49068  0.65461  0.74435  1.0000
  C   C5        1.0  0.92073  0.92640  0.66238  1.0000
  C   C6        1.0  0.57959  0.26442  0.33752  1.0000
  C   C7        1.0  0.07926  0.07360  0.33762  1.0000
  C   C8        1.0  0.42042  0.73558  0.66248  1.0000
  C   C9        1.0  0.78404  0.86808  0.51827  1.0000
  C   C10       1.0  0.71611  0.35039  0.48173  1.0000
  C   C11       1.0  0.21596  0.13192  0.48173  1.0000
  C   C12       1.0  0.28389  0.64961  0.51827  1.0000
  C   C13       1.0  0.98193  0.82355  0.72394  1.0000
  C   C14       1.0  0.51819  0.09989  0.27586  1.0000
  C   C15       1.0  0.01807  0.17645  0.27606  1.0000
  C   C16       1.0  0.48180  0.90011  0.72414  1.0000
  C   C17       1.0  0.11067  0.88268  0.85736  1.0000
  C   C18       1.0  0.38945  0.02543  0.14246  1.0000
  C   C19       1.0  0.88933  0.11732  0.14264  1.0000
  C   C20       1.0  0.61054  0.97457  0.85754  1.0000
  C   C21       1.0  0.17926  0.04646  0.92955  1.0000
  C   C22       1.0  0.32101  0.11693  0.07032  1.0000
  C   C23       1.0  0.82074  0.95355  0.07045  1.0000
  C   C24       1.0  0.67899  0.88308  0.92968  1.0000
  N   N1        1.0  0.11617  0.14666  0.87224  1.0000
  N   N2        1.0  0.38423  0.27454  0.12772  1.0000
  N   N3        1.0  0.88383  0.85334  0.12775  1.0000
  N   N4        1.0  0.61577  0.72546  0.87228  1.0000
  Cl  Cl1       1.0  0.01047  0.50408  0.83330  1.0000
  Cl  Cl2       1.0  0.48971  0.67110  0.16690  1.0000
  Cl  Cl3       1.0  0.98952  0.49592  0.16670  1.0000
  Cl  Cl4       1.0  0.51030  0.32890  0.83310  1.0000
