data_image0
_chemical_formula_structural       Cu2H18C14N2O14
_chemical_formula_sum              "Cu2 H18 C14 N2 O14"
_cell_length_a       7.25957
_cell_length_b       8.65801
_cell_length_c       9.50376
_cell_angle_alpha    62.9078
_cell_angle_beta     80.8994
_cell_angle_gamma    69.7264

_space_group_name_H-M_alt    "P 1"
_space_group_IT_number       1

loop_
  _space_group_symop_operation_xyz
  'x, y, z'

loop_
  _atom_site_type_symbol
  _atom_site_label
  _atom_site_symmetry_multiplicity
  _atom_site_fract_x
  _atom_site_fract_y
  _atom_site_fract_z
  _atom_site_occupancy
  Cu  Cu1       1.0  0.21504  0.13899  0.74516  1.0000
  Cu  Cu2       1.0  0.71453  0.88437  0.25494  1.0000
  H   H1        1.0  0.19321  0.74040  0.39622  1.0000
  H   H2        1.0  0.69292  0.13678  0.60385  1.0000
  H   H3        1.0  0.16471  0.59112  0.69216  1.0000
  H   H4        1.0  0.66338  0.28378  0.30798  1.0000
  H   H5        1.0  0.18471  0.75602  0.84527  1.0000
  H   H6        1.0  0.68314  0.60184  0.15488  1.0000
  H   H7        1.0  0.57227  0.86739  0.87150  1.0000
  H   H8        1.0  0.07188  0.73921  0.12811  1.0000
  H   H9        1.0  0.37288  0.97634  0.01662  1.0000
  H   H10       1.0  0.87265  0.99311  0.98338  1.0000
  H   H11       1.0  0.29642  0.81879  0.02583  1.0000
  H   H12       1.0  0.79636  0.84483  0.97401  1.0000
  H   H13       1.0  0.35851  0.30621  0.84468  1.0000
  H   H14       1.0  0.85821  0.15072  0.15563  1.0000
  H   H15       1.0  0.16179  0.26825  0.93976  1.0000
  H   H16       1.0  0.66161  0.20822  0.06039  1.0000
  H   H17       1.0  0.75036  0.75676  0.79593  1.0000
  H   H18       1.0  0.24977  0.55287  0.20373  1.0000
  C   C1        1.0  0.23403  0.07072  0.21408  1.0000
  C   C2        1.0  0.73410  0.28506  0.78591  1.0000
  C   C3        1.0  0.23996  0.25698  0.42143  1.0000
  C   C4        1.0  0.74023  0.67846  0.57857  1.0000
  C   C5        1.0  0.22096  0.06973  0.48512  1.0000
  C   C6        1.0  0.72072  0.55502  0.51493  1.0000
  C   C7        1.0  0.21532  0.98560  0.39142  1.0000
  C   C8        1.0  0.71522  0.37720  0.60858  1.0000
  C   C9        1.0  0.19597  0.81020  0.46663  1.0000
  C   C10       1.0  0.69552  0.27703  0.53344  1.0000
  C   C11       1.0  0.18211  0.72645  0.63052  1.0000
  C   C12       1.0  0.68113  0.35739  0.36959  1.0000
  C   C13       1.0  0.19151  0.81771  0.71664  1.0000
  C   C14       1.0  0.69035  0.53481  0.28347  1.0000
  N   N1        1.0  0.21009  0.98542  0.64436  1.0000
  N   N2        1.0  0.70936  0.63014  0.35572  1.0000
  O   O1        1.0  0.40297  0.01684  0.15823  1.0000
  O   O2        1.0  0.90294  0.17507  0.84160  1.0000
  O   O3        1.0  0.08222  0.17592  0.12974  1.0000
  O   O4        1.0  0.58232  0.30636  0.87031  1.0000
  O   O5        1.0  0.22355  0.32061  0.52397  1.0000
  O   O6        1.0  0.72373  0.84462  0.47611  1.0000
  O   O7        1.0  0.26993  0.33921  0.27677  1.0000
  O   O8        1.0  0.77071  0.61594  0.72317  1.0000
  O   O9        1.0  0.71351  0.84820  0.84168  1.0000
  O   O10       1.0  0.21314  0.69003  0.15786  1.0000
  O   O11       1.0  0.34873  0.92642  0.94559  1.0000
  O   O12       1.0  0.84841  0.87220  0.05436  1.0000
  O   O13       1.0  0.22356  0.30718  0.83136  1.0000
  O   O14       1.0  0.72313  0.13865  0.16885  1.0000
