data_image0
_chemical_formula_structural       Zn2H34C32S2N2O8
_chemical_formula_sum              "Zn2 H34 C32 S2 N2 O8"
_cell_length_a       7.58033
_cell_length_b       9.58386
_cell_length_c       11.7014
_cell_angle_alpha    107.165
_cell_angle_beta     90.0002
_cell_angle_gamma    89.9997

_space_group_name_H-M_alt    "P 1"
_space_group_IT_number       1

loop_
  _space_group_symop_operation_xyz
  'x, y, z'

loop_
  _atom_site_type_symbol
  _atom_site_label
  _atom_site_symmetry_multiplicity
  _atom_site_fract_x
  _atom_site_fract_y
  _atom_site_fract_z
  _atom_site_occupancy
  Zn  Zn1       1.0  0.00804  0.33153  0.55842  1.0000
  Zn  Zn2       1.0  0.50804  0.66847  0.44158  1.0000
  H   H1        1.0  0.84632  0.51511  0.04341  1.0000
  H   H2        1.0  0.34632  0.48489  0.95659  1.0000
  H   H3        1.0  0.80089  0.47636  0.23696  1.0000
  H   H4        1.0  0.30089  0.52364  0.76304  1.0000
  H   H5        1.0  0.91195  0.25286  0.28011  1.0000
  H   H6        1.0  0.41196  0.74714  0.71989  1.0000
  H   H7        1.0  0.08457  0.07006  0.12385  1.0000
  H   H8        1.0  0.58458  0.92994  0.87615  1.0000
  H   H9        1.0  0.22248  0.99186  0.93000  1.0000
  H   H10       1.0  0.72247  0.00814  0.07000  1.0000
  H   H11       1.0  0.27169  0.01847  0.72817  1.0000
  H   H12       1.0  0.77169  0.98154  0.27183  1.0000
  H   H13       1.0  0.88285  0.53325  0.89250  1.0000
  H   H14       1.0  0.38284  0.46675  0.10750  1.0000
  H   H15       1.0  0.74919  0.64019  0.77217  1.0000
  H   H16       1.0  0.24918  0.35981  0.22783  1.0000
  H   H17       1.0  0.03948  0.76180  0.82653  1.0000
  H   H18       1.0  0.53947  0.23820  0.17347  1.0000
  H   H19       1.0  0.92374  0.83621  0.72572  1.0000
  H   H20       1.0  0.42374  0.16378  0.27428  1.0000
  H   H21       1.0  0.10295  0.71220  0.67362  1.0000
  H   H22       1.0  0.60295  0.28780  0.32638  1.0000
  H   H23       1.0  0.64286  0.32389  0.69735  1.0000
  H   H24       1.0  0.14286  0.67611  0.30264  1.0000
  H   H25       1.0  0.42906  0.24674  0.64264  1.0000
  H   H26       1.0  0.92906  0.75326  0.35736  1.0000
  H   H27       1.0  0.53974  0.36156  0.57062  1.0000
  H   H28       1.0  0.03974  0.63844  0.42938  1.0000
  H   H29       1.0  0.77375  0.92600  0.57755  1.0000
  H   H30       1.0  0.27375  0.07400  0.42245  1.0000
  H   H31       1.0  0.58177  0.00065  0.66057  1.0000
  H   H32       1.0  0.08177  0.99935  0.33943  1.0000
  H   H33       1.0  0.79103  0.09685  0.69610  1.0000
  H   H34       1.0  0.29103  0.90315  0.30390  1.0000
  C   C1        1.0  0.12087  0.21798  0.75938  1.0000
  C   C2        1.0  0.62087  0.78202  0.24062  1.0000
  C   C3        1.0  0.02082  0.32723  0.84573  1.0000
  C   C4        1.0  0.52081  0.67277  0.15427  1.0000
  C   C5        1.0  0.99374  0.31297  0.96500  1.0000
  C   C6        1.0  0.49374  0.68704  0.03500  1.0000
  C   C7        1.0  0.90044  0.41618  0.05745  1.0000
  C   C8        1.0  0.40044  0.58382  0.94255  1.0000
  C   C9        1.0  0.87297  0.39472  0.16810  1.0000
  C   C10       1.0  0.37297  0.60528  0.83190  1.0000
  C   C11       1.0  0.93490  0.26820  0.19283  1.0000
  C   C12       1.0  0.43491  0.73180  0.80717  1.0000
  C   C13       1.0  0.03037  0.16734  0.10618  1.0000
  C   C14       1.0  0.53037  0.83266  0.89382  1.0000
  C   C15       1.0  0.06350  0.18804  0.99328  1.0000
  C   C16       1.0  0.56350  0.81196  0.00671  1.0000
  C   C17       1.0  0.16670  0.08478  0.90630  1.0000
  C   C18       1.0  0.66669  0.91522  0.09370  1.0000
  C   C19       1.0  0.19543  0.09933  0.79522  1.0000
  C   C20       1.0  0.69543  0.90067  0.20478  1.0000
  C   C21       1.0  0.94687  0.45096  0.81832  1.0000
  C   C22       1.0  0.44686  0.54904  0.18168  1.0000
  C   C23       1.0  0.85928  0.61062  0.70810  1.0000
  C   C24       1.0  0.35928  0.38938  0.29190  1.0000
  C   C25       1.0  0.98979  0.73837  0.73480  1.0000
  C   C26       1.0  0.48979  0.26162  0.26520  1.0000
  C   C27       1.0  0.78026  0.58709  0.58325  1.0000
  C   C28       1.0  0.28026  0.41291  0.41675  1.0000
  C   C29       1.0  0.55921  0.28048  0.61856  1.0000
  C   C30       1.0  0.05920  0.71952  0.38144  1.0000
  C   C31       1.0  0.70719  0.02759  0.62542  1.0000
  C   C32       1.0  0.20719  0.97241  0.37458  1.0000
  S   S1        1.0  0.65693  0.12119  0.51756  1.0000
  S   S2        1.0  0.15694  0.87881  0.48244  1.0000
  N   N1        1.0  0.94417  0.47676  0.71482  1.0000
  N   N2        1.0  0.44416  0.52324  0.28518  1.0000
  O   O1        1.0  0.15123  0.21944  0.65031  1.0000
  O   O2        1.0  0.65123  0.78056  0.34969  1.0000
  O   O3        1.0  0.82580  0.47852  0.49754  1.0000
  O   O4        1.0  0.32580  0.52148  0.50246  1.0000
  O   O5        1.0  0.67178  0.68645  0.57610  1.0000
  O   O6        1.0  0.17178  0.31355  0.42390  1.0000
  O   O7        1.0  0.83531  0.16453  0.47563  1.0000
  O   O8        1.0  0.33531  0.83547  0.52437  1.0000
