data_image0
_chemical_formula_structural       Cd4H28C28N4O28
_chemical_formula_sum              "Cd4 H28 C28 N4 O28"
_cell_length_a       8.52998
_cell_length_b       11.4255
_cell_length_c       11.0493
_cell_angle_alpha    87.4728
_cell_angle_beta     76.8104
_cell_angle_gamma    79.7991

_space_group_name_H-M_alt    "P 1"
_space_group_IT_number       1

loop_
  _space_group_symop_operation_xyz
  'x, y, z'

loop_
  _atom_site_type_symbol
  _atom_site_label
  _atom_site_symmetry_multiplicity
  _atom_site_fract_x
  _atom_site_fract_y
  _atom_site_fract_z
  _atom_site_occupancy
  Cd  Cd1       1.0  0.52296  0.42298  0.34042  1.0000
  Cd  Cd2       1.0  0.47705  0.57703  0.65958  1.0000
  Cd  Cd3       1.0  0.63974  0.07102  0.36231  1.0000
  Cd  Cd4       1.0  0.36026  0.92898  0.63769  1.0000
  H   H1        1.0  0.04844  0.78143  0.99107  1.0000
  H   H2        1.0  0.95155  0.21857  0.00892  1.0000
  H   H3        1.0  0.29768  0.55607  0.21453  1.0000
  H   H4        1.0  0.70233  0.44393  0.78546  1.0000
  H   H5        1.0  0.30529  0.63260  0.32385  1.0000
  H   H6        1.0  0.69470  0.36741  0.67615  1.0000
  H   H7        1.0  0.36548  0.21714  0.28230  1.0000
  H   H8        1.0  0.63452  0.78285  0.71770  1.0000
  H   H9        1.0  0.32469  0.24873  0.43259  1.0000
  H   H10       1.0  0.67531  0.75127  0.56741  1.0000
  H   H11       1.0  0.71696  0.25222  0.49635  1.0000
  H   H12       1.0  0.28303  0.74778  0.50366  1.0000
  H   H13       1.0  0.83144  0.25829  0.35508  1.0000
  H   H14       1.0  0.16857  0.74171  0.64493  1.0000
  H   H15       1.0  0.52933  0.72448  0.89569  1.0000
  H   H16       1.0  0.47068  0.27551  0.10431  1.0000
  H   H17       1.0  0.84716  0.85298  0.41206  1.0000
  H   H18       1.0  0.15284  0.14702  0.58794  1.0000
  H   H19       1.0  0.84188  0.94726  0.51141  1.0000
  H   H20       1.0  0.15810  0.05274  0.48860  1.0000
  H   H21       1.0  0.93252  0.74131  0.20816  1.0000
  H   H22       1.0  0.06748  0.25869  0.79183  1.0000
  H   H23       1.0  0.84753  0.55535  0.90281  1.0000
  H   H24       1.0  0.15248  0.44465  0.09718  1.0000
  H   H25       1.0  0.78936  0.94822  0.89241  1.0000
  H   H26       1.0  0.21064  0.05177  0.10759  1.0000
  H   H27       1.0  0.43074  0.75301  0.11372  1.0000
  H   H28       1.0  0.56927  0.24698  0.88627  1.0000
  C   C1        1.0  0.77227  0.61118  0.25160  1.0000
  C   C2        1.0  0.22773  0.38882  0.74840  1.0000
  C   C3        1.0  0.87649  0.67616  0.17177  1.0000
  C   C4        1.0  0.12350  0.32385  0.82823  1.0000
  C   C5        1.0  0.90624  0.65688  0.04236  1.0000
  C   C6        1.0  0.09376  0.34312  0.95764  1.0000
  C   C7        1.0  0.82868  0.57195  0.00165  1.0000
  C   C8        1.0  0.17132  0.42805  0.99834  1.0000
  C   C9        1.0  0.73110  0.50904  0.08806  1.0000
  C   C10       1.0  0.26890  0.49095  0.91194  1.0000
  C   C11       1.0  0.72170  0.63490  0.38975  1.0000
  C   C12       1.0  0.27830  0.36511  0.61024  1.0000
  C   C13       1.0  0.65128  0.41539  0.04615  1.0000
  C   C14       1.0  0.34872  0.58461  0.95385  1.0000
  C   C15       1.0  0.70997  0.98690  0.08768  1.0000
  C   C16       1.0  0.29002  0.01309  0.91232  1.0000
  C   C17       1.0  0.71050  0.92820  0.98029  1.0000
  C   C18       1.0  0.28951  0.07180  0.01972  1.0000
  C   C19       1.0  0.60948  0.84235  0.98845  1.0000
  C   C20       1.0  0.39053  0.15764  0.01156  1.0000
  C   C21       1.0  0.51079  0.81902  0.10509  1.0000
  C   C22       1.0  0.48921  0.18097  0.89491  1.0000
  C   C23       1.0  0.51984  0.88139  0.20782  1.0000
  C   C24       1.0  0.48016  0.11861  0.79218  1.0000
  C   C25       1.0  0.81307  0.08238  0.08669  1.0000
  C   C26       1.0  0.18693  0.91762  0.91330  1.0000
  C   C27       1.0  0.42517  0.85980  0.33822  1.0000
  C   C28       1.0  0.57482  0.14019  0.66179  1.0000
  N   N1        1.0  0.70288  0.52798  0.21104  1.0000
  N   N2        1.0  0.29712  0.47202  0.78896  1.0000
  N   N3        1.0  0.61742  0.96340  0.19861  1.0000
  N   N4        1.0  0.38258  0.03659  0.80139  1.0000
  O   O1        1.0  0.77819  0.71540  0.43355  1.0000
  O   O2        1.0  0.22181  0.28460  0.56644  1.0000
  O   O3        1.0  0.61942  0.57416  0.45352  1.0000
  O   O4        1.0  0.38058  0.42585  0.54647  1.0000
  O   O5        1.0  0.00120  0.71265  0.95692  1.0000
  O   O6        1.0  0.99880  0.28734  0.04307  1.0000
  O   O7        1.0  0.67010  0.39674  0.93272  1.0000
  O   O8        1.0  0.32990  0.60326  0.06728  1.0000
  O   O9        1.0  0.56571  0.35885  0.13288  1.0000
  O   O10       1.0  0.43431  0.64114  0.86712  1.0000
  O   O11       1.0  0.29241  0.55143  0.30568  1.0000
  O   O12       1.0  0.70760  0.44857  0.69432  1.0000
  O   O13       1.0  0.41290  0.22870  0.35337  1.0000
  O   O14       1.0  0.58710  0.77130  0.64664  1.0000
  O   O15       1.0  0.71984  0.26527  0.40426  1.0000
  O   O16       1.0  0.28016  0.73473  0.59575  1.0000
  O   O17       1.0  0.87897  0.12098  0.98119  1.0000
  O   O18       1.0  0.12101  0.87903  0.01881  1.0000
  O   O19       1.0  0.82496  0.11919  0.19049  1.0000
  O   O20       1.0  0.17504  0.88081  0.80951  1.0000
  O   O21       1.0  0.61156  0.78502  0.88523  1.0000
  O   O22       1.0  0.38845  0.21497  0.11477  1.0000
  O   O23       1.0  0.33983  0.77806  0.35780  1.0000
  O   O24       1.0  0.66017  0.22195  0.64220  1.0000
  O   O25       1.0  0.43994  0.92792  0.42290  1.0000
  O   O26       1.0  0.56006  0.07209  0.57710  1.0000
  O   O27       1.0  0.86351  0.93571  0.42190  1.0000
  O   O28       1.0  0.13649  0.06430  0.57811  1.0000
