data_image0
_chemical_formula_structural       Ag4H28C24N8O12
_chemical_formula_sum              "Ag4 H28 C24 N8 O12"
_cell_length_a       7.15844
_cell_length_b       9.90817
_cell_length_c       12.2689
_cell_angle_alpha    110.506
_cell_angle_beta     90.9327
_cell_angle_gamma    100.08

_space_group_name_H-M_alt    "P 1"
_space_group_IT_number       1

loop_
  _space_group_symop_operation_xyz
  'x, y, z'

loop_
  _atom_site_type_symbol
  _atom_site_label
  _atom_site_symmetry_multiplicity
  _atom_site_fract_x
  _atom_site_fract_y
  _atom_site_fract_z
  _atom_site_occupancy
  Ag  Ag1       1.0  0.46338  0.62440  0.73921  1.0000
  Ag  Ag2       1.0  0.53662  0.37559  0.26079  1.0000
  Ag  Ag3       1.0  0.92541  0.54356  0.22386  1.0000
  Ag  Ag4       1.0  0.07458  0.45645  0.77614  1.0000
  H   H1        1.0  0.06004  0.89157  0.79170  1.0000
  H   H2        1.0  0.93996  0.10842  0.20830  1.0000
  H   H3        1.0  0.14911  0.79847  0.85266  1.0000
  H   H4        1.0  0.85088  0.20151  0.14734  1.0000
  H   H5        1.0  0.81157  0.91005  0.70352  1.0000
  H   H6        1.0  0.18844  0.08996  0.29649  1.0000
  H   H7        1.0  0.81868  0.05905  0.81516  1.0000
  H   H8        1.0  0.18134  0.94096  0.18485  1.0000
  H   H9        1.0  0.60909  0.39395  0.79860  1.0000
  H   H10       1.0  0.39091  0.60605  0.20140  1.0000
  H   H11       1.0  0.81564  0.80766  0.16106  1.0000
  H   H12       1.0  0.18435  0.19233  0.83893  1.0000
  H   H13       1.0  0.72200  0.91412  0.92480  1.0000
  H   H14       1.0  0.27801  0.08588  0.07519  1.0000
  H   H15       1.0  0.49051  0.86837  0.96645  1.0000
  H   H16       1.0  0.50948  0.13163  0.03353  1.0000
  H   H17       1.0  0.68214  0.96430  0.07715  1.0000
  H   H18       1.0  0.31784  0.03572  0.92284  1.0000
  H   H19       1.0  0.35542  0.82645  0.61462  1.0000
  H   H20       1.0  0.64460  0.17354  0.38538  1.0000
  H   H21       1.0  0.08833  0.34225  0.33103  1.0000
  H   H22       1.0  0.91166  0.65775  0.66898  1.0000
  H   H23       1.0  0.01512  0.84449  0.42643  1.0000
  H   H24       1.0  0.98489  0.15552  0.57357  1.0000
  H   H25       1.0  0.19863  0.82117  0.32939  1.0000
  H   H26       1.0  0.80137  0.17883  0.67061  1.0000
  H   H27       1.0  0.25297  0.93650  0.47969  1.0000
  H   H28       1.0  0.74704  0.06351  0.52030  1.0000
  C   C1        1.0  0.65715  0.48709  0.87919  1.0000
  C   C2        1.0  0.34284  0.51291  0.12081  1.0000
  C   C3        1.0  0.74390  0.46794  0.97381  1.0000
  C   C4        1.0  0.25609  0.53207  0.02620  1.0000
  C   C5        1.0  0.76805  0.71511  0.07991  1.0000
  C   C6        1.0  0.23195  0.28490  0.92011  1.0000
  C   C7        1.0  0.68033  0.73603  0.98540  1.0000
  C   C8        1.0  0.31967  0.26395  0.01461  1.0000
  C   C9        1.0  0.64268  0.87978  0.99021  1.0000
  C   C10       1.0  0.35732  0.12019  0.00978  1.0000
  C   C11       1.0  0.77846  0.31713  0.96382  1.0000
  C   C12       1.0  0.22155  0.68286  0.03618  1.0000
  C   C13       1.0  0.29751  0.71880  0.54993  1.0000
  C   C14       1.0  0.70250  0.28120  0.45006  1.0000
  C   C15       1.0  0.25502  0.46591  0.49688  1.0000
  C   C16       1.0  0.74497  0.53409  0.50312  1.0000
  C   C17       1.0  0.15407  0.45049  0.39337  1.0000
  C   C18       1.0  0.84592  0.54951  0.60663  1.0000
  C   C19       1.0  0.19715  0.70454  0.44629  1.0000
  C   C20       1.0  0.80285  0.29547  0.55371  1.0000
  C   C21       1.0  0.16567  0.83442  0.41941  1.0000
  C   C22       1.0  0.83433  0.16558  0.58060  1.0000
  C   C23       1.0  0.28421  0.33115  0.52443  1.0000
  C   C24       1.0  0.71578  0.66885  0.47557  1.0000
  N   N1        1.0  0.62418  0.61893  0.88553  1.0000
  N   N2        1.0  0.37582  0.38106  0.11448  1.0000
  N   N3        1.0  0.79725  0.58310  0.07436  1.0000
  N   N4        1.0  0.20273  0.41692  0.92564  1.0000
  N   N5        1.0  0.32272  0.60190  0.57512  1.0000
  N   N6        1.0  0.67729  0.39810  0.42488  1.0000
  N   N7        1.0  0.12219  0.56807  0.36995  1.0000
  N   N8        1.0  0.87780  0.43193  0.63005  1.0000
  O   O1        1.0  0.73905  0.21893  0.86368  1.0000
  O   O2        1.0  0.26096  0.78106  0.13633  1.0000
  O   O3        1.0  0.84352  0.30430  0.05572  1.0000
  O   O4        1.0  0.15649  0.69572  0.94431  1.0000
  O   O5        1.0  0.25658  0.21073  0.43987  1.0000
  O   O6        1.0  0.74342  0.78927  0.56013  1.0000
  O   O7        1.0  0.33261  0.35107  0.62999  1.0000
  O   O8        1.0  0.66737  0.64893  0.37001  1.0000
  O   O9        1.0  0.15710  0.82871  0.78426  1.0000
  O   O10       1.0  0.84291  0.17128  0.21574  1.0000
  O   O11       1.0  0.86878  0.96629  0.78398  1.0000
  O   O12       1.0  0.13126  0.03372  0.21602  1.0000
