data_image0
_chemical_formula_structural       Fe2H28C32Cl8O16
_chemical_formula_sum              "Fe2 H28 C32 Cl8 O16"
_cell_length_a       7.42452
_cell_length_b       7.37671
_cell_length_c       17.4364
_cell_angle_alpha    88.4785
_cell_angle_beta     89.9998
_cell_angle_gamma    89.9933

_space_group_name_H-M_alt    "P 1"
_space_group_IT_number       1

loop_
  _space_group_symop_operation_xyz
  'x, y, z'

loop_
  _atom_site_type_symbol
  _atom_site_label
  _atom_site_symmetry_multiplicity
  _atom_site_fract_x
  _atom_site_fract_y
  _atom_site_fract_z
  _atom_site_occupancy
  Fe  Fe1       1.0  0.50000  0.49999  0.00000  1.0000
  Fe  Fe2       1.0  1.00000  1.00000  0.00000  1.0000
  H   H1        1.0  0.07141  0.27870  0.35514  1.0000
  H   H2        1.0  0.57142  0.22135  0.64487  1.0000
  H   H3        1.0  0.92860  0.72130  0.64486  1.0000
  H   H4        1.0  0.42858  0.77865  0.35513  1.0000
  H   H5        1.0  0.14591  0.14283  0.23142  1.0000
  H   H6        1.0  0.64590  0.35716  0.76860  1.0000
  H   H7        1.0  0.85409  0.85715  0.76858  1.0000
  H   H8        1.0  0.35410  0.64282  0.23140  1.0000
  H   H9        1.0  0.63543  0.31863  0.40941  1.0000
  H   H10       1.0  0.13545  0.18139  0.59058  1.0000
  H   H11       1.0  0.36459  0.68142  0.59058  1.0000
  H   H12       1.0  0.86455  0.81860  0.40942  1.0000
  H   H13       1.0  0.23119  0.97723  0.15302  1.0000
  H   H14       1.0  0.73115  0.52280  0.84698  1.0000
  H   H15       1.0  0.76881  0.02275  0.84698  1.0000
  H   H16       1.0  0.26885  0.47720  0.15302  1.0000
  H   H17       1.0  0.41739  0.89166  0.10236  1.0000
  H   H18       1.0  0.91734  0.60829  0.89766  1.0000
  H   H19       1.0  0.58261  0.10833  0.89764  1.0000
  H   H20       1.0  0.08265  0.39170  0.10234  1.0000
  H   H21       1.0  0.69147  0.56018  0.12324  1.0000
  H   H22       1.0  0.19143  0.93981  0.87677  1.0000
  H   H23       1.0  0.30853  0.43981  0.87677  1.0000
  H   H24       1.0  0.80857  0.06018  0.12324  1.0000
  H   H25       1.0  0.70591  0.71587  0.05819  1.0000
  H   H26       1.0  0.20599  0.78417  0.94182  1.0000
  H   H27       1.0  0.29409  0.28413  0.94182  1.0000
  H   H28       1.0  0.79400  0.21583  0.05818  1.0000
  C   C1        1.0  0.43415  0.14574  0.25044  1.0000
  C   C2        1.0  0.93415  0.35424  0.74956  1.0000
  C   C3        1.0  0.56586  0.85426  0.74956  1.0000
  C   C4        1.0  0.06585  0.64576  0.25044  1.0000
  C   C5        1.0  0.56957  0.20110  0.30117  1.0000
  C   C6        1.0  0.06957  0.29890  0.69883  1.0000
  C   C7        1.0  0.43044  0.79892  0.69882  1.0000
  C   C8        1.0  0.93043  0.70110  0.30117  1.0000
  C   C9        1.0  0.21142  0.25657  0.33968  1.0000
  C   C10       1.0  0.71144  0.24345  0.66032  1.0000
  C   C11       1.0  0.78859  0.74344  0.66032  1.0000
  C   C12       1.0  0.28857  0.75655  0.33968  1.0000
  C   C13       1.0  0.25464  0.17973  0.26981  1.0000
  C   C14       1.0  0.75465  0.32027  0.73020  1.0000
  C   C15       1.0  0.74537  0.82026  0.73019  1.0000
  C   C16       1.0  0.24536  0.67973  0.26980  1.0000
  C   C17       1.0  0.34769  0.30277  0.39029  1.0000
  C   C18       1.0  0.84771  0.19725  0.60971  1.0000
  C   C19       1.0  0.65232  0.69726  0.60971  1.0000
  C   C20       1.0  0.15230  0.80275  0.39029  1.0000
  C   C21       1.0  0.52817  0.27912  0.37080  1.0000
  C   C22       1.0  0.02818  0.22090  0.62919  1.0000
  C   C23       1.0  0.47185  0.72092  0.62918  1.0000
  C   C24       1.0  0.97182  0.77909  0.37081  1.0000
  C   C25       1.0  0.34689  0.16221  0.06845  1.0000
  C   C26       1.0  0.84685  0.33773  0.93155  1.0000
  C   C27       1.0  0.65311  0.83779  0.93155  1.0000
  C   C28       1.0  0.15314  0.66227  0.06845  1.0000
  C   C29       1.0  0.36409  0.01316  0.12969  1.0000
  C   C30       1.0  0.86406  0.48681  0.87031  1.0000
  C   C31       1.0  0.63590  0.98683  0.87031  1.0000
  C   C32       1.0  0.13593  0.51319  0.12969  1.0000
  Cl  Cl1       1.0  0.79190  0.16939  0.27618  1.0000
  Cl  Cl2       1.0  0.29188  0.33061  0.72381  1.0000
  Cl  Cl3       1.0  0.20811  0.83062  0.72381  1.0000
  Cl  Cl4       1.0  0.70811  0.66939  0.27619  1.0000
  Cl  Cl5       1.0  0.29156  0.38929  0.47832  1.0000
  Cl  Cl6       1.0  0.79158  0.11077  0.52168  1.0000
  Cl  Cl7       1.0  0.70846  0.61074  0.52167  1.0000
  Cl  Cl8       1.0  0.20841  0.88925  0.47831  1.0000
  O   O1        1.0  0.49120  0.05524  0.18748  1.0000
  O   O2        1.0  0.99117  0.44473  0.81253  1.0000
  O   O3        1.0  0.50880  0.94475  0.81252  1.0000
  O   O4        1.0  0.00882  0.55526  0.18748  1.0000
  O   O5        1.0  0.45308  0.29664  0.07229  1.0000
  O   O6        1.0  0.95307  0.20331  0.92771  1.0000
  O   O7        1.0  0.54692  0.70336  0.92772  1.0000
  O   O8        1.0  0.04692  0.79668  0.07229  1.0000
  O   O9        1.0  0.23150  0.14224  0.01434  1.0000
  O   O10       1.0  0.73146  0.35770  0.98565  1.0000
  O   O11       1.0  0.76849  0.85775  0.98567  1.0000
  O   O12       1.0  0.26853  0.64229  0.01435  1.0000
  O   O13       1.0  0.62009  0.63275  0.08666  1.0000
  O   O14       1.0  0.12011  0.86726  0.91336  1.0000
  O   O15       1.0  0.37991  0.36724  0.91335  1.0000
  O   O16       1.0  0.87988  0.13274  0.08664  1.0000
