data_image0
_chemical_formula_structural       Hg4H24C40N48
_chemical_formula_sum              "Hg4 H24 C40 N48"
_cell_length_a       9.36994
_cell_length_b       10.3173
_cell_length_c       13.445
_cell_angle_alpha    93.3133
_cell_angle_beta     90
_cell_angle_gamma    90

_space_group_name_H-M_alt    "P 1"
_space_group_IT_number       1

loop_
  _space_group_symop_operation_xyz
  'x, y, z'

loop_
  _atom_site_type_symbol
  _atom_site_label
  _atom_site_symmetry_multiplicity
  _atom_site_fract_x
  _atom_site_fract_y
  _atom_site_fract_z
  _atom_site_occupancy
  Hg  Hg1       1.0  0.91457  0.24926  0.76250  1.0000
  Hg  Hg2       1.0  0.41457  0.75074  0.73750  1.0000
  Hg  Hg3       1.0  0.08543  0.75074  0.23750  1.0000
  Hg  Hg4       1.0  0.58543  0.24926  0.26250  1.0000
  H   H1        1.0  0.22942  0.03493  0.43959  1.0000
  H   H2        1.0  0.72942  0.96507  0.06041  1.0000
  H   H3        1.0  0.77058  0.96507  0.56041  1.0000
  H   H4        1.0  0.27058  0.03493  0.93959  1.0000
  H   H5        1.0  0.98619  0.34865  0.36018  1.0000
  H   H6        1.0  0.48619  0.65135  0.13982  1.0000
  H   H7        1.0  0.01382  0.65135  0.63982  1.0000
  H   H8        1.0  0.51381  0.34865  0.86018  1.0000
  H   H9        1.0  0.87844  0.36703  0.53386  1.0000
  H   H10       1.0  0.37844  0.63297  0.96614  1.0000
  H   H11       1.0  0.12156  0.63297  0.46614  1.0000
  H   H12       1.0  0.62156  0.36703  0.03386  1.0000
  H   H13       1.0  0.24534  0.47717  0.06441  1.0000
  H   H14       1.0  0.74534  0.52283  0.43559  1.0000
  H   H15       1.0  0.75466  0.52283  0.93559  1.0000
  H   H16       1.0  0.25466  0.47717  0.56441  1.0000
  H   H17       1.0  0.03926  0.17377  0.19317  1.0000
  H   H18       1.0  0.53926  0.82623  0.30683  1.0000
  H   H19       1.0  0.96074  0.82623  0.80683  1.0000
  H   H20       1.0  0.46074  0.17377  0.69317  1.0000
  H   H21       1.0  0.90928  0.11811  0.03023  1.0000
  H   H22       1.0  0.40928  0.88189  0.46977  1.0000
  H   H23       1.0  0.09072  0.88189  0.96977  1.0000
  H   H24       1.0  0.59072  0.11811  0.53023  1.0000
  C   C1        1.0  0.14932  0.04252  0.63587  1.0000
  C   C2        1.0  0.64932  0.95748  0.86413  1.0000
  C   C3        1.0  0.85068  0.95748  0.36413  1.0000
  C   C4        1.0  0.35068  0.04252  0.13587  1.0000
  C   C5        1.0  0.09922  0.12495  0.55859  1.0000
  C   C6        1.0  0.59922  0.87505  0.94141  1.0000
  C   C7        1.0  0.90078  0.87505  0.44141  1.0000
  C   C8        1.0  0.40078  0.12495  0.05859  1.0000
  C   C9        1.0  0.15252  0.11096  0.46086  1.0000
  C   C10       1.0  0.65252  0.88904  0.03914  1.0000
  C   C11       1.0  0.84747  0.88904  0.53914  1.0000
  C   C12       1.0  0.34748  0.11096  0.96086  1.0000
  C   C13       1.0  0.01720  0.28183  0.41637  1.0000
  C   C14       1.0  0.51720  0.71817  0.08363  1.0000
  C   C15       1.0  0.98280  0.71817  0.58363  1.0000
  C   C16       1.0  0.48280  0.28183  0.91637  1.0000
  C   C17       1.0  0.95926  0.29434  0.51223  1.0000
  C   C18       1.0  0.45926  0.70566  0.98777  1.0000
  C   C19       1.0  0.04074  0.70566  0.48777  1.0000
  C   C20       1.0  0.54074  0.29434  0.01223  1.0000
  C   C21       1.0  0.12820  0.43544  0.87744  1.0000
  C   C22       1.0  0.62820  0.56456  0.62256  1.0000
  C   C23       1.0  0.87180  0.56456  0.12256  1.0000
  C   C24       1.0  0.37180  0.43544  0.37744  1.0000
  C   C25       1.0  0.10275  0.36330  0.96580  1.0000
  C   C26       1.0  0.60275  0.63670  0.53420  1.0000
  C   C27       1.0  0.89725  0.63670  0.03420  1.0000
  C   C28       1.0  0.39725  0.36330  0.46580  1.0000
  C   C29       1.0  0.17088  0.39586  0.05671  1.0000
  C   C30       1.0  0.67088  0.60414  0.44329  1.0000
  C   C31       1.0  0.82912  0.60414  0.94329  1.0000
  C   C32       1.0  0.32912  0.39586  0.55671  1.0000
  C   C33       1.0  0.05668  0.22923  0.12767  1.0000
  C   C34       1.0  0.55669  0.77077  0.37233  1.0000
  C   C35       1.0  0.94331  0.77077  0.87233  1.0000
  C   C36       1.0  0.44332  0.22923  0.62767  1.0000
  C   C37       1.0  0.98595  0.19749  0.03779  1.0000
  C   C38       1.0  0.48595  0.80251  0.46221  1.0000
  C   C39       1.0  0.01405  0.80251  0.96221  1.0000
  C   C40       1.0  0.51405  0.19749  0.53779  1.0000
  N   N1        1.0  0.10665  0.05342  0.73220  1.0000
  N   N2        1.0  0.60665  0.94658  0.76780  1.0000
  N   N3        1.0  0.89335  0.94658  0.26780  1.0000
  N   N4        1.0  0.39335  0.05342  0.23220  1.0000
  N   N5        1.0  0.17650  0.96281  0.77847  1.0000
  N   N6        1.0  0.67650  0.03719  0.72153  1.0000
  N   N7        1.0  0.82350  0.03719  0.22153  1.0000
  N   N8        1.0  0.32350  0.96281  0.27847  1.0000
  N   N9        1.0  0.25853  0.89976  0.71034  1.0000
  N   N10       1.0  0.75853  0.10024  0.78966  1.0000
  N   N11       1.0  0.74147  0.10024  0.28966  1.0000
  N   N12       1.0  0.24147  0.89976  0.21034  1.0000
  N   N13       1.0  0.24528  0.94668  0.62039  1.0000
  N   N14       1.0  0.74528  0.05332  0.87961  1.0000
  N   N15       1.0  0.75472  0.05332  0.37961  1.0000
  N   N16       1.0  0.25472  0.94668  0.12039  1.0000
  N   N17       1.0  0.00012  0.21604  0.58303  1.0000
  N   N18       1.0  0.50012  0.78396  0.91697  1.0000
  N   N19       1.0  0.99988  0.78396  0.41697  1.0000
  N   N20       1.0  0.49988  0.21604  0.08303  1.0000
  N   N21       1.0  0.11215  0.18875  0.38998  1.0000
  N   N22       1.0  0.61215  0.81125  0.11002  1.0000
  N   N23       1.0  0.88785  0.81125  0.61002  1.0000
  N   N24       1.0  0.38785  0.18875  0.88998  1.0000
  N   N25       1.0  0.21736  0.53588  0.87114  1.0000
  N   N26       1.0  0.71736  0.46412  0.62886  1.0000
  N   N27       1.0  0.78264  0.46412  0.12886  1.0000
  N   N28       1.0  0.28264  0.53588  0.37114  1.0000
  N   N29       1.0  0.20330  0.57252  0.77712  1.0000
  N   N30       1.0  0.70330  0.42748  0.72288  1.0000
  N   N31       1.0  0.79670  0.42748  0.22288  1.0000
  N   N32       1.0  0.29670  0.57252  0.27712  1.0000
  N   N33       1.0  0.10992  0.49843  0.72724  1.0000
  N   N34       1.0  0.60992  0.50157  0.77276  1.0000
  N   N35       1.0  0.89007  0.50157  0.27276  1.0000
  N   N36       1.0  0.39007  0.49843  0.22724  1.0000
  N   N37       1.0  0.06146  0.41174  0.78938  1.0000
  N   N38       1.0  0.56145  0.58826  0.71062  1.0000
  N   N39       1.0  0.93854  0.58826  0.21062  1.0000
  N   N40       1.0  0.43854  0.41174  0.28938  1.0000
  N   N41       1.0  0.00945  0.26396  0.95703  1.0000
  N   N42       1.0  0.50945  0.73604  0.54297  1.0000
  N   N43       1.0  0.99055  0.73604  0.04297  1.0000
  N   N44       1.0  0.49055  0.26396  0.45703  1.0000
  N   N45       1.0  0.14861  0.32864  0.13729  1.0000
  N   N46       1.0  0.64861  0.67136  0.36271  1.0000
  N   N47       1.0  0.85139  0.67136  0.86271  1.0000
  N   N48       1.0  0.35139  0.32864  0.63729  1.0000
