data_image0
_chemical_formula_structural       Tb2H26C26N12O16
_chemical_formula_sum              "Tb2 H26 C26 N12 O16"
_cell_length_a       9.37765
_cell_length_b       9.61691
_cell_length_c       10.4222
_cell_angle_alpha    98.0898
_cell_angle_beta     102.408
_cell_angle_gamma    100.492

_space_group_name_H-M_alt    "P 1"
_space_group_IT_number       1

loop_
  _space_group_symop_operation_xyz
  'x, y, z'

loop_
  _atom_site_type_symbol
  _atom_site_label
  _atom_site_symmetry_multiplicity
  _atom_site_fract_x
  _atom_site_fract_y
  _atom_site_fract_z
  _atom_site_occupancy
  Tb  Tb1       1.0  0.11891  0.76141  0.28014  1.0000
  Tb  Tb2       1.0  0.88109  0.23859  0.71986  1.0000
  H   H1        1.0  0.04182  0.57053  0.65255  1.0000
  H   H2        1.0  0.95818  0.42947  0.34745  1.0000
  H   H3        1.0  0.13219  0.83431  0.75818  1.0000
  H   H4        1.0  0.86781  0.16569  0.24182  1.0000
  H   H5        1.0  0.15383  0.90229  0.00527  1.0000
  H   H6        1.0  0.84617  0.09771  0.99473  1.0000
  H   H7        1.0  0.63767  0.89754  0.61487  1.0000
  H   H8        1.0  0.36234  0.10246  0.38513  1.0000
  H   H9        1.0  0.61034  0.64268  0.49134  1.0000
  H   H10       1.0  0.38966  0.35732  0.50866  1.0000
  H   H11       1.0  0.81058  0.59729  0.37515  1.0000
  H   H12       1.0  0.18942  0.40271  0.62485  1.0000
  H   H13       1.0  0.45611  0.09384  0.12259  1.0000
  H   H14       1.0  0.54389  0.90616  0.87741  1.0000
  H   H15       1.0  0.60974  0.00590  0.12529  1.0000
  H   H16       1.0  0.39026  0.99410  0.87471  1.0000
  H   H17       1.0  0.57750  0.09228  0.27691  1.0000
  H   H18       1.0  0.42250  0.90772  0.72309  1.0000
  H   H19       1.0  0.56387  0.75989  0.12240  1.0000
  H   H20       1.0  0.43613  0.24011  0.87759  1.0000
  H   H21       1.0  0.45575  0.43608  0.24331  1.0000
  H   H22       1.0  0.54425  0.56392  0.75669  1.0000
  H   H23       1.0  0.56588  0.52027  0.14267  1.0000
  H   H24       1.0  0.43412  0.47973  0.85733  1.0000
  H   H25       1.0  0.37688  0.42492  0.07170  1.0000
  H   H26       1.0  0.62312  0.57508  0.92830  1.0000
  C   C1        1.0  0.02438  0.55405  0.96023  1.0000
  C   C2        1.0  0.97562  0.44595  0.03977  1.0000
  C   C3        1.0  0.05275  0.60802  0.75855  1.0000
  C   C4        1.0  0.94725  0.39198  0.24145  1.0000
  C   C5        1.0  0.10295  0.75293  0.81631  1.0000
  C   C6        1.0  0.89705  0.24707  0.18369  1.0000
  C   C7        1.0  0.11455  0.79098  0.95248  1.0000
  C   C8        1.0  0.88545  0.20902  0.04752  1.0000
  C   C9        1.0  0.93595  0.94131  0.49888  1.0000
  C   C10       1.0  0.06405  0.05869  0.50112  1.0000
  C   C11       1.0  0.71851  0.86825  0.56107  1.0000
  C   C12       1.0  0.28149  0.13174  0.43893  1.0000
  C   C13       1.0  0.70418  0.72888  0.49342  1.0000
  C   C14       1.0  0.29582  0.27112  0.50659  1.0000
  C   C15       1.0  0.81499  0.70423  0.42900  1.0000
  C   C16       1.0  0.18501  0.29577  0.57100  1.0000
  C   C17       1.0  0.52356  0.02822  0.17628  1.0000
  C   C18       1.0  0.47644  0.97178  0.82372  1.0000
  C   C19       1.0  0.42564  0.89225  0.19094  1.0000
  C   C20       1.0  0.57436  0.10775  0.80906  1.0000
  C   C21       1.0  0.46663  0.76029  0.16326  1.0000
  C   C22       1.0  0.53337  0.23970  0.83673  1.0000
  C   C23       1.0  0.39585  0.62957  0.19149  1.0000
  C   C24       1.0  0.60415  0.37043  0.80851  1.0000
  C   C25       1.0  0.45414  0.49614  0.16123  1.0000
  C   C26       1.0  0.54586  0.50386  0.83876  1.0000
  N   N1        1.0  0.07632  0.69124  0.02463  1.0000
  N   N2        1.0  0.92368  0.30876  0.97537  1.0000
  N   N3        1.0  0.01253  0.50806  0.82978  1.0000
  N   N4        1.0  0.98747  0.49194  0.17022  1.0000
  N   N5        1.0  0.93090  0.81044  0.43049  1.0000
  N   N6        1.0  0.06910  0.18956  0.56951  1.0000
  N   N7        1.0  0.83517  0.97471  0.56515  1.0000
  N   N8        1.0  0.16483  0.02528  0.43485  1.0000
  N   N9        1.0  0.27441  0.68196  0.52315  1.0000
  N   N10       1.0  0.72559  0.31804  0.47685  1.0000
  N   N11       1.0  0.85489  0.83599  0.11239  1.0000
  N   N12       1.0  0.14511  0.16401  0.88761  1.0000
  O   O1        1.0  0.30797  0.90748  0.23221  1.0000
  O   O2        1.0  0.69203  0.09252  0.76779  1.0000
  O   O3        1.0  0.28266  0.61535  0.24270  1.0000
  O   O4        1.0  0.71734  0.38465  0.75730  1.0000
  O   O5        1.0  0.32552  0.80029  0.48986  1.0000
  O   O6        1.0  0.67448  0.19971  0.51014  1.0000
  O   O7        1.0  0.13930  0.61657  0.46065  1.0000
  O   O8        1.0  0.86070  0.38343  0.53935  1.0000
  O   O9        1.0  0.34940  0.63153  0.61074  1.0000
  O   O10       1.0  0.65060  0.36847  0.38926  1.0000
  O   O11       1.0  0.83763  0.71223  0.14543  1.0000
  O   O12       1.0  0.16237  0.28777  0.85457  1.0000
  O   O13       1.0  0.97910  0.92643  0.17142  1.0000
  O   O14       1.0  0.02090  0.07357  0.82858  1.0000
  O   O15       1.0  0.75860  0.86803  0.02682  1.0000
  O   O16       1.0  0.24140  0.13197  0.97318  1.0000
