data_image0
_chemical_formula_structural       Cd2H44C44N12Cl4O16
_chemical_formula_sum              "Cd2 H44 C44 N12 Cl4 O16"
_cell_length_a       8.48759
_cell_length_b       9.55765
_cell_length_c       17.699
_cell_angle_alpha    85.7871
_cell_angle_beta     80.4768
_cell_angle_gamma    63.6393

_space_group_name_H-M_alt    "P 1"
_space_group_IT_number       1

loop_
  _space_group_symop_operation_xyz
  'x, y, z'

loop_
  _atom_site_type_symbol
  _atom_site_label
  _atom_site_symmetry_multiplicity
  _atom_site_fract_x
  _atom_site_fract_y
  _atom_site_fract_z
  _atom_site_occupancy
  Cd  Cd1       1.0  0.39156  0.21723  0.25002  1.0000
  Cd  Cd2       1.0  0.60844  0.78277  0.74998  1.0000
  H   H1        1.0  0.67410  0.02663  0.13333  1.0000
  H   H2        1.0  0.29983  0.02657  0.36664  1.0000
  H   H3        1.0  0.32590  0.97337  0.86667  1.0000
  H   H4        1.0  0.70017  0.97343  0.63336  1.0000
  H   H5        1.0  0.60656  0.69186  0.07701  1.0000
  H   H6        1.0  0.70214  0.69196  0.42305  1.0000
  H   H7        1.0  0.39344  0.30814  0.92299  1.0000
  H   H8        1.0  0.29786  0.30804  0.57694  1.0000
  H   H9        1.0  0.30694  0.70547  0.09108  1.0000
  H   H10       1.0  0.98809  0.70563  0.40897  1.0000
  H   H11       1.0  0.69305  0.29453  0.90892  1.0000
  H   H12       1.0  0.01191  0.29437  0.59103  1.0000
  H   H13       1.0  0.04397  0.94142  0.15669  1.0000
  H   H14       1.0  0.01510  0.94152  0.34331  1.0000
  H   H15       1.0  0.95603  0.05859  0.84331  1.0000
  H   H16       1.0  0.98490  0.05848  0.65669  1.0000
  H   H17       1.0  0.10448  0.14366  0.20949  1.0000
  H   H18       1.0  0.75236  0.14370  0.29046  1.0000
  H   H19       1.0  0.89552  0.85634  0.79051  1.0000
  H   H20       1.0  0.24764  0.85630  0.70954  1.0000
  H   H21       1.0  0.79303  0.78231  0.02067  1.0000
  H   H22       1.0  0.42512  0.78238  0.47935  1.0000
  H   H23       1.0  0.20697  0.21769  0.97933  1.0000
  H   H24       1.0  0.57488  0.21762  0.52065  1.0000
  H   H25       1.0  0.90813  0.87983  0.04648  1.0000
  H   H26       1.0  0.21255  0.87987  0.45349  1.0000
  H   H27       1.0  0.09187  0.12017  0.95352  1.0000
  H   H28       1.0  0.78745  0.12013  0.54651  1.0000
  H   H29       1.0  0.81176  0.75263  0.22656  1.0000
  H   H30       1.0  0.43658  0.75226  0.27345  1.0000
  H   H31       1.0  0.18824  0.24737  0.77344  1.0000
  H   H32       1.0  0.56342  0.24774  0.72655  1.0000
  H   H33       1.0  0.45569  0.51882  0.21145  1.0000
  H   H34       1.0  0.02599  0.51914  0.28867  1.0000
  H   H35       1.0  0.54431  0.48118  0.78855  1.0000
  H   H36       1.0  0.97401  0.48086  0.71133  1.0000
  H   H37       1.0  0.31757  0.32814  0.07879  1.0000
  H   H38       1.0  0.35398  0.32845  0.42132  1.0000
  H   H39       1.0  0.68243  0.67186  0.92121  1.0000
  H   H40       1.0  0.64602  0.67156  0.57867  1.0000
  H   H41       1.0  0.11503  0.55460  0.00791  1.0000
  H   H42       1.0  0.33022  0.55489  0.49216  1.0000
  H   H43       1.0  0.88497  0.44540  0.99209  1.0000
  H   H44       1.0  0.66978  0.44511  0.50784  1.0000
  C   C1        1.0  0.51549  0.91754  0.13145  1.0000
  C   C2        1.0  0.56754  0.91751  0.36852  1.0000
  C   C3        1.0  0.48451  0.08246  0.86855  1.0000
  C   C4        1.0  0.43246  0.08249  0.63148  1.0000
  C   C5        1.0  0.49300  0.79280  0.10436  1.0000
  C   C6        1.0  0.71471  0.79287  0.39566  1.0000
  C   C7        1.0  0.50700  0.20720  0.89564  1.0000
  C   C8        1.0  0.28529  0.20713  0.60434  1.0000
  C   C9        1.0  0.32428  0.80020  0.11327  1.0000
  C   C10       1.0  0.87600  0.80028  0.38675  1.0000
  C   C11       1.0  0.67572  0.19980  0.88673  1.0000
  C   C12       1.0  0.12399  0.19971  0.61325  1.0000
  C   C13       1.0  0.17909  0.92912  0.14995  1.0000
  C   C14       1.0  0.89231  0.92916  0.35003  1.0000
  C   C15       1.0  0.82091  0.07089  0.85005  1.0000
  C   C16       1.0  0.10769  0.07084  0.64997  1.0000
  C   C17       1.0  0.21181  0.04282  0.17885  1.0000
  C   C18       1.0  0.74587  0.04284  0.32110  1.0000
  C   C19       1.0  0.78819  0.95718  0.82115  1.0000
  C   C20       1.0  0.25413  0.95716  0.67890  1.0000
  C   C21       1.0  0.82930  0.81741  0.07068  1.0000
  C   C22       1.0  0.35383  0.81746  0.42932  1.0000
  C   C23       1.0  0.17070  0.18259  0.92932  1.0000
  C   C24       1.0  0.64616  0.18254  0.57068  1.0000
  C   C25       1.0  0.94675  0.67372  0.11173  1.0000
  C   C26       1.0  0.38012  0.67369  0.38831  1.0000
  C   C27       1.0  0.05325  0.32628  0.88827  1.0000
  C   C28       1.0  0.61988  0.32632  0.61169  1.0000
  C   C29       1.0  0.92192  0.66111  0.19150  1.0000
  C   C30       1.0  0.41785  0.66083  0.30855  1.0000
  C   C31       1.0  0.07808  0.33889  0.80850  1.0000
  C   C32       1.0  0.58215  0.33917  0.69145  1.0000
  C   C33       1.0  0.04105  0.53097  0.22646  1.0000
  C   C34       1.0  0.42875  0.53070  0.27364  1.0000
  C   C35       1.0  0.95895  0.46903  0.77354  1.0000
  C   C36       1.0  0.57124  0.46930  0.72636  1.0000
  C   C37       1.0  0.20299  0.42444  0.10930  1.0000
  C   C38       1.0  0.37264  0.42457  0.39079  1.0000
  C   C39       1.0  0.79701  0.57556  0.89070  1.0000
  C   C40       1.0  0.62736  0.57543  0.60920  1.0000
  C   C41       1.0  0.09016  0.55090  0.07022  1.0000
  C   C42       1.0  0.35909  0.55106  0.42985  1.0000
  C   C43       1.0  0.90984  0.44910  0.92978  1.0000
  C   C44       1.0  0.64091  0.44894  0.57015  1.0000
  N   N1        1.0  0.37565  0.03727  0.17168  1.0000
  N   N2        1.0  0.58762  0.03722  0.32827  1.0000
  N   N3        1.0  0.62435  0.96273  0.82832  1.0000
  N   N4        1.0  0.41237  0.96278  0.67174  1.0000
  N   N5        1.0  0.67350  0.92547  0.11852  1.0000
  N   N6        1.0  0.40160  0.92545  0.38145  1.0000
  N   N7        1.0  0.32650  0.07453  0.88148  1.0000
  N   N8        1.0  0.59840  0.07456  0.61855  1.0000
  N   N9        1.0  0.18028  0.41473  0.18625  1.0000
  N   N10       1.0  0.40536  0.41466  0.31386  1.0000
  N   N11       1.0  0.81972  0.58527  0.81375  1.0000
  N   N12       1.0  0.59463  0.58534  0.68614  1.0000
  Cl  Cl1       1.0  0.73322  0.28937  0.10223  1.0000
  Cl  Cl2       1.0  0.97762  0.28933  0.39776  1.0000
  Cl  Cl3       1.0  0.26679  0.71063  0.89778  1.0000
  Cl  Cl4       1.0  0.02239  0.71067  0.60224  1.0000
  O   O1        1.0  0.66580  0.21060  0.16714  1.0000
  O   O2        1.0  0.12384  0.21069  0.33284  1.0000
  O   O3        1.0  0.33421  0.78940  0.83286  1.0000
  O   O4        1.0  0.87616  0.78931  0.66716  1.0000
  O   O5        1.0  0.58211  0.41580  0.07355  1.0000
  O   O6        1.0  0.00227  0.41571  0.42651  1.0000
  O   O7        1.0  0.41789  0.58420  0.92646  1.0000
  O   O8        1.0  0.99773  0.58429  0.57349  1.0000
  O   O9        1.0  0.84186  0.34918  0.13096  1.0000
  O   O10       1.0  0.80918  0.34921  0.36900  1.0000
  O   O11       1.0  0.15815  0.65081  0.86904  1.0000
  O   O12       1.0  0.19082  0.65079  0.63100  1.0000
  O   O13       1.0  0.83756  0.17204  0.04332  1.0000
  O   O14       1.0  0.99058  0.17190  0.45661  1.0000
  O   O15       1.0  0.16244  0.82796  0.95668  1.0000
  O   O16       1.0  0.00941  0.82810  0.54339  1.0000
