data_image0
_chemical_formula_structural       Cd2H44C44N16O12
_chemical_formula_sum              "Cd2 H44 C44 N16 O12"
_cell_length_a       8.62222
_cell_length_b       9.6551
_cell_length_c       16.1675
_cell_angle_alpha    87.8897
_cell_angle_beta     85.2695
_cell_angle_gamma    63.4799

_space_group_name_H-M_alt    "P 1"
_space_group_IT_number       1

loop_
  _space_group_symop_operation_xyz
  'x, y, z'

loop_
  _atom_site_type_symbol
  _atom_site_label
  _atom_site_symmetry_multiplicity
  _atom_site_fract_x
  _atom_site_fract_y
  _atom_site_fract_z
  _atom_site_occupancy
  Cd  Cd1       1.0  0.13332  0.73339  0.75001  1.0000
  Cd  Cd2       1.0  0.86668  0.26661  0.24999  1.0000
  H   H1        1.0  0.07402  0.16580  0.50325  1.0000
  H   H2        1.0  0.76026  0.16581  0.99677  1.0000
  H   H3        1.0  0.92598  0.83420  0.49675  1.0000
  H   H4        1.0  0.23974  0.83419  0.00323  1.0000
  H   H5        1.0  0.28583  0.06776  0.53536  1.0000
  H   H6        1.0  0.64652  0.06775  0.96465  1.0000
  H   H7        1.0  0.71417  0.93224  0.46464  1.0000
  H   H8        1.0  0.35348  0.93225  0.03535  1.0000
  H   H9        1.0  0.20600  0.37160  0.49190  1.0000
  H   H10       1.0  0.42243  0.37158  0.00813  1.0000
  H   H11       1.0  0.79400  0.62840  0.50811  1.0000
  H   H12       1.0  0.57757  0.62843  0.99187  1.0000
  H   H13       1.0  0.21446  0.60021  0.93336  1.0000
  H   H14       1.0  0.18534  0.60026  0.56664  1.0000
  H   H15       1.0  0.78554  0.39979  0.06664  1.0000
  H   H16       1.0  0.81466  0.39974  0.43335  1.0000
  H   H17       1.0  0.02810  0.45768  0.78954  1.0000
  H   H18       1.0  0.51427  0.45765  0.71047  1.0000
  H   H19       1.0  0.97190  0.54233  0.21046  1.0000
  H   H20       1.0  0.48573  0.54234  0.28953  1.0000
  H   H21       1.0  0.04816  0.22007  0.72446  1.0000
  H   H22       1.0  0.73182  0.22003  0.77555  1.0000
  H   H23       1.0  0.95185  0.77993  0.27554  1.0000
  H   H24       1.0  0.26818  0.77997  0.22445  1.0000
  H   H25       1.0  0.80907  0.26546  0.56521  1.0000
  H   H26       1.0  0.92564  0.26544  0.93475  1.0000
  H   H27       1.0  0.19093  0.73454  0.43479  1.0000
  H   H28       1.0  0.07436  0.73456  0.06525  1.0000
  H   H29       1.0  0.52049  0.26908  0.58595  1.0000
  H   H30       1.0  0.21056  0.26907  0.91403  1.0000
  H   H31       1.0  0.47951  0.73092  0.41405  1.0000
  H   H32       1.0  0.78944  0.73093  0.08597  1.0000
  H   H33       1.0  0.49219  0.04525  0.66074  1.0000
  H   H34       1.0  0.46276  0.04522  0.83922  1.0000
  H   H35       1.0  0.50781  0.95475  0.33926  1.0000
  H   H36       1.0  0.53725  0.95478  0.16078  1.0000
  H   H37       1.0  0.75758  0.83413  0.71484  1.0000
  H   H38       1.0  0.40842  0.83408  0.78511  1.0000
  H   H39       1.0  0.24242  0.16587  0.28516  1.0000
  H   H40       1.0  0.59158  0.16592  0.21489  1.0000
  H   H41       1.0  0.20632  0.91940  0.62111  1.0000
  H   H42       1.0  0.87436  0.91941  0.87889  1.0000
  H   H43       1.0  0.79368  0.08060  0.37889  1.0000
  H   H44       1.0  0.12564  0.08059  0.12110  1.0000
  C   C1        1.0  0.94240  0.04152  0.62529  1.0000
  C   C2        1.0  0.01621  0.04154  0.87469  1.0000
  C   C3        1.0  0.05760  0.95848  0.37471  1.0000
  C   C4        1.0  0.98379  0.95847  0.12531  1.0000
  C   C5        1.0  0.14905  0.13190  0.55887  1.0000
  C   C6        1.0  0.71916  0.13190  0.94114  1.0000
  C   C7        1.0  0.85095  0.86810  0.44113  1.0000
  C   C8        1.0  0.28083  0.86810  0.05886  1.0000
  C   C9        1.0  0.12729  0.27625  0.60231  1.0000
  C   C10       1.0  0.59653  0.27621  0.89771  1.0000
  C   C11       1.0  0.87271  0.72375  0.39769  1.0000
  C   C12       1.0  0.40347  0.72379  0.10229  1.0000
  C   C13       1.0  0.16332  0.38694  0.55766  1.0000
  C   C14       1.0  0.44978  0.38687  0.94236  1.0000
  C   C15       1.0  0.83667  0.61306  0.44234  1.0000
  C   C16       1.0  0.55022  0.61313  0.05764  1.0000
  C   C17       1.0  0.15147  0.51523  0.59887  1.0000
  C   C18       1.0  0.33336  0.51515  0.90114  1.0000
  C   C19       1.0  0.84853  0.48477  0.40113  1.0000
  C   C20       1.0  0.66664  0.48485  0.09886  1.0000
  C   C21       1.0  0.06670  0.43471  0.72357  1.0000
  C   C22       1.0  0.49865  0.43468  0.77644  1.0000
  C   C23       1.0  0.93331  0.56529  0.27643  1.0000
  C   C24       1.0  0.50135  0.56532  0.22356  1.0000
  C   C25       1.0  0.07682  0.30266  0.68673  1.0000
  C   C26       1.0  0.62056  0.30262  0.81328  1.0000
  C   C27       1.0  0.92318  0.69734  0.31327  1.0000
  C   C28       1.0  0.37944  0.69738  0.18672  1.0000
  C   C29       1.0  0.79541  0.16939  0.59638  1.0000
  C   C30       1.0  0.03538  0.16938  0.90356  1.0000
  C   C31       1.0  0.20459  0.83061  0.40362  1.0000
  C   C32       1.0  0.96462  0.83062  0.09644  1.0000
  C   C33       1.0  0.63354  0.17181  0.60898  1.0000
  C   C34       1.0  0.19489  0.17177  0.89096  1.0000
  C   C35       1.0  0.36646  0.82819  0.39102  1.0000
  C   C36       1.0  0.80512  0.82823  0.10904  1.0000
  C   C37       1.0  0.61618  0.04958  0.65116  1.0000
  C   C38       1.0  0.33444  0.04954  0.84878  1.0000
  C   C39       1.0  0.38382  0.95042  0.34884  1.0000
  C   C40       1.0  0.66556  0.95046  0.15122  1.0000
  C   C41       1.0  0.76419  0.93120  0.68067  1.0000
  C   C42       1.0  0.30474  0.93119  0.81927  1.0000
  C   C43       1.0  0.23581  0.06880  0.31933  1.0000
  C   C44       1.0  0.69526  0.06881  0.18073  1.0000
  N   N1        1.0  0.92361  0.92600  0.66959  1.0000
  N   N2        1.0  0.15050  0.92601  0.83039  1.0000
  N   N3        1.0  0.07639  0.07400  0.33041  1.0000
  N   N4        1.0  0.84949  0.07400  0.16961  1.0000
  N   N5        1.0  0.10626  0.02709  0.61068  1.0000
  N   N6        1.0  0.86678  0.02709  0.88933  1.0000
  N   N7        1.0  0.89374  0.97291  0.38932  1.0000
  N   N8        1.0  0.13322  0.97291  0.11067  1.0000
  N   N9        1.0  0.10421  0.53945  0.68068  1.0000
  N   N10       1.0  0.35639  0.53940  0.81933  1.0000
  N   N11       1.0  0.89579  0.46055  0.31932  1.0000
  N   N12       1.0  0.64361  0.46060  0.18067  1.0000
  N   N13       1.0  0.50157  0.68562  0.60567  1.0000
  N   N14       1.0  0.81282  0.68558  0.89434  1.0000
  N   N15       1.0  0.49843  0.31438  0.39433  1.0000
  N   N16       1.0  0.18718  0.31442  0.10566  1.0000
  O   O1        1.0  0.61110  0.54666  0.59795  1.0000
  O   O2        1.0  0.84224  0.54662  0.90207  1.0000
  O   O3        1.0  0.38889  0.45335  0.40205  1.0000
  O   O4        1.0  0.15776  0.45338  0.09793  1.0000
  O   O5        1.0  0.53762  0.79567  0.58651  1.0000
  O   O6        1.0  0.66670  0.79563  0.91348  1.0000
  O   O7        1.0  0.46238  0.20433  0.41349  1.0000
  O   O8        1.0  0.33330  0.20437  0.08652  1.0000
  O   O9        1.0  0.34314  0.71811  0.63359  1.0000
  O   O10       1.0  0.93877  0.71807  0.86644  1.0000
  O   O11       1.0  0.65686  0.28189  0.36641  1.0000
  O   O12       1.0  0.06122  0.28193  0.13356  1.0000
