data_image0
_chemical_formula_structural       Cd4H32C40S4N8Cl8
_chemical_formula_sum              "Cd4 H32 C40 S4 N8 Cl8"
_cell_length_a       6.93238
_cell_length_b       10.4852
_cell_length_c       17.7127
_cell_angle_alpha    90
_cell_angle_beta     90.0001
_cell_angle_gamma    103.089

_space_group_name_H-M_alt    "P 1"
_space_group_IT_number       1

loop_
  _space_group_symop_operation_xyz
  'x, y, z'

loop_
  _atom_site_type_symbol
  _atom_site_label
  _atom_site_symmetry_multiplicity
  _atom_site_fract_x
  _atom_site_fract_y
  _atom_site_fract_z
  _atom_site_occupancy
  Cd  Cd1       1.0  0.26920  0.07732  0.97573  1.0000
  Cd  Cd2       1.0  0.23080  0.42268  0.47573  1.0000
  Cd  Cd3       1.0  0.73080  0.92268  0.02427  1.0000
  Cd  Cd4       1.0  0.76920  0.57732  0.52427  1.0000
  H   H1        1.0  0.23063  0.59475  0.93798  1.0000
  H   H2        1.0  0.26937  0.90525  0.43798  1.0000
  H   H3        1.0  0.76937  0.40525  0.06202  1.0000
  H   H4        1.0  0.73063  0.09475  0.56202  1.0000
  H   H5        1.0  0.26331  0.65156  0.07375  1.0000
  H   H6        1.0  0.23668  0.84844  0.57374  1.0000
  H   H7        1.0  0.73669  0.34844  0.92626  1.0000
  H   H8        1.0  0.76332  0.15156  0.42626  1.0000
  H   H9        1.0  0.28879  0.47336  0.16794  1.0000
  H   H10       1.0  0.21120  0.02664  0.66794  1.0000
  H   H11       1.0  0.71121  0.52664  0.83206  1.0000
  H   H12       1.0  0.78880  0.97336  0.33206  1.0000
  H   H13       1.0  0.28893  0.24965  0.11798  1.0000
  H   H14       1.0  0.21107  0.25035  0.61798  1.0000
  H   H15       1.0  0.71107  0.75035  0.88201  1.0000
  H   H16       1.0  0.78893  0.74965  0.38202  1.0000
  H   H17       1.0  0.40326  0.41063  0.72998  1.0000
  H   H18       1.0  0.09674  0.08937  0.22998  1.0000
  H   H19       1.0  0.59674  0.58937  0.27002  1.0000
  H   H20       1.0  0.90326  0.91063  0.77002  1.0000
  H   H21       1.0  0.64734  0.30376  0.66824  1.0000
  H   H22       1.0  0.85266  0.19624  0.16824  1.0000
  H   H23       1.0  0.35266  0.69624  0.33176  1.0000
  H   H24       1.0  0.14734  0.80376  0.83176  1.0000
  H   H25       1.0  0.73924  0.11130  0.73437  1.0000
  H   H26       1.0  0.76076  0.38870  0.23437  1.0000
  H   H27       1.0  0.26076  0.88870  0.26563  1.0000
  H   H28       1.0  0.23923  0.61130  0.76563  1.0000
  H   H29       1.0  0.57792  0.03720  0.85780  1.0000
  H   H30       1.0  0.92209  0.46280  0.35780  1.0000
  H   H31       1.0  0.42208  0.96279  0.14220  1.0000
  H   H32       1.0  0.07791  0.53721  0.64220  1.0000
  C   C1        1.0  0.23067  0.39061  0.95740  1.0000
  C   C2        1.0  0.26933  0.10939  0.45740  1.0000
  C   C3        1.0  0.76933  0.60939  0.04260  1.0000
  C   C4        1.0  0.73067  0.89061  0.54260  1.0000
  C   C5        1.0  0.23852  0.51982  0.97964  1.0000
  C   C6        1.0  0.26147  0.98018  0.47964  1.0000
  C   C7        1.0  0.76147  0.48018  0.02036  1.0000
  C   C8        1.0  0.73853  0.01982  0.52036  1.0000
  C   C9        1.0  0.25840  0.55126  0.05601  1.0000
  C   C10       1.0  0.24160  0.94874  0.55601  1.0000
  C   C11       1.0  0.74160  0.44874  0.94399  1.0000
  C   C12       1.0  0.75840  0.05126  0.44399  1.0000
  C   C13       1.0  0.27432  0.45364  0.10762  1.0000
  C   C14       1.0  0.22567  0.04636  0.60762  1.0000
  C   C15       1.0  0.72567  0.54636  0.89238  1.0000
  C   C16       1.0  0.77433  0.95364  0.39238  1.0000
  C   C17       1.0  0.27284  0.32889  0.08038  1.0000
  C   C18       1.0  0.22716  0.17111  0.58038  1.0000
  C   C19       1.0  0.72716  0.67111  0.91962  1.0000
  C   C20       1.0  0.77284  0.82889  0.41962  1.0000
  C   C21       1.0  0.35883  0.27767  0.82543  1.0000
  C   C22       1.0  0.14117  0.22233  0.32543  1.0000
  C   C23       1.0  0.64117  0.72233  0.17457  1.0000
  C   C24       1.0  0.85883  0.77767  0.67457  1.0000
  C   C25       1.0  0.44326  0.32651  0.75651  1.0000
  C   C26       1.0  0.05674  0.17349  0.25651  1.0000
  C   C27       1.0  0.55674  0.67349  0.24349  1.0000
  C   C28       1.0  0.94326  0.82651  0.74349  1.0000
  C   C29       1.0  0.58076  0.26680  0.72214  1.0000
  C   C30       1.0  0.91924  0.23320  0.22214  1.0000
  C   C31       1.0  0.41924  0.73320  0.27786  1.0000
  C   C32       1.0  0.08076  0.76680  0.77786  1.0000
  C   C33       1.0  0.63231  0.16141  0.75855  1.0000
  C   C34       1.0  0.86768  0.33859  0.25855  1.0000
  C   C35       1.0  0.36768  0.83859  0.24145  1.0000
  C   C36       1.0  0.13232  0.66141  0.74145  1.0000
  C   C37       1.0  0.54248  0.11907  0.82719  1.0000
  C   C38       1.0  0.95752  0.38093  0.32719  1.0000
  C   C39       1.0  0.45752  0.88093  0.17281  1.0000
  C   C40       1.0  0.04248  0.61908  0.67281  1.0000
  S   S1        1.0  0.17403  0.35458  0.86090  1.0000
  S   S2        1.0  0.32598  0.14542  0.36090  1.0000
  S   S3        1.0  0.82598  0.64543  0.13910  1.0000
  S   S4        1.0  0.67402  0.85458  0.63910  1.0000
  N   N1        1.0  0.24809  0.29678  0.00692  1.0000
  N   N2        1.0  0.25191  0.20322  0.50692  1.0000
  N   N3        1.0  0.75191  0.70322  0.99308  1.0000
  N   N4        1.0  0.74809  0.79678  0.49308  1.0000
  N   N5        1.0  0.40635  0.17470  0.85993  1.0000
  N   N6        1.0  0.09366  0.32530  0.35993  1.0000
  N   N7        1.0  0.59365  0.82530  0.14007  1.0000
  N   N8        1.0  0.90634  0.67470  0.64007  1.0000
  Cl  Cl1       1.0  0.06964  0.99073  0.09778  1.0000
  Cl  Cl2       1.0  0.43036  0.50927  0.59778  1.0000
  Cl  Cl3       1.0  0.93036  0.00927  0.90222  1.0000
  Cl  Cl4       1.0  0.56964  0.49073  0.40222  1.0000
  Cl  Cl5       1.0  0.37811  0.85745  0.95035  1.0000
  Cl  Cl6       1.0  0.12189  0.64255  0.45035  1.0000
  Cl  Cl7       1.0  0.62189  0.14255  0.04965  1.0000
  Cl  Cl8       1.0  0.87811  0.35745  0.54965  1.0000
