data_image0
_chemical_formula_structural       Co2H12C8N12Cl4O4
_chemical_formula_sum              "Co2 H12 C8 N12 Cl4 O4"
_cell_length_a       3.46637
_cell_length_b       11.5297
_cell_length_c       11.8502
_cell_angle_alpha    70.5449
_cell_angle_beta     81.5892
_cell_angle_gamma    81.3163

_space_group_name_H-M_alt    "P 1"
_space_group_IT_number       1

loop_
  _space_group_symop_operation_xyz
  'x, y, z'

loop_
  _atom_site_type_symbol
  _atom_site_label
  _atom_site_symmetry_multiplicity
  _atom_site_fract_x
  _atom_site_fract_y
  _atom_site_fract_z
  _atom_site_occupancy
  Co  Co1       1.0  0.95339  0.75005  0.24994  1.0000
  Co  Co2       1.0  0.04660  0.24995  0.75006  1.0000
  H   H1        1.0  0.24869  0.91861  0.97149  1.0000
  H   H2        1.0  0.14262  0.58175  0.52810  1.0000
  H   H3        1.0  0.75130  0.08139  0.02851  1.0000
  H   H4        1.0  0.85737  0.41825  0.47191  1.0000
  H   H5        1.0  0.94243  0.56061  0.09496  1.0000
  H   H6        1.0  0.59544  0.93912  0.40506  1.0000
  H   H7        1.0  0.05758  0.43939  0.90504  1.0000
  H   H8        1.0  0.40456  0.06088  0.59493  1.0000
  H   H9        1.0  0.31858  0.83726  0.78860  1.0000
  H   H10       1.0  0.94810  0.66306  0.71114  1.0000
  H   H11       1.0  0.68143  0.16274  0.21139  1.0000
  H   H12       1.0  0.05191  0.33694  0.28886  1.0000
  C   C1        1.0  0.10159  0.67160  0.91465  1.0000
  C   C2        1.0  0.68873  0.82841  0.58524  1.0000
  C   C3        1.0  0.89844  0.32840  0.08535  1.0000
  C   C4        1.0  0.31126  0.17159  0.41476  1.0000
  C   C5        1.0  0.17822  0.82912  0.97461  1.0000
  C   C6        1.0  0.98432  0.67105  0.52512  1.0000
  C   C7        1.0  0.82177  0.17088  0.02539  1.0000
  C   C8        1.0  0.01568  0.32895  0.47489  1.0000
  N   N1        1.0  0.01163  0.64556  0.03577  1.0000
  N   N2        1.0  0.69166  0.85427  0.46422  1.0000
  N   N3        1.0  0.98837  0.35445  0.96423  1.0000
  N   N4        1.0  0.30833  0.14573  0.53579  1.0000
  N   N5        1.0  0.06049  0.74271  0.07286  1.0000
  N   N6        1.0  0.87565  0.75722  0.42702  1.0000
  N   N7        1.0  0.93950  0.25729  0.92714  1.0000
  N   N8        1.0  0.12435  0.24278  0.57298  1.0000
  N   N9        1.0  0.20768  0.79044  0.87659  1.0000
  N   N10       1.0  0.87812  0.70980  0.62310  1.0000
  N   N11       1.0  0.79233  0.20955  0.12341  1.0000
  N   N12       1.0  0.12188  0.29020  0.37690  1.0000
  Cl  Cl1       1.0  0.50859  0.59246  0.30053  1.0000
  Cl  Cl2       1.0  0.40132  0.90769  0.19920  1.0000
  Cl  Cl3       1.0  0.49141  0.40754  0.69947  1.0000
  Cl  Cl4       1.0  0.59868  0.09231  0.80080  1.0000
  O   O1        1.0  0.08647  0.60398  0.85146  1.0000
  O   O2        1.0  0.54284  0.89589  0.64857  1.0000
  O   O3        1.0  0.91356  0.39602  0.14854  1.0000
  O   O4        1.0  0.45716  0.10411  0.35143  1.0000
