data_image0
_chemical_formula_structural       U8H40C48N8O40
_chemical_formula_sum              "U8 H40 C48 N8 O40"
_cell_length_a       8.62858
_cell_length_b       10.0928
_cell_length_c       18.665
_cell_angle_alpha    90
_cell_angle_beta     90
_cell_angle_gamma    90

_space_group_name_H-M_alt    "P 1"
_space_group_IT_number       1

loop_
  _space_group_symop_operation_xyz
  'x, y, z'

loop_
  _atom_site_type_symbol
  _atom_site_label
  _atom_site_symmetry_multiplicity
  _atom_site_fract_x
  _atom_site_fract_y
  _atom_site_fract_z
  _atom_site_occupancy
  U   U1        1.0  0.86649  0.21062  0.43417  1.0000
  U   U2        1.0  0.13351  0.28938  0.93417  1.0000
  U   U3        1.0  0.63351  0.71063  0.56582  1.0000
  U   U4        1.0  0.36649  0.78938  0.06583  1.0000
  U   U5        1.0  0.13351  0.78938  0.56583  1.0000
  U   U6        1.0  0.86649  0.71062  0.06583  1.0000
  U   U7        1.0  0.36649  0.28937  0.43417  1.0000
  U   U8        1.0  0.63351  0.21062  0.93418  1.0000
  H   H1        1.0  0.13671  0.12434  0.50146  1.0000
  H   H2        1.0  0.86329  0.37566  0.00146  1.0000
  H   H3        1.0  0.36329  0.62434  0.49854  1.0000
  H   H4        1.0  0.63671  0.87566  0.99854  1.0000
  H   H5        1.0  0.86329  0.87566  0.49854  1.0000
  H   H6        1.0  0.13671  0.62434  0.99854  1.0000
  H   H7        1.0  0.63671  0.37566  0.50146  1.0000
  H   H8        1.0  0.36329  0.12434  0.00146  1.0000
  H   H9        1.0  0.52471  0.45639  0.19880  1.0000
  H   H10       1.0  0.47529  0.04361  0.69880  1.0000
  H   H11       1.0  0.97529  0.95639  0.80121  1.0000
  H   H12       1.0  0.02472  0.54361  0.30121  1.0000
  H   H13       1.0  0.47529  0.54361  0.80120  1.0000
  H   H14       1.0  0.52471  0.95640  0.30120  1.0000
  H   H15       1.0  0.02472  0.04361  0.19879  1.0000
  H   H16       1.0  0.97528  0.45639  0.69879  1.0000
  H   H17       1.0  0.54133  0.42915  0.06685  1.0000
  H   H18       1.0  0.45867  0.07085  0.56685  1.0000
  H   H19       1.0  0.95867  0.92915  0.93315  1.0000
  H   H20       1.0  0.04133  0.57085  0.43315  1.0000
  H   H21       1.0  0.45867  0.57085  0.93315  1.0000
  H   H22       1.0  0.54133  0.92915  0.43315  1.0000
  H   H23       1.0  0.04133  0.07085  0.06685  1.0000
  H   H24       1.0  0.95867  0.42915  0.56685  1.0000
  H   H25       1.0  0.72483  0.05002  0.08694  1.0000
  H   H26       1.0  0.27517  0.44997  0.58694  1.0000
  H   H27       1.0  0.77517  0.55002  0.91306  1.0000
  H   H28       1.0  0.22483  0.94998  0.41306  1.0000
  H   H29       1.0  0.27517  0.94998  0.91306  1.0000
  H   H30       1.0  0.72483  0.55003  0.41306  1.0000
  H   H31       1.0  0.22483  0.44998  0.08694  1.0000
  H   H32       1.0  0.77517  0.05002  0.58694  1.0000
  H   H33       1.0  0.72184  0.06553  0.22056  1.0000
  H   H34       1.0  0.27816  0.43446  0.72056  1.0000
  H   H35       1.0  0.77816  0.56553  0.77943  1.0000
  H   H36       1.0  0.22184  0.93447  0.27944  1.0000
  H   H37       1.0  0.27816  0.93447  0.77944  1.0000
  H   H38       1.0  0.72184  0.56554  0.27944  1.0000
  H   H39       1.0  0.22184  0.43446  0.22057  1.0000
  H   H40       1.0  0.77816  0.06553  0.72056  1.0000
  C   C1        1.0  0.61076  0.26909  0.29983  1.0000
  C   C2        1.0  0.38924  0.23091  0.79983  1.0000
  C   C3        1.0  0.88924  0.76910  0.70017  1.0000
  C   C4        1.0  0.11076  0.73091  0.20017  1.0000
  C   C5        1.0  0.38924  0.73091  0.70017  1.0000
  C   C6        1.0  0.61076  0.76909  0.20017  1.0000
  C   C7        1.0  0.11076  0.23090  0.29983  1.0000
  C   C8        1.0  0.88924  0.26909  0.79983  1.0000
  C   C9        1.0  0.62189  0.26183  0.21994  1.0000
  C   C10       1.0  0.37811  0.23816  0.71994  1.0000
  C   C11       1.0  0.87811  0.76183  0.78006  1.0000
  C   C12       1.0  0.12189  0.73817  0.28006  1.0000
  C   C13       1.0  0.37811  0.73817  0.78006  1.0000
  C   C14       1.0  0.62189  0.76184  0.28006  1.0000
  C   C15       1.0  0.12189  0.23816  0.21994  1.0000
  C   C16       1.0  0.87811  0.26183  0.71994  1.0000
  C   C17       1.0  0.57074  0.36533  0.17615  1.0000
  C   C18       1.0  0.42926  0.13467  0.67615  1.0000
  C   C19       1.0  0.92925  0.86533  0.82385  1.0000
  C   C20       1.0  0.07075  0.63467  0.32385  1.0000
  C   C21       1.0  0.42926  0.63467  0.82384  1.0000
  C   C22       1.0  0.57074  0.86533  0.32385  1.0000
  C   C23       1.0  0.07075  0.13467  0.17615  1.0000
  C   C24       1.0  0.92925  0.36533  0.67615  1.0000
  C   C25       1.0  0.57975  0.35017  0.10228  1.0000
  C   C26       1.0  0.42025  0.14983  0.60228  1.0000
  C   C27       1.0  0.92025  0.85017  0.89772  1.0000
  C   C28       1.0  0.07975  0.64983  0.39772  1.0000
  C   C29       1.0  0.42025  0.64983  0.89771  1.0000
  C   C30       1.0  0.57975  0.85017  0.39772  1.0000
  C   C31       1.0  0.07975  0.14983  0.10229  1.0000
  C   C32       1.0  0.92025  0.35017  0.60228  1.0000
  C   C33       1.0  0.68218  0.13860  0.11361  1.0000
  C   C34       1.0  0.31782  0.36140  0.61361  1.0000
  C   C35       1.0  0.81782  0.63860  0.88639  1.0000
  C   C36       1.0  0.18218  0.86141  0.38639  1.0000
  C   C37       1.0  0.31782  0.86140  0.88639  1.0000
  C   C38       1.0  0.68218  0.63860  0.38639  1.0000
  C   C39       1.0  0.18218  0.36140  0.11361  1.0000
  C   C40       1.0  0.81782  0.13859  0.61361  1.0000
  C   C41       1.0  0.68014  0.14716  0.18781  1.0000
  C   C42       1.0  0.31986  0.35284  0.68781  1.0000
  C   C43       1.0  0.81986  0.64716  0.81219  1.0000
  C   C44       1.0  0.18014  0.85284  0.31219  1.0000
  C   C45       1.0  0.31986  0.85284  0.81219  1.0000
  C   C46       1.0  0.68014  0.64716  0.31219  1.0000
  C   C47       1.0  0.18014  0.35284  0.18781  1.0000
  C   C48       1.0  0.81986  0.14716  0.68781  1.0000
  N   N1        1.0  0.63315  0.23842  0.07148  1.0000
  N   N2        1.0  0.36685  0.26158  0.57148  1.0000
  N   N3        1.0  0.86684  0.73842  0.92852  1.0000
  N   N4        1.0  0.13316  0.76158  0.42852  1.0000
  N   N5        1.0  0.36685  0.76158  0.92852  1.0000
  N   N6        1.0  0.63316  0.73842  0.42852  1.0000
  N   N7        1.0  0.13316  0.26158  0.07148  1.0000
  N   N8        1.0  0.86685  0.23842  0.57148  1.0000
  O   O1        1.0  0.89981  0.38371  0.41277  1.0000
  O   O2        1.0  0.10019  0.11629  0.91277  1.0000
  O   O3        1.0  0.60020  0.88371  0.58723  1.0000
  O   O4        1.0  0.39981  0.61629  0.08723  1.0000
  O   O5        1.0  0.10019  0.61629  0.58723  1.0000
  O   O6        1.0  0.89980  0.88371  0.08723  1.0000
  O   O7        1.0  0.39981  0.11628  0.41277  1.0000
  O   O8        1.0  0.60019  0.38371  0.91277  1.0000
  O   O9        1.0  0.83744  0.03579  0.45633  1.0000
  O   O10       1.0  0.16256  0.46421  0.95633  1.0000
  O   O11       1.0  0.66256  0.53579  0.54367  1.0000
  O   O12       1.0  0.33744  0.96421  0.04367  1.0000
  O   O13       1.0  0.16256  0.96421  0.54367  1.0000
  O   O14       1.0  0.83744  0.53579  0.04367  1.0000
  O   O15       1.0  0.33744  0.46421  0.45633  1.0000
  O   O16       1.0  0.66256  0.03578  0.95633  1.0000
  O   O17       1.0  0.11894  0.20713  0.47413  1.0000
  O   O18       1.0  0.88106  0.29287  0.97413  1.0000
  O   O19       1.0  0.38106  0.70714  0.52587  1.0000
  O   O20       1.0  0.61894  0.79287  0.02587  1.0000
  O   O21       1.0  0.88106  0.79287  0.52587  1.0000
  O   O22       1.0  0.11894  0.70713  0.02587  1.0000
  O   O23       1.0  0.61894  0.29286  0.47413  1.0000
  O   O24       1.0  0.38106  0.20713  0.97413  1.0000
  O   O25       1.0  0.69727  0.19069  0.33550  1.0000
  O   O26       1.0  0.30274  0.30930  0.83550  1.0000
  O   O27       1.0  0.80274  0.69070  0.66450  1.0000
  O   O28       1.0  0.19726  0.80930  0.16450  1.0000
  O   O29       1.0  0.30273  0.80931  0.66450  1.0000
  O   O30       1.0  0.69726  0.69070  0.16450  1.0000
  O   O31       1.0  0.19727  0.30930  0.33550  1.0000
  O   O32       1.0  0.80274  0.19070  0.83550  1.0000
  O   O33       1.0  0.51351  0.34873  0.32720  1.0000
  O   O34       1.0  0.48650  0.15126  0.82721  1.0000
  O   O35       1.0  0.98649  0.84874  0.67279  1.0000
  O   O36       1.0  0.01350  0.65127  0.17280  1.0000
  O   O37       1.0  0.48650  0.65127  0.67280  1.0000
  O   O38       1.0  0.51350  0.84874  0.17279  1.0000
  O   O39       1.0  0.01351  0.15126  0.32721  1.0000
  O   O40       1.0  0.98650  0.34873  0.82720  1.0000
