data_image0
_chemical_formula_structural       U4H28C20S8N4O40
_chemical_formula_sum              "U4 H28 C20 S8 N4 O40"
_cell_length_a       10.3622
_cell_length_b       10.3259
_cell_length_c       11.636
_cell_angle_alpha    111.128
_cell_angle_beta     90
_cell_angle_gamma    90

_space_group_name_H-M_alt    "P 1"
_space_group_IT_number       1

loop_
  _space_group_symop_operation_xyz
  'x, y, z'

loop_
  _atom_site_type_symbol
  _atom_site_label
  _atom_site_symmetry_multiplicity
  _atom_site_fract_x
  _atom_site_fract_y
  _atom_site_fract_z
  _atom_site_occupancy
  U   U1        1.0  0.19552  0.61667  0.21275  1.0000
  U   U2        1.0  0.69553  0.88334  0.28725  1.0000
  U   U3        1.0  0.80447  0.38333  0.78725  1.0000
  U   U4        1.0  0.30447  0.11667  0.71275  1.0000
  H   H1        1.0  0.02210  0.86991  0.34896  1.0000
  H   H2        1.0  0.52210  0.63009  0.15104  1.0000
  H   H3        1.0  0.97790  0.13009  0.65104  1.0000
  H   H4        1.0  0.47790  0.36991  0.84896  1.0000
  H   H5        1.0  0.06265  0.79556  0.44266  1.0000
  H   H6        1.0  0.56265  0.70444  0.05734  1.0000
  H   H7        1.0  0.93735  0.20444  0.55734  1.0000
  H   H8        1.0  0.43735  0.29556  0.94266  1.0000
  H   H9        1.0  0.92182  0.40199  0.18096  1.0000
  H   H10       1.0  0.42182  0.09801  0.31904  1.0000
  H   H11       1.0  0.07818  0.59801  0.81904  1.0000
  H   H12       1.0  0.57818  0.90199  0.68096  1.0000
  H   H13       1.0  0.72703  0.34899  0.08026  1.0000
  H   H14       1.0  0.22703  0.15101  0.41975  1.0000
  H   H15       1.0  0.27297  0.65101  0.91974  1.0000
  H   H16       1.0  0.77297  0.84899  0.58026  1.0000
  H   H17       1.0  0.95227  0.50682  0.39439  1.0000
  H   H18       1.0  0.45227  0.99318  0.10561  1.0000
  H   H19       1.0  0.04773  0.49318  0.60561  1.0000
  H   H20       1.0  0.54773  0.00682  0.89439  1.0000
  H   H21       1.0  0.75543  0.55978  0.53503  1.0000
  H   H22       1.0  0.25543  0.94023  0.96497  1.0000
  H   H23       1.0  0.24457  0.44022  0.46497  1.0000
  H   H24       1.0  0.74458  0.05977  0.03503  1.0000
  H   H25       1.0  0.53715  0.50935  0.43440  1.0000
  H   H26       1.0  0.03714  0.99066  0.06560  1.0000
  H   H27       1.0  0.46285  0.49065  0.56560  1.0000
  H   H28       1.0  0.96286  0.00934  0.93440  1.0000
  C   C1        1.0  0.61530  0.42478  0.25193  1.0000
  C   C2        1.0  0.11530  0.07522  0.24807  1.0000
  C   C3        1.0  0.38470  0.57522  0.74806  1.0000
  C   C4        1.0  0.88470  0.92478  0.75193  1.0000
  C   C5        1.0  0.72598  0.39738  0.18034  1.0000
  C   C6        1.0  0.22598  0.10261  0.31966  1.0000
  C   C7        1.0  0.27402  0.60262  0.81966  1.0000
  C   C8        1.0  0.77402  0.89739  0.68034  1.0000
  C   C9        1.0  0.85400  0.48641  0.36049  1.0000
  C   C10       1.0  0.35400  0.01359  0.13951  1.0000
  C   C11       1.0  0.14600  0.51359  0.63951  1.0000
  C   C12       1.0  0.64601  0.98641  0.86049  1.0000
  C   C13       1.0  0.74565  0.51525  0.43526  1.0000
  C   C14       1.0  0.24564  0.98475  0.06474  1.0000
  C   C15       1.0  0.25435  0.48475  0.56474  1.0000
  C   C16       1.0  0.75436  0.01525  0.93526  1.0000
  C   C17       1.0  0.62485  0.48540  0.37996  1.0000
  C   C18       1.0  0.12485  0.01460  0.12005  1.0000
  C   C19       1.0  0.37515  0.51460  0.62004  1.0000
  C   C20       1.0  0.87515  0.98540  0.87995  1.0000
  S   S1        1.0  0.46029  0.37701  0.18331  1.0000
  S   S2        1.0  0.96029  0.12299  0.31670  1.0000
  S   S3        1.0  0.53971  0.62299  0.81669  1.0000
  S   S4        1.0  0.03971  0.87701  0.68330  1.0000
  S   S5        1.0  0.08628  0.32075  0.95579  1.0000
  S   S6        1.0  0.58628  0.17924  0.54421  1.0000
  S   S7        1.0  0.91371  0.67925  0.04421  1.0000
  S   S8        1.0  0.41372  0.82076  0.45579  1.0000
  N   N1        1.0  0.84076  0.43039  0.23723  1.0000
  N   N2        1.0  0.34076  0.06961  0.26277  1.0000
  N   N3        1.0  0.15924  0.56961  0.76277  1.0000
  N   N4        1.0  0.65924  0.93039  0.73723  1.0000
  O   O1        1.0  0.12737  0.50149  0.28244  1.0000
  O   O2        1.0  0.62737  0.99851  0.21756  1.0000
  O   O3        1.0  0.87263  0.49851  0.71756  1.0000
  O   O4        1.0  0.37263  0.00148  0.78244  1.0000
  O   O5        1.0  0.26303  0.73196  0.14316  1.0000
  O   O6        1.0  0.76303  0.76804  0.35684  1.0000
  O   O7        1.0  0.73697  0.26804  0.85684  1.0000
  O   O8        1.0  0.23697  0.23196  0.64316  1.0000
  O   O9        1.0  0.41294  0.50445  0.16167  1.0000
  O   O10       1.0  0.91294  0.99555  0.33833  1.0000
  O   O11       1.0  0.58706  0.49555  0.83833  1.0000
  O   O12       1.0  0.08706  0.00445  0.66167  1.0000
  O   O13       1.0  0.38204  0.34477  0.27211  1.0000
  O   O14       1.0  0.88203  0.15523  0.22789  1.0000
  O   O15       1.0  0.61796  0.65523  0.72789  1.0000
  O   O16       1.0  0.11797  0.84477  0.77211  1.0000
  O   O17       1.0  0.48367  0.26341  0.06575  1.0000
  O   O18       1.0  0.98367  0.23659  0.43425  1.0000
  O   O19       1.0  0.51633  0.73659  0.93425  1.0000
  O   O20       1.0  0.01633  0.76341  0.56575  1.0000
  O   O21       1.0  0.17391  0.44121  0.01956  1.0000
  O   O22       1.0  0.67391  0.05879  0.48044  1.0000
  O   O23       1.0  0.82609  0.55879  0.98044  1.0000
  O   O24       1.0  0.32609  0.94121  0.51956  1.0000
  O   O25       1.0  0.01243  0.35742  0.86110  1.0000
  O   O26       1.0  0.51243  0.14258  0.63890  1.0000
  O   O27       1.0  0.98757  0.64258  0.13890  1.0000
  O   O28       1.0  0.48757  0.85742  0.36110  1.0000
  O   O29       1.0  0.17057  0.19884  0.89023  1.0000
  O   O30       1.0  0.67057  0.30116  0.60977  1.0000
  O   O31       1.0  0.82943  0.80116  0.10978  1.0000
  O   O32       1.0  0.32943  0.69884  0.39023  1.0000
  O   O33       1.0  0.00136  0.28864  0.04173  1.0000
  O   O34       1.0  0.50136  0.21136  0.45827  1.0000
  O   O35       1.0  0.99864  0.71136  0.95827  1.0000
  O   O36       1.0  0.49864  0.78864  0.54173  1.0000
  O   O37       1.0  0.08794  0.80912  0.36488  1.0000
  O   O38       1.0  0.58794  0.69089  0.13512  1.0000
  O   O39       1.0  0.91206  0.19089  0.63512  1.0000
  O   O40       1.0  0.41206  0.30911  0.86489  1.0000
