data_image0
_chemical_formula_structural       U4H24C24O24
_chemical_formula_sum              "U4 H24 C24 O24"
_cell_length_a       7.6341
_cell_length_b       10.4654
_cell_length_c       10.7153
_cell_angle_alpha    113.432
_cell_angle_beta     89.9999
_cell_angle_gamma    90

_space_group_name_H-M_alt    "P 1"
_space_group_IT_number       1

loop_
  _space_group_symop_operation_xyz
  'x, y, z'

loop_
  _atom_site_type_symbol
  _atom_site_label
  _atom_site_symmetry_multiplicity
  _atom_site_fract_x
  _atom_site_fract_y
  _atom_site_fract_z
  _atom_site_occupancy
  U   U1        1.0  0.26465  0.08349  0.33195  1.0000
  U   U2        1.0  0.76465  0.91652  0.16805  1.0000
  U   U3        1.0  0.73535  0.91651  0.66805  1.0000
  U   U4        1.0  0.23535  0.08348  0.83195  1.0000
  H   H1        1.0  0.85593  0.47102  0.47639  1.0000
  H   H2        1.0  0.35593  0.52898  0.02360  1.0000
  H   H3        1.0  0.14407  0.52898  0.52361  1.0000
  H   H4        1.0  0.64407  0.47102  0.97640  1.0000
  H   H5        1.0  0.63051  0.47358  0.52004  1.0000
  H   H6        1.0  0.13052  0.52642  0.97996  1.0000
  H   H7        1.0  0.36949  0.52643  0.47996  1.0000
  H   H8        1.0  0.86949  0.47358  0.02004  1.0000
  H   H9        1.0  0.72107  0.56697  0.76264  1.0000
  H   H10       1.0  0.22107  0.43303  0.73736  1.0000
  H   H11       1.0  0.27893  0.43303  0.23736  1.0000
  H   H12       1.0  0.77893  0.56697  0.26264  1.0000
  H   H13       1.0  0.94116  0.51930  0.71484  1.0000
  H   H14       1.0  0.44116  0.48070  0.78516  1.0000
  H   H15       1.0  0.05884  0.48070  0.28516  1.0000
  H   H16       1.0  0.55884  0.51930  0.21484  1.0000
  H   H17       1.0  0.64771  0.31819  0.71435  1.0000
  H   H18       1.0  0.14771  0.68181  0.78565  1.0000
  H   H19       1.0  0.35229  0.68180  0.28565  1.0000
  H   H20       1.0  0.85229  0.31819  0.21435  1.0000
  H   H21       1.0  0.87906  0.28592  0.70933  1.0000
  H   H22       1.0  0.37906  0.71408  0.79067  1.0000
  H   H23       1.0  0.12094  0.71408  0.29067  1.0000
  H   H24       1.0  0.62094  0.28592  0.20933  1.0000
  C   C1        1.0  0.76427  0.28346  0.51555  1.0000
  C   C2        1.0  0.26427  0.71654  0.98445  1.0000
  C   C3        1.0  0.23573  0.71654  0.48445  1.0000
  C   C4        1.0  0.73573  0.28346  0.01555  1.0000
  C   C5        1.0  0.76194  0.44301  0.53845  1.0000
  C   C6        1.0  0.26194  0.55699  0.96155  1.0000
  C   C7        1.0  0.23805  0.55699  0.46155  1.0000
  C   C8        1.0  0.73806  0.44301  0.03845  1.0000
  C   C9        1.0  0.80483  0.48666  0.69051  1.0000
  C   C10       1.0  0.30484  0.51334  0.80949  1.0000
  C   C11       1.0  0.19516  0.51334  0.30949  1.0000
  C   C12       1.0  0.69517  0.48666  0.19051  1.0000
  C   C13       1.0  0.77401  0.33540  0.67507  1.0000
  C   C14       1.0  0.27402  0.66460  0.82493  1.0000
  C   C15       1.0  0.22598  0.66460  0.32493  1.0000
  C   C16       1.0  0.72598  0.33540  0.17507  1.0000
  C   C17       1.0  0.59762  0.20886  0.45332  1.0000
  C   C18       1.0  0.09762  0.79114  0.04668  1.0000
  C   C19       1.0  0.40238  0.79114  0.54668  1.0000
  C   C20       1.0  0.90238  0.20886  0.95332  1.0000
  C   C21       1.0  0.93160  0.21403  0.44909  1.0000
  C   C22       1.0  0.43160  0.78597  0.05091  1.0000
  C   C23       1.0  0.06840  0.78597  0.55091  1.0000
  C   C24       1.0  0.56840  0.21403  0.94909  1.0000
  O   O1        1.0  0.25676  0.97959  0.43126  1.0000
  O   O2        1.0  0.75676  0.02041  0.06874  1.0000
  O   O3        1.0  0.74324  0.02041  0.56874  1.0000
  O   O4        1.0  0.24324  0.97959  0.93126  1.0000
  O   O5        1.0  0.27329  0.18840  0.23439  1.0000
  O   O6        1.0  0.77329  0.81161  0.26561  1.0000
  O   O7        1.0  0.72671  0.81160  0.76561  1.0000
  O   O8        1.0  0.22671  0.18839  0.73439  1.0000
  O   O9        1.0  0.45194  0.25826  0.50683  1.0000
  O   O10       1.0  0.95194  0.74174  0.99317  1.0000
  O   O11       1.0  0.54806  0.74174  0.49317  1.0000
  O   O12       1.0  0.04806  0.25826  0.00683  1.0000
  O   O13       1.0  0.59338  0.09690  0.34221  1.0000
  O   O14       1.0  0.09338  0.90311  0.15779  1.0000
  O   O15       1.0  0.40662  0.90310  0.65779  1.0000
  O   O16       1.0  0.90662  0.09690  0.84221  1.0000
  O   O17       1.0  0.93545  0.10151  0.33853  1.0000
  O   O18       1.0  0.43545  0.89849  0.16147  1.0000
  O   O19       1.0  0.06455  0.89849  0.66147  1.0000
  O   O20       1.0  0.56456  0.10151  0.83853  1.0000
  O   O21       1.0  0.07751  0.26627  0.49968  1.0000
  O   O22       1.0  0.57751  0.73373  0.00032  1.0000
  O   O23       1.0  0.92249  0.73373  0.50032  1.0000
  O   O24       1.0  0.42249  0.26627  0.99968  1.0000
