data_image0
_chemical_formula_structural       U2H16C10O12
_chemical_formula_sum              "U2 H16 C10 O12"
_cell_length_a       6.20206
_cell_length_b       7.33193
_cell_length_c       9.25081
_cell_angle_alpha    99.329
_cell_angle_beta     102.312
_cell_angle_gamma    103.028

_space_group_name_H-M_alt    "P 1"
_space_group_IT_number       1

loop_
  _space_group_symop_operation_xyz
  'x, y, z'

loop_
  _atom_site_type_symbol
  _atom_site_label
  _atom_site_symmetry_multiplicity
  _atom_site_fract_x
  _atom_site_fract_y
  _atom_site_fract_z
  _atom_site_occupancy
  U   U1        1.0  0.30719  0.76845  0.86574  1.0000
  U   U2        1.0  0.69282  0.23155  0.13428  1.0000
  H   H1        1.0  0.21004  0.11218  0.05272  1.0000
  H   H2        1.0  0.78997  0.88782  0.94729  1.0000
  H   H3        1.0  0.78094  0.50006  0.53599  1.0000
  H   H4        1.0  0.21905  0.49994  0.46401  1.0000
  H   H5        1.0  0.55345  0.23550  0.70620  1.0000
  H   H6        1.0  0.44654  0.76451  0.29381  1.0000
  H   H7        1.0  0.53904  0.19393  0.50874  1.0000
  H   H8        1.0  0.46095  0.80607  0.49126  1.0000
  H   H9        1.0  0.77942  0.01283  0.70228  1.0000
  H   H10       1.0  0.22057  0.98717  0.29772  1.0000
  H   H11       1.0  0.87233  0.07812  0.54282  1.0000
  H   H12       1.0  0.12765  0.92187  0.45717  1.0000
  H   H13       1.0  0.03157  0.30579  0.87349  1.0000
  H   H14       1.0  0.96843  0.69421  0.12651  1.0000
  H   H15       1.0  0.20841  0.25531  0.75059  1.0000
  H   H16       1.0  0.79158  0.74467  0.24940  1.0000
  C   C1        1.0  0.73672  0.60038  0.75452  1.0000
  C   C2        1.0  0.26331  0.39962  0.24548  1.0000
  C   C3        1.0  0.79684  0.45359  0.64440  1.0000
  C   C4        1.0  0.20317  0.54642  0.35560  1.0000
  C   C5        1.0  0.65468  0.24524  0.62284  1.0000
  C   C6        1.0  0.34532  0.75477  0.37717  1.0000
  C   C7        1.0  0.83528  0.13256  0.64971  1.0000
  C   C8        1.0  0.16471  0.86745  0.35030  1.0000
  C   C9        1.0  0.04289  0.28114  0.75546  1.0000
  C   C10       1.0  0.95711  0.71886  0.24454  1.0000
  O   O1        1.0  0.34934  0.63771  0.01476  1.0000
  O   O2        1.0  0.65068  0.36229  0.98523  1.0000
  O   O3        1.0  0.24313  0.88323  0.70827  1.0000
  O   O4        1.0  0.75687  0.11677  0.29172  1.0000
  O   O5        1.0  0.90154  0.71639  0.86065  1.0000
  O   O6        1.0  0.09846  0.28360  0.13936  1.0000
  O   O7        1.0  0.52998  0.60516  0.73231  1.0000
  O   O8        1.0  0.47001  0.39485  0.26768  1.0000
  O   O9        1.0  0.03617  0.45818  0.70089  1.0000
  O   O10       1.0  0.96384  0.54182  0.29910  1.0000
  O   O11       1.0  0.31838  0.03282  0.04030  1.0000
  O   O12       1.0  0.68163  0.96718  0.95970  1.0000
