data_image0
_chemical_formula_structural       Na2NiH46C28S4N6O16
_chemical_formula_sum              "Na2 Ni1 H46 C28 S4 N6 O16"
_cell_length_a       9.68308
_cell_length_b       10.1296
_cell_length_c       11.6697
_cell_angle_alpha    90.2367
_cell_angle_beta     107.991
_cell_angle_gamma    112.417

_space_group_name_H-M_alt    "P 1"
_space_group_IT_number       1

loop_
  _space_group_symop_operation_xyz
  'x, y, z'

loop_
  _atom_site_type_symbol
  _atom_site_label
  _atom_site_symmetry_multiplicity
  _atom_site_fract_x
  _atom_site_fract_y
  _atom_site_fract_z
  _atom_site_occupancy
  Na  Na1       1.0  0.83021  0.31005  0.93073  1.0000
  Na  Na2       1.0  0.16979  0.68995  0.06927  1.0000
  Ni  Ni1       1.0  0.50000  0.50000  0.50000  1.0000
  H   H1        1.0  0.19343  0.19709  0.15768  1.0000
  H   H2        1.0  0.80657  0.80291  0.84233  1.0000
  H   H3        1.0  0.34012  0.32800  0.11089  1.0000
  H   H4        1.0  0.65988  0.67201  0.88912  1.0000
  H   H5        1.0  0.27482  0.38178  0.22367  1.0000
  H   H6        1.0  0.72519  0.61822  0.77633  1.0000
  H   H7        1.0  0.46780  0.01335  0.14865  1.0000
  H   H8        1.0  0.53220  0.98666  0.85135  1.0000
  H   H9        1.0  0.51825  0.17999  0.08892  1.0000
  H   H10       1.0  0.48175  0.82002  0.91109  1.0000
  H   H11       1.0  0.32003  0.08131  0.09121  1.0000
  H   H12       1.0  0.67997  0.91869  0.90879  1.0000
  H   H13       1.0  0.72365  0.19569  0.32917  1.0000
  H   H14       1.0  0.27635  0.80432  0.67084  1.0000
  H   H15       1.0  0.57913  0.04691  0.36519  1.0000
  H   H16       1.0  0.42087  0.95309  0.63481  1.0000
  H   H17       1.0  0.64283  0.22463  0.44206  1.0000
  H   H18       1.0  0.35717  0.77537  0.55795  1.0000
  H   H19       1.0  0.71858  0.71822  0.50033  1.0000
  H   H20       1.0  0.28142  0.28178  0.49967  1.0000
  H   H21       1.0  0.80269  0.60189  0.55367  1.0000
  H   H22       1.0  0.19731  0.39811  0.44633  1.0000
  H   H23       1.0  0.56896  0.64720  0.07511  1.0000
  H   H24       1.0  0.43103  0.35280  0.92489  1.0000
  H   H25       1.0  0.88685  0.48920  0.42529  1.0000
  H   H26       1.0  0.11315  0.51080  0.57471  1.0000
  H   H27       1.0  0.73657  0.52382  0.04208  1.0000
  H   H28       1.0  0.26343  0.47618  0.95792  1.0000
  H   H29       1.0  0.23696  0.08835  0.86782  1.0000
  H   H30       1.0  0.76304  0.91165  0.13218  1.0000
  H   H31       1.0  0.10031  0.07143  0.94755  1.0000
  H   H32       1.0  0.89969  0.92857  0.05245  1.0000
  H   H33       1.0  0.10079  0.91448  0.87540  1.0000
  H   H34       1.0  0.89921  0.08552  0.12460  1.0000
  H   H35       1.0  0.00688  0.87383  0.65289  1.0000
  H   H36       1.0  0.99312  0.12617  0.34711  1.0000
  H   H37       1.0  0.90738  0.97739  0.56882  1.0000
  H   H38       1.0  0.09262  0.02261  0.43118  1.0000
  H   H39       1.0  0.11965  0.05153  0.63257  1.0000
  H   H40       1.0  0.88034  0.94847  0.36743  1.0000
  H   H41       1.0  0.71459  0.01880  0.58996  1.0000
  H   H42       1.0  0.28540  0.98120  0.41004  1.0000
  H   H43       1.0  0.73078  0.17929  0.66737  1.0000
  H   H44       1.0  0.26922  0.82071  0.33262  1.0000
  H   H45       1.0  0.86796  0.18639  0.59277  1.0000
  H   H46       1.0  0.13204  0.81361  0.40723  1.0000
  C   C1        1.0  0.42779  0.27255  0.28936  1.0000
  C   C2        1.0  0.57221  0.72745  0.71065  1.0000
  C   C3        1.0  0.30176  0.29698  0.18961  1.0000
  C   C4        1.0  0.69824  0.70302  0.81039  1.0000
  C   C5        1.0  0.44619  0.11213  0.13999  1.0000
  C   C6        1.0  0.55381  0.88788  0.86002  1.0000
  C   C7        1.0  0.61729  0.16199  0.35607  1.0000
  C   C8        1.0  0.38271  0.83801  0.64394  1.0000
  C   C9        1.0  0.63986  0.61240  0.15080  1.0000
  C   C10       1.0  0.36013  0.38759  0.84920  1.0000
  C   C11       1.0  0.63526  0.63758  0.26691  1.0000
  C   C12       1.0  0.36475  0.36241  0.73309  1.0000
  C   C13       1.0  0.81831  0.52489  0.34888  1.0000
  C   C14       1.0  0.18169  0.47511  0.65112  1.0000
  C   C15       1.0  0.82062  0.49914  0.23215  1.0000
  C   C16       1.0  0.17937  0.50086  0.76785  1.0000
  C   C17       1.0  0.72566  0.59489  0.36729  1.0000
  C   C18       1.0  0.27433  0.40511  0.63270  1.0000
  C   C19       1.0  0.73263  0.54331  0.13268  1.0000
  C   C20       1.0  0.26736  0.45668  0.86731  1.0000
  C   C21       1.0  0.90505  0.10336  0.76475  1.0000
  C   C22       1.0  0.09496  0.89664  0.23524  1.0000
  C   C23       1.0  0.11626  0.02703  0.86944  1.0000
  C   C24       1.0  0.88373  0.97296  0.13056  1.0000
  C   C25       1.0  0.00832  0.98262  0.64653  1.0000
  C   C26       1.0  0.99168  0.01738  0.35347  1.0000
  C   C27       1.0  0.79793  0.12230  0.64668  1.0000
  C   C28       1.0  0.20208  0.87770  0.35332  1.0000
  S   S1        1.0  0.51277  0.72146  0.29127  1.0000
  S   S2        1.0  0.48723  0.27854  0.70873  1.0000
  S   S3        1.0  0.92911  0.40059  0.20525  1.0000
  S   S4        1.0  0.07089  0.59941  0.79475  1.0000
  N   N1        1.0  0.49195  0.18558  0.26230  1.0000
  N   N2        1.0  0.50805  0.81443  0.73771  1.0000
  N   N3        1.0  0.71550  0.61700  0.48417  1.0000
  N   N4        1.0  0.28450  0.38301  0.51582  1.0000
  N   N5        1.0  0.00091  0.03696  0.75900  1.0000
  N   N6        1.0  0.99909  0.96304  0.24100  1.0000
  O   O1        1.0  0.47274  0.32810  0.39962  1.0000
  O   O2        1.0  0.52727  0.67190  0.60038  1.0000
  O   O3        1.0  0.39484  0.61148  0.33381  1.0000
  O   O4        1.0  0.60517  0.38853  0.66619  1.0000
  O   O5        1.0  0.01516  0.37711  0.32533  1.0000
  O   O6        1.0  0.98483  0.62288  0.67467  1.0000
  O   O7        1.0  0.80691  0.26666  0.12712  1.0000
  O   O8        1.0  0.19309  0.73333  0.87288  1.0000
  O   O9        1.0  0.44015  0.75999  0.17328  1.0000
  O   O10       1.0  0.55986  0.24002  0.82672  1.0000
  O   O11       1.0  0.62269  0.84572  0.38487  1.0000
  O   O12       1.0  0.37731  0.15428  0.61513  1.0000
  O   O13       1.0  0.03013  0.48824  0.13865  1.0000
  O   O14       1.0  0.96987  0.51176  0.86135  1.0000
  O   O15       1.0  0.90527  0.14833  0.86530  1.0000
  O   O16       1.0  0.09473  0.85167  0.13471  1.0000
