data_image0
_chemical_formula_structural       K4H16C24S4N12O12
_chemical_formula_sum              "K4 H16 C24 S4 N12 O12"
_cell_length_a       5.32892
_cell_length_b       8.22749
_cell_length_c       19.7755
_cell_angle_alpha    89.9994
_cell_angle_beta     90.0003
_cell_angle_gamma    90.0045

_space_group_name_H-M_alt    "P 1"
_space_group_IT_number       1

loop_
  _space_group_symop_operation_xyz
  'x, y, z'

loop_
  _atom_site_type_symbol
  _atom_site_label
  _atom_site_symmetry_multiplicity
  _atom_site_fract_x
  _atom_site_fract_y
  _atom_site_fract_z
  _atom_site_occupancy
  K   K1        1.0  0.99129  0.65192  0.26508  1.0000
  K   K2        1.0  0.50872  0.34808  0.76508  1.0000
  K   K3        1.0  0.49133  0.84809  0.73493  1.0000
  K   K4        1.0  0.00866  0.15192  0.23493  1.0000
  H   H1        1.0  0.04135  0.06978  0.39753  1.0000
  H   H2        1.0  0.45867  0.93022  0.89753  1.0000
  H   H3        1.0  0.54135  0.43023  0.60247  1.0000
  H   H4        1.0  0.95861  0.56980  0.10248  1.0000
  H   H5        1.0  0.94749  0.15606  0.51510  1.0000
  H   H6        1.0  0.55253  0.84394  0.01510  1.0000
  H   H7        1.0  0.44744  0.34397  0.48490  1.0000
  H   H8        1.0  0.05251  0.65605  0.98490  1.0000
  H   H9        1.0  0.62240  0.91722  0.58429  1.0000
  H   H10       1.0  0.87761  0.08276  0.08429  1.0000
  H   H11       1.0  0.12244  0.58277  0.41571  1.0000
  H   H12       1.0  0.37755  0.41720  0.91571  1.0000
  H   H13       1.0  0.71812  0.83495  0.46649  1.0000
  H   H14       1.0  0.78188  0.16503  0.96649  1.0000
  H   H15       1.0  0.21819  0.66502  0.53351  1.0000
  H   H16       1.0  0.28181  0.33495  0.03351  1.0000
  C   C1        1.0  0.39033  0.95225  0.42457  1.0000
  C   C2        1.0  0.10967  0.04775  0.92457  1.0000
  C   C3        1.0  0.89036  0.54775  0.57543  1.0000
  C   C4        1.0  0.60961  0.45225  0.07543  1.0000
  C   C5        1.0  0.17128  0.03990  0.43826  1.0000
  C   C6        1.0  0.32874  0.96011  0.93825  1.0000
  C   C7        1.0  0.67129  0.46010  0.56174  1.0000
  C   C8        1.0  0.82869  0.53991  0.06174  1.0000
  C   C9        1.0  0.11714  0.08652  0.50448  1.0000
  C   C10       1.0  0.38288  0.91348  0.00448  1.0000
  C   C11       1.0  0.61713  0.41348  0.49552  1.0000
  C   C12       1.0  0.88283  0.58653  0.99552  1.0000
  C   C13       1.0  0.28148  0.04431  0.55700  1.0000
  C   C14       1.0  0.21853  0.95569  0.05700  1.0000
  C   C15       1.0  0.78148  0.45569  0.44300  1.0000
  C   C16       1.0  0.71849  0.54430  0.94300  1.0000
  C   C17       1.0  0.49798  0.95333  0.54327  1.0000
  C   C18       1.0  0.00203  0.04666  0.04326  1.0000
  C   C19       1.0  0.99800  0.54667  0.45673  1.0000
  C   C20       1.0  0.50199  0.45331  0.95673  1.0000
  C   C21       1.0  0.55147  0.90711  0.47721  1.0000
  C   C22       1.0  0.94854  0.09288  0.97720  1.0000
  C   C23       1.0  0.05150  0.59288  0.52279  1.0000
  C   C24       1.0  0.44849  0.40710  0.02280  1.0000
  S   S1        1.0  0.47979  0.90527  0.33983  1.0000
  S   S2        1.0  0.02022  0.09472  0.83983  1.0000
  S   S3        1.0  0.97985  0.59475  0.66016  1.0000
  S   S4        1.0  0.52015  0.40526  0.16017  1.0000
  N   N1        1.0  0.24087  0.09011  0.62521  1.0000
  N   N2        1.0  0.25914  0.90988  0.12521  1.0000
  N   N3        1.0  0.74087  0.40991  0.37478  1.0000
  N   N4        1.0  0.75912  0.59008  0.87479  1.0000
  N   N5        1.0  0.02703  0.12220  0.64418  1.0000
  N   N6        1.0  0.47298  0.87780  0.14418  1.0000
  N   N7        1.0  0.52700  0.37780  0.35582  1.0000
  N   N8        1.0  0.97298  0.62220  0.85582  1.0000
  N   N9        1.0  0.83783  0.15209  0.66893  1.0000
  N   N10       1.0  0.66218  0.84792  0.16893  1.0000
  N   N11       1.0  0.33782  0.34791  0.33108  1.0000
  N   N12       1.0  0.16216  0.65209  0.83108  1.0000
  O   O1        1.0  0.57963  0.73885  0.34153  1.0000
  O   O2        1.0  0.92037  0.26114  0.84153  1.0000
  O   O3        1.0  0.07971  0.76117  0.65846  1.0000
  O   O4        1.0  0.42028  0.23884  0.15847  1.0000
  O   O5        1.0  0.24909  0.91799  0.29908  1.0000
  O   O6        1.0  0.25092  0.08201  0.79908  1.0000
  O   O7        1.0  0.74915  0.58204  0.70091  1.0000
  O   O8        1.0  0.75086  0.41797  0.20091  1.0000
  O   O9        1.0  0.66862  0.02778  0.32176  1.0000
  O   O10       1.0  0.83140  0.97222  0.82176  1.0000
  O   O11       1.0  0.16869  0.47227  0.67824  1.0000
  O   O12       1.0  0.33133  0.52775  0.17824  1.0000
