data_image0
_chemical_formula_structural       U2H14C8O16
_chemical_formula_sum              "U2 H14 C8 O16"
_cell_length_a       8.0509
_cell_length_b       7.19644
_cell_length_c       9.29562
_cell_angle_alpha    71.0674
_cell_angle_beta     65.9504
_cell_angle_gamma    78.8846

_space_group_name_H-M_alt    "P 1"
_space_group_IT_number       1

loop_
  _space_group_symop_operation_xyz
  'x, y, z'

loop_
  _atom_site_type_symbol
  _atom_site_label
  _atom_site_symmetry_multiplicity
  _atom_site_fract_x
  _atom_site_fract_y
  _atom_site_fract_z
  _atom_site_occupancy
  U   U1        1.0  0.50000  0.99999  0.00000  1.0000
  U   U2        1.0  1.00000  0.50000  0.50000  1.0000
  H   H1        1.0  0.15368  0.96554  0.30212  1.0000
  H   H2        1.0  0.84631  0.03446  0.69788  1.0000
  H   H3        1.0  0.18580  0.20098  0.23218  1.0000
  H   H4        1.0  0.81422  0.79902  0.76781  1.0000
  H   H5        1.0  0.34984  0.28103  0.52834  1.0000
  H   H6        1.0  0.65016  0.71897  0.47166  1.0000
  H   H7        1.0  0.39301  0.28311  0.34073  1.0000
  H   H8        1.0  0.60699  0.71688  0.65928  1.0000
  H   H9        1.0  0.31619  0.49932  0.87260  1.0000
  H   H10       1.0  0.68380  0.50070  0.12739  1.0000
  H   H11       1.0  0.22200  0.69305  0.75074  1.0000
  H   H12       1.0  0.77799  0.30696  0.24925  1.0000
  H   H13       1.0  0.93741  0.72016  0.98106  1.0000
  H   H14       1.0  0.06259  0.27984  0.01895  1.0000
  C   C1        1.0  0.31704  0.77854  0.90033  1.0000
  C   C2        1.0  0.68296  0.22148  0.09966  1.0000
  C   C3        1.0  0.22592  0.63522  0.87455  1.0000
  C   C4        1.0  0.77408  0.36478  0.12545  1.0000
  C   C5        1.0  0.03353  0.59337  0.00255  1.0000
  C   C6        1.0  0.96647  0.40663  0.99745  1.0000
  C   C7        1.0  0.02401  0.56122  0.17442  1.0000
  C   C8        1.0  0.97599  0.43878  0.82558  1.0000
  O   O1        1.0  0.46387  0.22803  0.85758  1.0000
  O   O2        1.0  0.53613  0.77195  0.14242  1.0000
  O   O3        1.0  0.09381  0.73614  0.44352  1.0000
  O   O4        1.0  0.90619  0.26388  0.55648  1.0000
  O   O5        1.0  0.48338  0.81700  0.80863  1.0000
  O   O6        1.0  0.51662  0.18299  0.19137  1.0000
  O   O7        1.0  0.23489  0.85926  0.01626  1.0000
  O   O8        1.0  0.76510  0.14076  0.98373  1.0000
  O   O9        1.0  0.88970  0.63573  0.27590  1.0000
  O   O10       1.0  0.11031  0.36426  0.72411  1.0000
  O   O11       1.0  0.14669  0.44992  0.22459  1.0000
  O   O12       1.0  0.85331  0.55008  0.77541  1.0000
  O   O13       1.0  0.20573  0.07525  0.20386  1.0000
  O   O14       1.0  0.79428  0.92474  0.79615  1.0000
  O   O15       1.0  0.31241  0.33893  0.43509  1.0000
  O   O16       1.0  0.68759  0.66106  0.56492  1.0000
