data_image0
_chemical_formula_structural       U4H16C16O28
_chemical_formula_sum              "U4 H16 C16 O28"
_cell_length_a       6.61164
_cell_length_b       9.61113
_cell_length_c       13.5045
_cell_angle_alpha    78.7849
_cell_angle_beta     87.3001
_cell_angle_gamma    85.7157

_space_group_name_H-M_alt    "P 1"
_space_group_IT_number       1

loop_
  _space_group_symop_operation_xyz
  'x, y, z'

loop_
  _atom_site_type_symbol
  _atom_site_label
  _atom_site_symmetry_multiplicity
  _atom_site_fract_x
  _atom_site_fract_y
  _atom_site_fract_z
  _atom_site_occupancy
  U   U1        1.0  0.38853  0.60671  0.80861  1.0000
  U   U2        1.0  0.61147  0.39329  0.19138  1.0000
  U   U3        1.0  0.03617  0.15920  0.74286  1.0000
  U   U4        1.0  0.96383  0.84080  0.25714  1.0000
  H   H1        1.0  0.03785  0.82363  0.82082  1.0000
  H   H2        1.0  0.96215  0.17637  0.17918  1.0000
  H   H3        1.0  0.00313  0.77150  0.71806  1.0000
  H   H4        1.0  0.99687  0.22850  0.28194  1.0000
  H   H5        1.0  0.72682  0.56931  0.95682  1.0000
  H   H6        1.0  0.27318  0.43070  0.04317  1.0000
  H   H7        1.0  0.83172  0.64519  0.84916  1.0000
  H   H8        1.0  0.16828  0.35481  0.15083  1.0000
  H   H9        1.0  0.67585  0.61440  0.55391  1.0000
  H   H10       1.0  0.32415  0.38561  0.44609  1.0000
  H   H11       1.0  0.32126  0.65966  0.52672  1.0000
  H   H12       1.0  0.67873  0.34035  0.47328  1.0000
  H   H13       1.0  0.21174  0.03511  0.02830  1.0000
  H   H14       1.0  0.78826  0.96489  0.97171  1.0000
  H   H15       1.0  0.44766  0.19857  0.94454  1.0000
  H   H16       1.0  0.55234  0.80142  0.05546  1.0000
  C   C1        1.0  0.66317  0.41518  0.65421  1.0000
  C   C2        1.0  0.33684  0.58483  0.34580  1.0000
  C   C3        1.0  0.60084  0.51490  0.55817  1.0000
  C   C4        1.0  0.39916  0.48511  0.44183  1.0000
  C   C5        1.0  0.36749  0.54601  0.53924  1.0000
  C   C6        1.0  0.63251  0.45400  0.46076  1.0000
  C   C7        1.0  0.23789  0.46624  0.62299  1.0000
  C   C8        1.0  0.76211  0.53376  0.37701  1.0000
  C   C9        1.0  0.25209  0.89253  0.92628  1.0000
  C   C10       1.0  0.74791  0.10747  0.07372  1.0000
  C   C11       1.0  0.33807  0.98197  0.99171  1.0000
  C   C12       1.0  0.66192  0.01803  0.00829  1.0000
  C   C13       1.0  0.49457  0.08921  0.93607  1.0000
  C   C14       1.0  0.50542  0.91078  0.06393  1.0000
  C   C15       1.0  0.53734  0.09280  0.82483  1.0000
  C   C16       1.0  0.46266  0.90720  0.17517  1.0000
  O   O1        1.0  0.48340  0.74063  0.70850  1.0000
  O   O2        1.0  0.51659  0.25936  0.29150  1.0000
  O   O3        1.0  0.30115  0.47751  0.91686  1.0000
  O   O4        1.0  0.69885  0.52250  0.08314  1.0000
  O   O5        1.0  0.05521  0.03942  0.65454  1.0000
  O   O6        1.0  0.94479  0.96058  0.34546  1.0000
  O   O7        1.0  0.01815  0.26596  0.83916  1.0000
  O   O8        1.0  0.98186  0.73403  0.16084  1.0000
  O   O9        1.0  0.58222  0.43484  0.73891  1.0000
  O   O10       1.0  0.41777  0.56515  0.26109  1.0000
  O   O11       1.0  0.79547  0.31612  0.64604  1.0000
  O   O12       1.0  0.20453  0.68388  0.35396  1.0000
  O   O13       1.0  0.18129  0.52911  0.69637  1.0000
  O   O14       1.0  0.81870  0.47089  0.30363  1.0000
  O   O15       1.0  0.19996  0.34025  0.62018  1.0000
  O   O16       1.0  0.80005  0.65974  0.37982  1.0000
  O   O17       1.0  0.34102  0.77344  0.91867  1.0000
  O   O18       1.0  0.65898  0.22656  0.08132  1.0000
  O   O19       1.0  0.09081  0.94165  0.87810  1.0000
  O   O20       1.0  0.90918  0.05834  0.12190  1.0000
  O   O21       1.0  0.38898  0.11340  0.76635  1.0000
  O   O22       1.0  0.61102  0.88659  0.23365  1.0000
  O   O23       1.0  0.71981  0.07439  0.79388  1.0000
  O   O24       1.0  0.28020  0.92562  0.20612  1.0000
  O   O25       1.0  0.02979  0.73565  0.78939  1.0000
  O   O26       1.0  0.97021  0.26435  0.21060  1.0000
  O   O27       1.0  0.70895  0.59990  0.88285  1.0000
  O   O28       1.0  0.29105  0.40010  0.11714  1.0000
