data_image0
_chemical_formula_structural       Ba2H36C14Br4O16
_chemical_formula_sum              "Ba2 H36 C14 Br4 O16"
_cell_length_a       7.37756
_cell_length_b       8.41025
_cell_length_c       13.4836
_cell_angle_alpha    90.0001
_cell_angle_beta     89.9999
_cell_angle_gamma    116.045

_space_group_name_H-M_alt    "P 1"
_space_group_IT_number       1

loop_
  _space_group_symop_operation_xyz
  'x, y, z'

loop_
  _atom_site_type_symbol
  _atom_site_label
  _atom_site_symmetry_multiplicity
  _atom_site_fract_x
  _atom_site_fract_y
  _atom_site_fract_z
  _atom_site_occupancy
  Ba  Ba1       1.0  0.12425  0.24861  0.74997  1.0000
  Ba  Ba2       1.0  0.87575  0.75139  0.24997  1.0000
  H   H1        1.0  0.65467  0.94877  0.67599  1.0000
  H   H2        1.0  0.34533  0.05122  0.17599  1.0000
  H   H3        1.0  0.29395  0.94888  0.82401  1.0000
  H   H4        1.0  0.70604  0.05111  0.32400  1.0000
  H   H5        1.0  0.30983  0.79501  0.97236  1.0000
  H   H6        1.0  0.69017  0.20499  0.47236  1.0000
  H   H7        1.0  0.48507  0.79501  0.52769  1.0000
  H   H8        1.0  0.51494  0.20499  0.02769  1.0000
  H   H9        1.0  0.75599  0.75113  0.78049  1.0000
  H   H10       1.0  0.24401  0.24887  0.28049  1.0000
  H   H11       1.0  0.99456  0.75120  0.71958  1.0000
  H   H12       1.0  0.00544  0.24880  0.21958  1.0000
  H   H13       1.0  0.51286  0.74385  0.79053  1.0000
  H   H14       1.0  0.48714  0.25615  0.29053  1.0000
  H   H15       1.0  0.23037  0.74381  0.70957  1.0000
  H   H16       1.0  0.76963  0.25619  0.20957  1.0000
  H   H17       1.0  0.68996  0.76992  0.95198  1.0000
  H   H18       1.0  0.31004  0.23008  0.45198  1.0000
  H   H19       1.0  0.07948  0.76970  0.54807  1.0000
  H   H20       1.0  0.92052  0.23030  0.04807  1.0000
  H   H21       1.0  0.64276  0.10589  0.90334  1.0000
  H   H22       1.0  0.35724  0.89411  0.40334  1.0000
  H   H23       1.0  0.46297  0.10570  0.59671  1.0000
  H   H24       1.0  0.53703  0.89431  0.09671  1.0000
  H   H25       1.0  0.05172  0.87992  0.99888  1.0000
  H   H26       1.0  0.94828  0.12008  0.49887  1.0000
  H   H27       1.0  0.82798  0.87984  0.50095  1.0000
  H   H28       1.0  0.17202  0.12016  0.00095  1.0000
  H   H29       1.0  0.58604  0.43906  0.63758  1.0000
  H   H30       1.0  0.41396  0.56094  0.13758  1.0000
  H   H31       1.0  0.85280  0.43886  0.86234  1.0000
  H   H32       1.0  0.14719  0.56114  0.36234  1.0000
  H   H33       1.0  0.45850  0.49736  0.56807  1.0000
  H   H34       1.0  0.54150  0.50264  0.06807  1.0000
  H   H35       1.0  0.03868  0.49719  0.93187  1.0000
  H   H36       1.0  0.96132  0.50281  0.43187  1.0000
  C   C1        1.0  0.67481  0.82997  0.79957  1.0000
  C   C2        1.0  0.32519  0.17003  0.29957  1.0000
  C   C3        1.0  0.15471  0.82996  0.70048  1.0000
  C   C4        1.0  0.84529  0.17004  0.20048  1.0000
  C   C5        1.0  0.71739  0.88741  0.90681  1.0000
  C   C6        1.0  0.28261  0.11258  0.40681  1.0000
  C   C7        1.0  0.16964  0.88725  0.59320  1.0000
  C   C8        1.0  0.83036  0.11275  0.09320  1.0000
  C   C9        1.0  0.59148  0.98019  0.94433  1.0000
  C   C10       1.0  0.40852  0.01981  0.44434  1.0000
  C   C11       1.0  0.38852  0.98002  0.55572  1.0000
  C   C12       1.0  0.61148  0.01998  0.05572  1.0000
  C   C13       1.0  0.02761  0.00004  0.99994  1.0000
  C   C14       1.0  0.97239  0.99996  0.49994  1.0000
  Br  Br1       1.0  0.51651  0.39338  0.90788  1.0000
  Br  Br2       1.0  0.48348  0.60661  0.40788  1.0000
  Br  Br3       1.0  0.87696  0.39364  0.59213  1.0000
  Br  Br4       1.0  0.12304  0.60636  0.09213  1.0000
  O   O1        1.0  0.73738  0.98338  0.73772  1.0000
  O   O2        1.0  0.26262  0.01662  0.23772  1.0000
  O   O3        1.0  0.24579  0.98342  0.76228  1.0000
  O   O4        1.0  0.75420  0.01658  0.26228  1.0000
  O   O5        1.0  0.92788  0.01511  0.91336  1.0000
  O   O6        1.0  0.07212  0.98488  0.41336  1.0000
  O   O7        1.0  0.08703  0.01496  0.58658  1.0000
  O   O8        1.0  0.91298  0.98504  0.08658  1.0000
  O   O9        1.0  0.38351  0.87927  0.91849  1.0000
  O   O10       1.0  0.61649  0.12073  0.41849  1.0000
  O   O11       1.0  0.49537  0.87907  0.58162  1.0000
  O   O12       1.0  0.50463  0.12094  0.08162  1.0000
  O   O13       1.0  0.45890  0.45091  0.63539  1.0000
  O   O14       1.0  0.54110  0.54909  0.13539  1.0000
  O   O15       1.0  0.99180  0.45071  0.86455  1.0000
  O   O16       1.0  0.00820  0.54929  0.36455  1.0000
