data_image0
_chemical_formula_structural       Hg4H36C28N4O12
_chemical_formula_sum              "Hg4 H36 C28 N4 O12"
_cell_length_a       5.26764
_cell_length_b       10.2967
_cell_length_c       17.0847
_cell_angle_alpha    90.0055
_cell_angle_beta     89.9999
_cell_angle_gamma    101.416

_space_group_name_H-M_alt    "P 1"
_space_group_IT_number       1

loop_
  _space_group_symop_operation_xyz
  'x, y, z'

loop_
  _atom_site_type_symbol
  _atom_site_label
  _atom_site_symmetry_multiplicity
  _atom_site_fract_x
  _atom_site_fract_y
  _atom_site_fract_z
  _atom_site_occupancy
  Hg  Hg1       1.0  0.61918  0.54339  0.37603  1.0000
  Hg  Hg2       1.0  0.88077  0.95664  0.87604  1.0000
  Hg  Hg3       1.0  0.38071  0.45665  0.62397  1.0000
  Hg  Hg4       1.0  0.11936  0.04331  0.12397  1.0000
  H   H1        1.0  0.61838  0.97940  0.44458  1.0000
  H   H2        1.0  0.88157  0.52066  0.94459  1.0000
  H   H3        1.0  0.38163  0.02067  0.55539  1.0000
  H   H4        1.0  0.11831  0.47927  0.05538  1.0000
  H   H5        1.0  0.49735  0.80725  0.46291  1.0000
  H   H6        1.0  0.00270  0.69280  0.96290  1.0000
  H   H7        1.0  0.50265  0.19282  0.53708  1.0000
  H   H8        1.0  0.99732  0.30712  0.03707  1.0000
  H   H9        1.0  0.36022  0.89063  0.38711  1.0000
  H   H10       1.0  0.13975  0.60935  0.88711  1.0000
  H   H11       1.0  0.63981  0.10941  0.61286  1.0000
  H   H12       1.0  0.86014  0.39054  0.11286  1.0000
  H   H13       1.0  0.09016  0.69445  0.16885  1.0000
  H   H14       1.0  0.40986  0.80558  0.66887  1.0000
  H   H15       1.0  0.90968  0.30547  0.83115  1.0000
  H   H16       1.0  0.59040  0.19459  0.33114  1.0000
  H   H17       1.0  0.03547  0.57335  0.24514  1.0000
  H   H18       1.0  0.46441  0.92664  0.74518  1.0000
  H   H19       1.0  0.96455  0.42662  0.75490  1.0000
  H   H20       1.0  0.53550  0.07341  0.25490  1.0000
  H   H21       1.0  0.32388  0.69678  0.24372  1.0000
  H   H22       1.0  0.17604  0.80318  0.74371  1.0000
  H   H23       1.0  0.67610  0.30322  0.75626  1.0000
  H   H24       1.0  0.82396  0.19682  0.25624  1.0000
  H   H25       1.0  0.79742  0.23808  0.44392  1.0000
  H   H26       1.0  0.70257  0.26195  0.94390  1.0000
  H   H27       1.0  0.20252  0.76191  0.55609  1.0000
  H   H28       1.0  0.29756  0.73805  0.05610  1.0000
  H   H29       1.0  0.05449  0.20386  0.50448  1.0000
  H   H30       1.0  0.44552  0.29622  0.00447  1.0000
  H   H31       1.0  0.94546  0.79615  0.49553  1.0000
  H   H32       1.0  0.55459  0.70376  0.99553  1.0000
  H   H33       1.0  0.02713  0.14722  0.40598  1.0000
  H   H34       1.0  0.47288  0.35281  0.90596  1.0000
  H   H35       1.0  0.97288  0.85281  0.59403  1.0000
  H   H36       1.0  0.52718  0.64715  0.09404  1.0000
  C   C1        1.0  0.78857  0.72906  0.33751  1.0000
  C   C2        1.0  0.71139  0.77095  0.83752  1.0000
  C   C3        1.0  0.21139  0.27096  0.66248  1.0000
  C   C4        1.0  0.28863  0.22903  0.16248  1.0000
  C   C5        1.0  0.73050  0.84728  0.36117  1.0000
  C   C6        1.0  0.76949  0.65274  0.86117  1.0000
  C   C7        1.0  0.26952  0.15275  0.63882  1.0000
  C   C8        1.0  0.23046  0.34722  0.13882  1.0000
  C   C9        1.0  0.98285  0.76554  0.27862  1.0000
  C   C10       1.0  0.51710  0.73446  0.77863  1.0000
  C   C11       1.0  0.01713  0.23445  0.72138  1.0000
  C   C12       1.0  0.48288  0.26557  0.22137  1.0000
  C   C13       1.0  0.54132  0.88328  0.41730  1.0000
  C   C14       1.0  0.95866  0.61676  0.91730  1.0000
  C   C15       1.0  0.45869  0.11678  0.58268  1.0000
  C   C16       1.0  0.04127  0.38317  0.08268  1.0000
  C   C17       1.0  0.11518  0.67714  0.23146  1.0000
  C   C18       1.0  0.38475  0.82285  0.73148  1.0000
  C   C19       1.0  0.88477  0.32283  0.76855  1.0000
  C   C20       1.0  0.61529  0.17721  0.26854  1.0000
  C   C21       1.0  0.16992  0.35525  0.41749  1.0000
  C   C22       1.0  0.33003  0.14479  0.91749  1.0000
  C   C23       1.0  0.82996  0.64478  0.58253  1.0000
  C   C24       1.0  0.67014  0.85516  0.08252  1.0000
  C   C25       1.0  0.00025  0.22815  0.44511  1.0000
  C   C26       1.0  0.49974  0.27190  0.94509  1.0000
  C   C27       1.0  0.99969  0.77186  0.55491  1.0000
  C   C28       1.0  0.50038  0.72808  0.05491  1.0000
  N   N1        1.0  0.04034  0.89572  0.26844  1.0000
  N   N2        1.0  0.45960  0.60428  0.76846  1.0000
  N   N3        1.0  0.95969  0.10427  0.73155  1.0000
  N   N4        1.0  0.54028  0.39575  0.23155  1.0000
  O   O1        1.0  0.88048  0.94892  0.32121  1.0000
  O   O2        1.0  0.61947  0.55109  0.82122  1.0000
  O   O3        1.0  0.11957  0.05109  0.67877  1.0000
  O   O4        1.0  0.38038  0.44890  0.17877  1.0000
  O   O5        1.0  0.42027  0.36133  0.42639  1.0000
  O   O6        1.0  0.07969  0.13871  0.92639  1.0000
  O   O7        1.0  0.57962  0.63872  0.57363  1.0000
  O   O8        1.0  0.92048  0.86121  0.07363  1.0000
  O   O9        1.0  0.07908  0.44669  0.38744  1.0000
  O   O10       1.0  0.42086  0.05334  0.88744  1.0000
  O   O11       1.0  0.92076  0.55334  0.61259  1.0000
  O   O12       1.0  0.57936  0.94663  0.11256  1.0000
