data_image0
_chemical_formula_structural       Zn2H36C40N4O8
_chemical_formula_sum              "Zn2 H36 C40 N4 O8"
_cell_length_a       9.80313
_cell_length_b       9.90052
_cell_length_c       11.7006
_cell_angle_alpha    66.3212
_cell_angle_beta     89.0643
_cell_angle_gamma    62.5449

_space_group_name_H-M_alt    "P 1"
_space_group_IT_number       1

loop_
  _space_group_symop_operation_xyz
  'x, y, z'

loop_
  _atom_site_type_symbol
  _atom_site_label
  _atom_site_symmetry_multiplicity
  _atom_site_fract_x
  _atom_site_fract_y
  _atom_site_fract_z
  _atom_site_occupancy
  Zn  Zn1       1.0  0.85954  0.98573  0.00138  1.0000
  Zn  Zn2       1.0  0.14046  0.01427  0.99862  1.0000
  H   H1        1.0  0.54298  0.22615  0.85523  1.0000
  H   H2        1.0  0.45702  0.77385  0.14477  1.0000
  H   H3        1.0  0.82968  0.61485  0.13468  1.0000
  H   H4        1.0  0.17032  0.38515  0.86532  1.0000
  H   H5        1.0  0.72236  0.62510  0.25887  1.0000
  H   H6        1.0  0.27764  0.37490  0.74113  1.0000
  H   H7        1.0  0.84548  0.72027  0.22051  1.0000
  H   H8        1.0  0.15453  0.27972  0.77950  1.0000
  H   H9        1.0  0.25475  0.89801  0.39740  1.0000
  H   H10       1.0  0.74524  0.10198  0.60260  1.0000
  H   H11       1.0  0.28979  0.80483  0.63182  1.0000
  H   H12       1.0  0.71020  0.19517  0.36818  1.0000
  H   H13       1.0  0.12112  0.69793  0.75350  1.0000
  H   H14       1.0  0.87888  0.30207  0.24650  1.0000
  H   H15       1.0  0.92059  0.68140  0.64057  1.0000
  H   H16       1.0  0.07941  0.31860  0.35944  1.0000
  H   H17       1.0  0.88476  0.77925  0.40470  1.0000
  H   H18       1.0  0.11523  0.22075  0.59531  1.0000
  H   H19       1.0  0.51177  0.52130  0.89060  1.0000
  H   H20       1.0  0.48825  0.47869  0.10940  1.0000
  H   H21       1.0  0.35419  0.83856  0.79831  1.0000
  H   H22       1.0  0.64582  0.16142  0.20169  1.0000
  H   H23       1.0  0.49120  0.00751  0.74186  1.0000
  H   H24       1.0  0.50879  0.99249  0.25813  1.0000
  H   H25       1.0  0.78312  0.86107  0.79644  1.0000
  H   H26       1.0  0.21687  0.13894  0.20356  1.0000
  H   H27       1.0  0.93804  0.54432  0.89421  1.0000
  H   H28       1.0  0.06196  0.45570  0.10581  1.0000
  H   H29       1.0  0.39604  0.58243  0.28186  1.0000
  H   H30       1.0  0.60396  0.41757  0.71814  1.0000
  H   H31       1.0  0.64095  0.76582  0.47224  1.0000
  H   H32       1.0  0.35904  0.23419  0.52776  1.0000
  H   H33       1.0  0.70359  0.61665  0.63701  1.0000
  H   H34       1.0  0.29641  0.38335  0.36299  1.0000
  H   H35       1.0  0.80865  0.56132  0.52279  1.0000
  H   H36       1.0  0.19135  0.43868  0.47721  1.0000
  C   C1        1.0  0.52288  0.12540  0.92059  1.0000
  C   C2        1.0  0.47713  0.87460  0.07942  1.0000
  C   C3        1.0  0.62806  0.85474  0.08699  1.0000
  C   C4        1.0  0.37194  0.14526  0.91301  1.0000
  C   C5        1.0  0.76403  0.69438  0.18178  1.0000
  C   C6        1.0  0.23597  0.30562  0.81822  1.0000
  C   C7        1.0  0.04450  0.90535  0.24592  1.0000
  C   C8        1.0  0.95549  0.09465  0.75408  1.0000
  C   C9        1.0  0.06773  0.84418  0.38732  1.0000
  C   C10       1.0  0.93226  0.15581  0.61268  1.0000
  C   C11       1.0  0.18225  0.85049  0.45176  1.0000
  C   C12       1.0  0.81775  0.14951  0.54824  1.0000
  C   C13       1.0  0.20155  0.79769  0.58289  1.0000
  C   C14       1.0  0.79844  0.20231  0.41710  1.0000
  C   C15       1.0  0.10738  0.73700  0.65096  1.0000
  C   C16       1.0  0.89261  0.26300  0.34904  1.0000
  C   C17       1.0  0.99442  0.72813  0.58754  1.0000
  C   C18       1.0  0.00557  0.27187  0.41247  1.0000
  C   C19       1.0  0.97414  0.78226  0.45610  1.0000
  C   C20       1.0  0.02585  0.21774  0.54390  1.0000
  C   C21       1.0  0.82984  0.32433  0.94502  1.0000
  C   C22       1.0  0.17018  0.67567  0.05498  1.0000
  C   C23       1.0  0.73447  0.51391  0.89589  1.0000
  C   C24       1.0  0.26554  0.48609  0.10411  1.0000
  C   C25       1.0  0.56965  0.59721  0.86908  1.0000
  C   C26       1.0  0.43036  0.40279  0.13092  1.0000
  C   C27       1.0  0.48223  0.77417  0.81551  1.0000
  C   C28       1.0  0.51777  0.22582  0.18448  1.0000
  C   C29       1.0  0.55919  0.86903  0.78600  1.0000
  C   C30       1.0  0.44082  0.13097  0.21399  1.0000
  C   C31       1.0  0.72327  0.78721  0.81538  1.0000
  C   C32       1.0  0.27673  0.21280  0.18462  1.0000
  C   C33       1.0  0.81019  0.61034  0.87078  1.0000
  C   C34       1.0  0.18982  0.38967  0.12923  1.0000
  C   C35       1.0  0.44382  0.54478  0.38026  1.0000
  C   C36       1.0  0.55617  0.45522  0.61974  1.0000
  C   C37       1.0  0.58947  0.56395  0.51789  1.0000
  C   C38       1.0  0.41053  0.43605  0.48211  1.0000
  C   C39       1.0  0.69079  0.63099  0.53925  1.0000
  C   C40       1.0  0.30920  0.36901  0.46075  1.0000
  N   N1        1.0  0.64811  0.98375  0.00561  1.0000
  N   N2        1.0  0.35189  0.01625  0.99440  1.0000
  N   N3        1.0  0.53180  0.60845  0.39706  1.0000
  N   N4        1.0  0.46819  0.39155  0.60294  1.0000
  O   O1        1.0  0.92396  0.91994  0.19013  1.0000
  O   O2        1.0  0.07602  0.08008  0.80986  1.0000
  O   O3        1.0  0.85391  0.06143  0.80894  1.0000
  O   O4        1.0  0.14608  0.93855  0.19105  1.0000
  O   O5        1.0  0.75523  0.24428  0.95665  1.0000
  O   O6        1.0  0.24479  0.75572  0.04334  1.0000
  O   O7        1.0  0.02120  0.74173  0.03160  1.0000
  O   O8        1.0  0.97882  0.25827  0.96841  1.0000
