data_image0
_chemical_formula_structural       Zn4H48C64N4O16
_chemical_formula_sum              "Zn4 H48 C64 N4 O16"
_cell_length_a       5.85214
_cell_length_b       14.6821
_cell_length_c       16.3134
_cell_angle_alpha    97.3726
_cell_angle_beta     90.0012
_cell_angle_gamma    90.0003

_space_group_name_H-M_alt    "P 1"
_space_group_IT_number       1

loop_
  _space_group_symop_operation_xyz
  'x, y, z'

loop_
  _atom_site_type_symbol
  _atom_site_label
  _atom_site_symmetry_multiplicity
  _atom_site_fract_x
  _atom_site_fract_y
  _atom_site_fract_z
  _atom_site_occupancy
  Zn  Zn1       1.0  0.60543  0.05727  0.65501  1.0000
  Zn  Zn2       1.0  0.10543  0.94273  0.84499  1.0000
  Zn  Zn3       1.0  0.39457  0.94273  0.34501  1.0000
  Zn  Zn4       1.0  0.89457  0.05726  0.15501  1.0000
  H   H1        1.0  0.04047  0.13986  0.59720  1.0000
  H   H2        1.0  0.54045  0.86014  0.90281  1.0000
  H   H3        1.0  0.95957  0.86016  0.40283  1.0000
  H   H4        1.0  0.45958  0.13983  0.09718  1.0000
  H   H5        1.0  0.68109  0.89939  0.52136  1.0000
  H   H6        1.0  0.18111  0.10061  0.97864  1.0000
  H   H7        1.0  0.31894  0.10063  0.47867  1.0000
  H   H8        1.0  0.81894  0.89936  0.02134  1.0000
  H   H9        1.0  0.13175  0.61459  0.29688  1.0000
  H   H10       1.0  0.63172  0.38544  0.20311  1.0000
  H   H11       1.0  0.86827  0.38542  0.70311  1.0000
  H   H12       1.0  0.36825  0.61457  0.79687  1.0000
  H   H13       1.0  0.22734  0.45070  0.30602  1.0000
  H   H14       1.0  0.72735  0.54932  0.19396  1.0000
  H   H15       1.0  0.77266  0.54931  0.69396  1.0000
  H   H16       1.0  0.27265  0.45068  0.80602  1.0000
  H   H17       1.0  0.59976  0.41166  0.36891  1.0000
  H   H18       1.0  0.09977  0.58834  0.13107  1.0000
  H   H19       1.0  0.40023  0.58835  0.63109  1.0000
  H   H20       1.0  0.90025  0.41165  0.86892  1.0000
  H   H21       1.0  0.87506  0.53509  0.41685  1.0000
  H   H22       1.0  0.37505  0.46489  0.08314  1.0000
  H   H23       1.0  0.12493  0.46491  0.58315  1.0000
  H   H24       1.0  0.62497  0.53509  0.91686  1.0000
  H   H25       1.0  0.78006  0.69862  0.40408  1.0000
  H   H26       1.0  0.28001  0.30137  0.09593  1.0000
  H   H27       1.0  0.21995  0.30138  0.59593  1.0000
  H   H28       1.0  0.71997  0.69862  0.90407  1.0000
  H   H29       1.0  0.37581  0.78766  0.54792  1.0000
  H   H30       1.0  0.87581  0.21234  0.95209  1.0000
  H   H31       1.0  0.62416  0.21235  0.45208  1.0000
  H   H32       1.0  0.12416  0.78766  0.04793  1.0000
  H   H33       1.0  0.15666  0.64653  0.49787  1.0000
  H   H34       1.0  0.65667  0.35347  0.00214  1.0000
  H   H35       1.0  0.84331  0.35348  0.50212  1.0000
  H   H36       1.0  0.34330  0.64653  0.99788  1.0000
  H   H37       1.0  0.77937  0.61816  0.56104  1.0000
  H   H38       1.0  0.27937  0.38184  0.93896  1.0000
  H   H39       1.0  0.22061  0.38185  0.43895  1.0000
  H   H40       1.0  0.72061  0.61816  0.06104  1.0000
  H   H41       1.0  0.62335  0.73169  0.67487  1.0000
  H   H42       1.0  0.12336  0.26832  0.82513  1.0000
  H   H43       1.0  0.37662  0.26833  0.32512  1.0000
  H   H44       1.0  0.87666  0.73168  0.17487  1.0000
  H   H45       1.0  0.83878  0.87288  0.72183  1.0000
  H   H46       1.0  0.33879  0.12713  0.77816  1.0000
  H   H47       1.0  0.16119  0.12713  0.27816  1.0000
  H   H48       1.0  0.66123  0.87287  0.22184  1.0000
  C   C1        1.0  0.02314  0.07779  0.55329  1.0000
  C   C2        1.0  0.52315  0.92220  0.94672  1.0000
  C   C3        1.0  0.97687  0.92223  0.44674  1.0000
  C   C4        1.0  0.47688  0.07776  0.05327  1.0000
  C   C5        1.0  0.17546  0.05614  0.48831  1.0000
  C   C6        1.0  0.67547  0.94386  0.01170  1.0000
  C   C7        1.0  0.82457  0.94389  0.51172  1.0000
  C   C8        1.0  0.32458  0.05610  0.98829  1.0000
  C   C9        1.0  0.38399  0.76351  0.34396  1.0000
  C   C10       1.0  0.88390  0.23650  0.15605  1.0000
  C   C11       1.0  0.61602  0.23650  0.65606  1.0000
  C   C12       1.0  0.11604  0.76350  0.84394  1.0000
  C   C13       1.0  0.44831  0.66630  0.35085  1.0000
  C   C14       1.0  0.94827  0.33371  0.14914  1.0000
  C   C15       1.0  0.55169  0.33371  0.64915  1.0000
  C   C16       1.0  0.05171  0.66629  0.85085  1.0000
  C   C17       1.0  0.29363  0.59609  0.32319  1.0000
  C   C18       1.0  0.79360  0.40393  0.17680  1.0000
  C   C19       1.0  0.70638  0.40392  0.67681  1.0000
  C   C20       1.0  0.20638  0.59607  0.82319  1.0000
  C   C21       1.0  0.34746  0.50474  0.32911  1.0000
  C   C22       1.0  0.84746  0.49527  0.17087  1.0000
  C   C23       1.0  0.65256  0.49526  0.67088  1.0000
  C   C24       1.0  0.15256  0.50473  0.82911  1.0000
  C   C25       1.0  0.55565  0.48295  0.36396  1.0000
  C   C26       1.0  0.05565  0.51706  0.13602  1.0000
  C   C27       1.0  0.44436  0.51706  0.63603  1.0000
  C   C28       1.0  0.94436  0.48294  0.86396  1.0000
  C   C29       1.0  0.71102  0.55255  0.39116  1.0000
  C   C30       1.0  0.21102  0.44744  0.10882  1.0000
  C   C31       1.0  0.28897  0.44746  0.60883  1.0000
  C   C32       1.0  0.78900  0.55254  0.89117  1.0000
  C   C33       1.0  0.65882  0.64398  0.38423  1.0000
  C   C34       1.0  0.15877  0.35602  0.11577  1.0000
  C   C35       1.0  0.34118  0.35603  0.61577  1.0000
  C   C36       1.0  0.84121  0.64397  0.88423  1.0000
  C   C37       1.0  0.75659  0.07689  0.83209  1.0000
  C   C38       1.0  0.25659  0.92311  0.66790  1.0000
  C   C39       1.0  0.24343  0.92311  0.16791  1.0000
  C   C40       1.0  0.74339  0.07690  0.33210  1.0000
  C   C41       1.0  0.12500  0.83794  0.63978  1.0000
  C   C42       1.0  0.62500  0.16206  0.86023  1.0000
  C   C43       1.0  0.87498  0.16207  0.36022  1.0000
  C   C44       1.0  0.37500  0.83793  0.13979  1.0000
  C   C45       1.0  0.21175  0.77443  0.57563  1.0000
  C   C46       1.0  0.71176  0.22557  0.92437  1.0000
  C   C47       1.0  0.78822  0.22558  0.42437  1.0000
  C   C48       1.0  0.28825  0.77442  0.07563  1.0000
  C   C49       1.0  0.08812  0.69546  0.54779  1.0000
  C   C50       1.0  0.58812  0.30454  0.95222  1.0000
  C   C51       1.0  0.91187  0.30455  0.45220  1.0000
  C   C52       1.0  0.41187  0.69546  0.04780  1.0000
  C   C53       1.0  0.87661  0.67959  0.58339  1.0000
  C   C54       1.0  0.37663  0.32041  0.91662  1.0000
  C   C55       1.0  0.12338  0.32042  0.41660  1.0000
  C   C56       1.0  0.62340  0.67959  0.08339  1.0000
  C   C57       1.0  0.78837  0.74297  0.64668  1.0000
  C   C58       1.0  0.28839  0.25703  0.85332  1.0000
  C   C59       1.0  0.21160  0.25704  0.35331  1.0000
  C   C60       1.0  0.71162  0.74297  0.14668  1.0000
  C   C61       1.0  0.91172  0.82220  0.67444  1.0000
  C   C62       1.0  0.41171  0.17781  0.82555  1.0000
  C   C63       1.0  0.08824  0.17781  0.32555  1.0000
  C   C64       1.0  0.58828  0.82219  0.17445  1.0000
  N   N1        1.0  0.84831  0.02139  0.56457  1.0000
  N   N2        1.0  0.34830  0.97861  0.93543  1.0000
  N   N3        1.0  0.15172  0.97863  0.43546  1.0000
  N   N4        1.0  0.65174  0.02136  0.06455  1.0000
  O   O1        1.0  0.53474  0.82656  0.36929  1.0000
  O   O2        1.0  0.03466  0.17344  0.13072  1.0000
  O   O3        1.0  0.46528  0.17345  0.63073  1.0000
  O   O4        1.0  0.96530  0.82655  0.86927  1.0000
  O   O5        1.0  0.19345  0.78252  0.31507  1.0000
  O   O6        1.0  0.69339  0.21751  0.18493  1.0000
  O   O7        1.0  0.80654  0.21750  0.68495  1.0000
  O   O8        1.0  0.30655  0.78249  0.81504  1.0000
  O   O9        1.0  0.90567  0.05176  0.88213  1.0000
  O   O10       1.0  0.40566  0.94824  0.61787  1.0000
  O   O11       1.0  0.09435  0.94824  0.11787  1.0000
  O   O12       1.0  0.59434  0.05177  0.38214  1.0000
  O   O13       1.0  0.71784  0.02889  0.76270  1.0000
  O   O14       1.0  0.21784  0.97111  0.73730  1.0000
  O   O15       1.0  0.28215  0.97109  0.23731  1.0000
  O   O16       1.0  0.78214  0.02890  0.26270  1.0000
