data_image0
_chemical_formula_structural       Zn2H32C44N4O8
_chemical_formula_sum              "Zn2 H32 C44 N4 O8"
_cell_length_a       10.0009
_cell_length_b       10.2627
_cell_length_c       10.2603
_cell_angle_alpha    66.0203
_cell_angle_beta     73.3792
_cell_angle_gamma    82.1908

_space_group_name_H-M_alt    "P 1"
_space_group_IT_number       1

loop_
  _space_group_symop_operation_xyz
  'x, y, z'

loop_
  _atom_site_type_symbol
  _atom_site_label
  _atom_site_symmetry_multiplicity
  _atom_site_fract_x
  _atom_site_fract_y
  _atom_site_fract_z
  _atom_site_occupancy
  Zn  Zn1       1.0  0.87524  0.52270  0.60806  1.0000
  Zn  Zn2       1.0  0.12475  0.47730  0.39194  1.0000
  H   H1        1.0  0.39235  0.80884  0.33315  1.0000
  H   H2        1.0  0.60765  0.19116  0.66686  1.0000
  H   H3        1.0  0.50299  0.01512  0.33029  1.0000
  H   H4        1.0  0.49700  0.98487  0.66972  1.0000
  H   H5        1.0  0.37004  0.15332  0.47765  1.0000
  H   H6        1.0  0.62996  0.84668  0.52235  1.0000
  H   H7        1.0  0.13021  0.08838  0.62794  1.0000
  H   H8        1.0  0.86979  0.91163  0.37206  1.0000
  H   H9        1.0  0.01981  0.87950  0.63287  1.0000
  H   H10       1.0  0.98019  0.12051  0.36714  1.0000
  H   H11       1.0  0.34642  0.18781  0.69935  1.0000
  H   H12       1.0  0.65358  0.81218  0.30064  1.0000
  H   H13       1.0  0.42722  0.97607  0.89582  1.0000
  H   H14       1.0  0.57278  0.02393  0.10418  1.0000
  H   H15       1.0  0.27315  0.88030  0.14869  1.0000
  H   H16       1.0  0.72686  0.11970  0.85131  1.0000
  H   H17       1.0  0.04614  0.00118  0.21136  1.0000
  H   H18       1.0  0.95387  0.99882  0.78864  1.0000
  H   H19       1.0  0.96547  0.21014  0.01539  1.0000
  H   H20       1.0  0.03453  0.78986  0.98461  1.0000
  H   H21       1.0  0.86629  0.64530  0.81798  1.0000
  H   H22       1.0  0.13372  0.35470  0.18202  1.0000
  H   H23       1.0  0.69351  0.74842  0.98572  1.0000
  H   H24       1.0  0.30649  0.25158  0.01428  1.0000
  H   H25       1.0  0.26247  0.70347  0.93567  1.0000
  H   H26       1.0  0.73753  0.29654  0.06433  1.0000
  H   H27       1.0  0.17603  0.59670  0.79429  1.0000
  H   H28       1.0  0.82397  0.40330  0.20572  1.0000
  H   H29       1.0  0.34367  0.48469  0.63774  1.0000
  H   H30       1.0  0.65632  0.51531  0.36227  1.0000
  H   H31       1.0  0.59885  0.47830  0.61736  1.0000
  H   H32       1.0  0.40115  0.52170  0.38264  1.0000
  C   C1        1.0  0.13109  0.71203  0.48291  1.0000
  C   C2        1.0  0.86888  0.28797  0.51711  1.0000
  C   C3        1.0  0.19920  0.83299  0.48279  1.0000
  C   C4        1.0  0.80079  0.16701  0.51722  1.0000
  C   C5        1.0  0.33573  0.87065  0.39749  1.0000
  C   C6        1.0  0.66426  0.12934  0.60252  1.0000
  C   C7        1.0  0.39694  0.98543  0.39593  1.0000
  C   C8        1.0  0.60306  0.01457  0.60407  1.0000
  C   C9        1.0  0.32247  0.06318  0.47923  1.0000
  C   C10       1.0  0.67753  0.93682  0.52077  1.0000
  C   C11       1.0  0.18703  0.02553  0.56509  1.0000
  C   C12       1.0  0.81298  0.97447  0.43492  1.0000
  C   C13       1.0  0.12576  0.91032  0.56758  1.0000
  C   C14       1.0  0.87423  0.08968  0.43243  1.0000
  C   C15       1.0  0.09651  0.32672  0.72504  1.0000
  C   C16       1.0  0.90347  0.67328  0.27497  1.0000
  C   C17       1.0  0.15086  0.21077  0.84553  1.0000
  C   C18       1.0  0.84915  0.78923  0.15447  1.0000
  C   C19       1.0  0.28198  0.14594  0.81231  1.0000
  C   C20       1.0  0.71802  0.85406  0.18769  1.0000
  C   C21       1.0  0.32669  0.02865  0.92128  1.0000
  C   C22       1.0  0.67331  0.97135  0.07872  1.0000
  C   C23       1.0  0.24078  0.97503  0.06462  1.0000
  C   C24       1.0  0.75922  0.02497  0.93537  1.0000
  C   C25       1.0  0.11237  0.04234  0.09942  1.0000
  C   C26       1.0  0.88764  0.95766  0.90057  1.0000
  C   C27       1.0  0.06728  0.15951  0.99081  1.0000
  C   C28       1.0  0.93273  0.84049  0.00918  1.0000
  C   C29       1.0  0.75459  0.64540  0.82897  1.0000
  C   C30       1.0  0.24541  0.35460  0.17103  1.0000
  C   C31       1.0  0.65705  0.70470  0.92159  1.0000
  C   C32       1.0  0.34296  0.29530  0.07841  1.0000
  C   C33       1.0  0.47796  0.65359  0.85378  1.0000
  C   C34       1.0  0.52204  0.34642  0.14621  1.0000
  C   C35       1.0  0.33347  0.65557  0.86390  1.0000
  C   C36       1.0  0.66653  0.34444  0.13610  1.0000
  C   C37       1.0  0.28715  0.59602  0.78644  1.0000
  C   C38       1.0  0.71285  0.40399  0.21357  1.0000
  C   C39       1.0  0.38298  0.53249  0.69659  1.0000
  C   C40       1.0  0.61702  0.46752  0.30341  1.0000
  C   C41       1.0  0.52443  0.52938  0.68376  1.0000
  C   C42       1.0  0.47557  0.47063  0.31624  1.0000
  C   C43       1.0  0.57471  0.59025  0.76142  1.0000
  C   C44       1.0  0.42530  0.40976  0.23857  1.0000
  N   N1        1.0  0.71495  0.58988  0.75004  1.0000
  N   N2        1.0  0.28505  0.41013  0.24996  1.0000
  N   N3        1.0  0.52165  0.71051  0.93344  1.0000
  N   N4        1.0  0.47835  0.28950  0.06655  1.0000
  O   O1        1.0  0.01005  0.67827  0.56924  1.0000
  O   O2        1.0  0.98996  0.32173  0.43076  1.0000
  O   O3        1.0  0.19895  0.65188  0.39556  1.0000
  O   O4        1.0  0.80104  0.34812  0.60443  1.0000
  O   O5        1.0  0.97885  0.38460  0.76232  1.0000
  O   O6        1.0  0.02116  0.61538  0.23767  1.0000
  O   O7        1.0  0.17150  0.35604  0.59302  1.0000
  O   O8        1.0  0.82851  0.64396  0.40696  1.0000
