data_image0
_chemical_formula_structural       FeH20C22S2N6O2
_chemical_formula_sum              "Fe1 H20 C22 S2 N6 O2"
_cell_length_a       7.20941
_cell_length_b       8.69794
_cell_length_c       10.0537
_cell_angle_alpha    108.332
_cell_angle_beta     104.167
_cell_angle_gamma    96.4438

_space_group_name_H-M_alt    "P 1"
_space_group_IT_number       1

loop_
  _space_group_symop_operation_xyz
  'x, y, z'

loop_
  _atom_site_type_symbol
  _atom_site_label
  _atom_site_symmetry_multiplicity
  _atom_site_fract_x
  _atom_site_fract_y
  _atom_site_fract_z
  _atom_site_occupancy
  Fe  Fe1       1.0  0.00006  0.00006  0.00000  1.0000
  H   H1        1.0  0.09876  0.77503  0.12761  1.0000
  H   H2        1.0  0.90122  0.22525  0.87262  1.0000
  H   H3        1.0  0.34397  0.27059  0.54338  1.0000
  H   H4        1.0  0.65597  0.73011  0.45694  1.0000
  H   H5        1.0  0.48348  0.54614  0.27506  1.0000
  H   H6        1.0  0.51704  0.45398  0.72507  1.0000
  H   H7        1.0  0.12701  0.05885  0.31733  1.0000
  H   H8        1.0  0.87297  0.94156  0.68297  1.0000
  H   H9        1.0  0.26442  0.31820  0.06085  1.0000
  H   H10       1.0  0.73561  0.68191  0.93926  1.0000
  H   H11       1.0  0.28520  0.85356  0.09596  1.0000
  H   H12       1.0  0.71488  0.14637  0.90403  1.0000
  H   H13       1.0  0.20834  0.76810  0.60857  1.0000
  H   H14       1.0  0.79133  0.23174  0.39124  1.0000
  H   H15       1.0  0.82295  0.34161  0.24883  1.0000
  H   H16       1.0  0.17681  0.65802  0.75108  1.0000
  H   H17       1.0  0.86676  0.48888  0.08428  1.0000
  H   H18       1.0  0.13311  0.51051  0.91551  1.0000
  H   H19       1.0  0.24037  0.89384  0.42813  1.0000
  H   H20       1.0  0.75937  0.10575  0.57153  1.0000
  C   C1        1.0  0.43732  0.43293  0.43359  1.0000
  C   C2        1.0  0.56302  0.56735  0.56657  1.0000
  C   C3        1.0  0.33409  0.28954  0.43997  1.0000
  C   C4        1.0  0.66604  0.71085  0.56025  1.0000
  C   C5        1.0  0.41068  0.44048  0.29234  1.0000
  C   C6        1.0  0.58969  0.55970  0.70778  1.0000
  C   C7        1.0  0.21202  0.16771  0.31316  1.0000
  C   C8        1.0  0.78813  0.83261  0.68710  1.0000
  C   C9        1.0  0.28641  0.31334  0.17025  1.0000
  C   C10       1.0  0.71386  0.68683  0.82991  1.0000
  C   C11       1.0  0.28073  0.06424  0.82810  1.0000
  C   C12       1.0  0.71928  0.93583  0.17165  1.0000
  C   C13       1.0  0.12749  0.69962  0.49402  1.0000
  C   C14       1.0  0.87224  0.30011  0.50580  1.0000
  C   C15       1.0  0.91341  0.46569  0.29629  1.0000
  C   C16       1.0  0.08638  0.53394  0.70356  1.0000
  C   C17       1.0  0.93821  0.54853  0.20193  1.0000
  C   C18       1.0  0.06159  0.45101  0.79788  1.0000
  C   C19       1.0  0.14544  0.77231  0.39192  1.0000
  C   C20       1.0  0.85427  0.22733  0.60783  1.0000
  C   C21       1.0  0.00958  0.54133  0.44730  1.0000
  C   C22       1.0  0.99014  0.45840  0.55256  1.0000
  S   S1        1.0  0.42631  0.11276  0.74015  1.0000
  S   S2        1.0  0.57396  0.88739  0.25987  1.0000
  N   N1        1.0  0.18515  0.17701  0.17809  1.0000
  N   N2        1.0  0.81513  0.82319  0.82212  1.0000
  N   N3        1.0  0.17280  0.02935  0.89092  1.0000
  N   N4        1.0  0.82725  0.97078  0.10888  1.0000
  N   N5        1.0  0.05240  0.69922  0.24767  1.0000
  N   N6        1.0  0.94733  0.30034  0.75209  1.0000
  O   O1        1.0  0.14268  0.81030  0.04949  1.0000
  O   O2        1.0  0.85733  0.18990  0.95071  1.0000
