data_image0
_chemical_formula_structural       Fe2H40C44S4N12O4
_chemical_formula_sum              "Fe2 H40 C44 S4 N12 O4"
_cell_length_a       10.3734
_cell_length_b       10.2746
_cell_length_c       13.2428
_cell_angle_alpha    99.5149
_cell_angle_beta     108.748
_cell_angle_gamma    114.206

_space_group_name_H-M_alt    "P 1"
_space_group_IT_number       1

loop_
  _space_group_symop_operation_xyz
  'x, y, z'

loop_
  _atom_site_type_symbol
  _atom_site_label
  _atom_site_symmetry_multiplicity
  _atom_site_fract_x
  _atom_site_fract_y
  _atom_site_fract_z
  _atom_site_occupancy
  Fe  Fe1       1.0  0.64714  0.39673  0.25021  1.0000
  Fe  Fe2       1.0  0.35286  0.60327  0.74979  1.0000
  H   H1        1.0  0.54109  0.06889  0.19856  1.0000
  H   H2        1.0  0.37477  0.34756  0.29792  1.0000
  H   H3        1.0  0.45891  0.93111  0.80144  1.0000
  H   H4        1.0  0.62523  0.65245  0.70208  1.0000
  H   H5        1.0  0.32674  0.84353  0.19610  1.0000
  H   H6        1.0  0.15336  0.13618  0.30199  1.0000
  H   H7        1.0  0.67327  0.15647  0.80389  1.0000
  H   H8        1.0  0.84665  0.86382  0.69801  1.0000
  H   H9        1.0  0.18646  0.68557  0.25157  1.0000
  H   H10       1.0  0.93825  0.93831  0.24842  1.0000
  H   H11       1.0  0.81355  0.31443  0.74844  1.0000
  H   H12       1.0  0.06174  0.06169  0.75158  1.0000
  H   H13       1.0  0.96576  0.47583  0.25803  1.0000
  H   H14       1.0  0.72351  0.71238  0.24508  1.0000
  H   H15       1.0  0.03425  0.52417  0.74197  1.0000
  H   H16       1.0  0.27648  0.28762  0.75491  1.0000
  H   H17       1.0  0.80326  0.57966  0.46359  1.0000
  H   H18       1.0  0.61169  0.33543  0.03791  1.0000
  H   H19       1.0  0.19674  0.42034  0.53641  1.0000
  H   H20       1.0  0.38831  0.66457  0.96209  1.0000
  H   H21       1.0  0.64958  0.59313  0.41172  1.0000
  H   H22       1.0  0.68342  0.23790  0.08922  1.0000
  H   H23       1.0  0.35042  0.40687  0.58828  1.0000
  H   H24       1.0  0.31658  0.76210  0.91078  1.0000
  H   H25       1.0  0.63253  0.96060  0.06045  1.0000
  H   H26       1.0  0.40145  0.56623  0.44126  1.0000
  H   H27       1.0  0.36747  0.03941  0.93954  1.0000
  H   H28       1.0  0.59855  0.43374  0.55874  1.0000
  H   H29       1.0  0.76318  0.82960  0.00502  1.0000
  H   H30       1.0  0.32750  0.75518  0.49534  1.0000
  H   H31       1.0  0.23683  0.17041  0.99497  1.0000
  H   H32       1.0  0.67248  0.24479  0.50466  1.0000
  H   H33       1.0  0.12186  0.26784  0.03731  1.0000
  H   H34       1.0  0.72605  0.08533  0.46266  1.0000
  H   H35       1.0  0.87815  0.73217  0.96269  1.0000
  H   H36       1.0  0.27393  0.91466  0.53736  1.0000
  H   H37       1.0  0.97326  0.37795  0.08798  1.0000
  H   H38       1.0  0.78428  0.88305  0.41303  1.0000
  H   H39       1.0  0.02674  0.62206  0.91202  1.0000
  H   H40       1.0  0.21570  0.11695  0.58697  1.0000
  C   C1        1.0  0.45232  0.07848  0.22075  1.0000
  C   C2        1.0  0.35977  0.23387  0.27632  1.0000
  C   C3        1.0  0.54768  0.92152  0.77926  1.0000
  C   C4        1.0  0.64024  0.76613  0.72368  1.0000
  C   C5        1.0  0.33100  0.95249  0.22057  1.0000
  C   C6        1.0  0.23467  0.11303  0.27734  1.0000
  C   C7        1.0  0.66900  0.04752  0.77944  1.0000
  C   C8        1.0  0.76533  0.88697  0.72266  1.0000
  C   C9        1.0  0.21675  0.96650  0.24926  1.0000
  C   C10       1.0  0.78325  0.03350  0.75073  1.0000
  C   C11       1.0  0.08599  0.83555  0.24991  1.0000
  C   C12       1.0  0.91401  0.16445  0.75009  1.0000
  C   C13       1.0  0.08779  0.69964  0.25128  1.0000
  C   C14       1.0  0.95142  0.83857  0.24942  1.0000
  C   C15       1.0  0.91221  0.30036  0.74872  1.0000
  C   C16       1.0  0.04859  0.16143  0.75057  1.0000
  C   C17       1.0  0.96322  0.57954  0.25363  1.0000
  C   C18       1.0  0.82988  0.71243  0.24906  1.0000
  C   C19       1.0  0.03679  0.42046  0.74637  1.0000
  C   C20       1.0  0.17013  0.28757  0.75094  1.0000
  C   C21       1.0  0.86611  0.27730  0.35753  1.0000
  C   C22       1.0  0.42261  0.50980  0.14037  1.0000
  C   C23       1.0  0.13389  0.72269  0.64246  1.0000
  C   C24       1.0  0.57739  0.49021  0.85964  1.0000
  C   C25       1.0  0.74350  0.02581  0.05688  1.0000
  C   C26       1.0  0.46904  0.68215  0.44458  1.0000
  C   C27       1.0  0.25650  0.97420  0.94311  1.0000
  C   C28       1.0  0.53094  0.31783  0.55542  1.0000
  C   C29       1.0  0.81831  0.95218  0.02543  1.0000
  C   C30       1.0  0.42767  0.79000  0.47521  1.0000
  C   C31       1.0  0.18170  0.04784  0.97457  1.0000
  C   C32       1.0  0.57232  0.20998  0.52480  1.0000
  C   C33       1.0  0.95832  0.03628  0.01726  1.0000
  C   C34       1.0  0.51851  0.94015  0.48299  1.0000
  C   C35       1.0  0.04169  0.96373  0.98274  1.0000
  C   C36       1.0  0.48147  0.05984  0.51702  1.0000
  C   C37       1.0  0.01510  0.19303  0.04201  1.0000
  C   C38       1.0  0.64797  0.97241  0.45840  1.0000
  C   C39       1.0  0.98492  0.80698  0.95799  1.0000
  C   C40       1.0  0.35201  0.02758  0.54161  1.0000
  C   C41       1.0  0.93181  0.25683  0.07134  1.0000
  C   C42       1.0  0.68172  0.85804  0.42970  1.0000
  C   C43       1.0  0.06820  0.74319  0.92866  1.0000
  C   C44       1.0  0.31827  0.14194  0.57031  1.0000
  S   S1        1.0  0.97784  0.20740  0.40868  1.0000
  S   S2        1.0  0.30431  0.57217  0.08674  1.0000
  S   S3        1.0  0.02216  0.79260  0.59132  1.0000
  S   S4        1.0  0.69571  0.42785  0.91326  1.0000
  N   N1        1.0  0.46932  0.21947  0.24851  1.0000
  N   N2        1.0  0.53067  0.78052  0.75149  1.0000
  N   N3        1.0  0.83335  0.58278  0.25176  1.0000
  N   N4        1.0  0.16665  0.41722  0.74823  1.0000
  N   N5        1.0  0.78391  0.32655  0.31876  1.0000
  N   N6        1.0  0.50892  0.46528  0.18078  1.0000
  N   N7        1.0  0.21609  0.67344  0.68123  1.0000
  N   N8        1.0  0.49108  0.53472  0.81922  1.0000
  N   N9        1.0  0.79809  0.17539  0.07910  1.0000
  N   N10       1.0  0.59407  0.71483  0.42254  1.0000
  N   N11       1.0  0.20192  0.82462  0.92090  1.0000
  N   N12       1.0  0.40592  0.28516  0.57747  1.0000
  O   O1        1.0  0.68880  0.51523  0.41584  1.0000
  O   O2        1.0  0.59828  0.26814  0.08378  1.0000
  O   O3        1.0  0.31120  0.48477  0.58416  1.0000
  O   O4        1.0  0.40172  0.73186  0.91622  1.0000
