data_image0
_chemical_formula_structural       Cu2H60C56N8O20
_chemical_formula_sum              "Cu2 H60 C56 N8 O20"
_cell_length_a       8.8248
_cell_length_b       12.5345
_cell_length_c       13.2309
_cell_angle_alpha    90
_cell_angle_beta     106.051
_cell_angle_gamma    90

_space_group_name_H-M_alt    "P 1"
_space_group_IT_number       1

loop_
  _space_group_symop_operation_xyz
  'x, y, z'

loop_
  _atom_site_type_symbol
  _atom_site_label
  _atom_site_symmetry_multiplicity
  _atom_site_fract_x
  _atom_site_fract_y
  _atom_site_fract_z
  _atom_site_occupancy
  Cu  Cu1       1.0  0.50000  0.50000  0.50000  1.0000
  Cu  Cu2       1.0  0.00000  0.00000  0.50000  1.0000
  H   H1        1.0  0.49594  0.95131  0.28678  1.0000
  H   H2        1.0  0.00406  0.45131  0.71322  1.0000
  H   H3        1.0  0.50406  0.04869  0.71322  1.0000
  H   H4        1.0  0.99594  0.54869  0.28678  1.0000
  H   H5        1.0  0.32953  0.11794  0.26123  1.0000
  H   H6        1.0  0.17047  0.61793  0.73877  1.0000
  H   H7        1.0  0.67047  0.88206  0.73877  1.0000
  H   H8        1.0  0.82953  0.38206  0.26123  1.0000
  H   H9        1.0  0.12069  0.13341  0.35748  1.0000
  H   H10       1.0  0.37931  0.63341  0.64252  1.0000
  H   H11       1.0  0.87931  0.86659  0.64252  1.0000
  H   H12       1.0  0.62069  0.36659  0.35748  1.0000
  H   H13       1.0  0.24174  0.84144  0.50162  1.0000
  H   H14       1.0  0.25826  0.34144  0.49838  1.0000
  H   H15       1.0  0.75826  0.15856  0.49838  1.0000
  H   H16       1.0  0.74174  0.65856  0.50162  1.0000
  H   H17       1.0  0.52451  0.76368  0.35092  1.0000
  H   H18       1.0  0.97549  0.26368  0.64908  1.0000
  H   H19       1.0  0.47549  0.23632  0.64908  1.0000
  H   H20       1.0  0.02451  0.73632  0.35092  1.0000
  H   H21       1.0  0.58669  0.79918  0.48525  1.0000
  H   H22       1.0  0.91331  0.29918  0.51475  1.0000
  H   H23       1.0  0.41331  0.20082  0.51475  1.0000
  H   H24       1.0  0.08669  0.70081  0.48525  1.0000
  H   H25       1.0  0.34681  0.65440  0.38181  1.0000
  H   H26       1.0  0.15319  0.15440  0.61819  1.0000
  H   H27       1.0  0.65319  0.34560  0.61819  1.0000
  H   H28       1.0  0.84681  0.84559  0.38181  1.0000
  H   H29       1.0  0.12887  0.30450  0.30718  1.0000
  H   H30       1.0  0.37113  0.80449  0.69282  1.0000
  H   H31       1.0  0.87113  0.69550  0.69282  1.0000
  H   H32       1.0  0.62887  0.19551  0.30718  1.0000
  H   H33       1.0  0.97279  0.18379  0.16273  1.0000
  H   H34       1.0  0.52721  0.68379  0.83727  1.0000
  H   H35       1.0  0.02721  0.81621  0.83727  1.0000
  H   H36       1.0  0.47279  0.31622  0.16273  1.0000
  H   H37       1.0  0.13518  0.53454  0.91104  1.0000
  H   H38       1.0  0.36481  0.03454  0.08896  1.0000
  H   H39       1.0  0.86482  0.46546  0.08896  1.0000
  H   H40       1.0  0.63518  0.96546  0.91104  1.0000
  H   H41       1.0  0.33058  0.59092  0.95357  1.0000
  H   H42       1.0  0.16942  0.09092  0.04643  1.0000
  H   H43       1.0  0.66942  0.40908  0.04643  1.0000
  H   H44       1.0  0.83058  0.90908  0.95357  1.0000
  H   H45       1.0  0.30395  0.44977  0.93033  1.0000
  H   H46       1.0  0.19605  0.94977  0.06967  1.0000
  H   H47       1.0  0.69605  0.55023  0.06966  1.0000
  H   H48       1.0  0.80395  0.05023  0.93033  1.0000
  H   H49       1.0  0.08848  0.23673  0.85871  1.0000
  H   H50       1.0  0.41152  0.73673  0.14129  1.0000
  H   H51       1.0  0.91152  0.76327  0.14129  1.0000
  H   H52       1.0  0.58848  0.26327  0.85871  1.0000
  H   H53       1.0  0.90577  0.31079  0.83137  1.0000
  H   H54       1.0  0.59423  0.81079  0.16863  1.0000
  H   H55       1.0  0.09423  0.68921  0.16863  1.0000
  H   H56       1.0  0.40576  0.18921  0.83137  1.0000
  H   H57       1.0  0.90354  0.16829  0.81286  1.0000
  H   H58       1.0  0.59646  0.66828  0.18714  1.0000
  H   H59       1.0  0.09646  0.83171  0.18714  1.0000
  H   H60       1.0  0.40354  0.33172  0.81286  1.0000
  C   C1        1.0  0.40645  0.96243  0.32863  1.0000
  C   C2        1.0  0.09355  0.46243  0.67138  1.0000
  C   C3        1.0  0.59355  0.03757  0.67138  1.0000
  C   C4        1.0  0.90645  0.53757  0.32862  1.0000
  C   C5        1.0  0.31399  0.05453  0.31383  1.0000
  C   C6        1.0  0.18601  0.55453  0.68617  1.0000
  C   C7        1.0  0.68601  0.94547  0.68617  1.0000
  C   C8        1.0  0.81399  0.44547  0.31383  1.0000
  C   C9        1.0  0.19831  0.06459  0.36644  1.0000
  C   C10       1.0  0.30169  0.56459  0.63356  1.0000
  C   C11       1.0  0.80169  0.93541  0.63356  1.0000
  C   C12       1.0  0.69831  0.43541  0.36644  1.0000
  C   C13       1.0  0.38267  0.88321  0.39711  1.0000
  C   C14       1.0  0.11733  0.38321  0.60289  1.0000
  C   C15       1.0  0.61733  0.11679  0.60289  1.0000
  C   C16       1.0  0.88267  0.61679  0.39711  1.0000
  C   C17       1.0  0.26529  0.90022  0.44750  1.0000
  C   C18       1.0  0.23471  0.40022  0.55250  1.0000
  C   C19       1.0  0.73471  0.09978  0.55250  1.0000
  C   C20       1.0  0.76529  0.59978  0.44750  1.0000
  C   C21       1.0  0.48134  0.78279  0.41948  1.0000
  C   C22       1.0  0.01867  0.28279  0.58052  1.0000
  C   C23       1.0  0.51867  0.21721  0.58052  1.0000
  C   C24       1.0  0.98133  0.71721  0.41948  1.0000
  C   C25       1.0  0.12034  0.32093  0.22487  1.0000
  C   C26       1.0  0.37966  0.82093  0.77513  1.0000
  C   C27       1.0  0.87966  0.67907  0.77513  1.0000
  C   C28       1.0  0.62034  0.17907  0.22487  1.0000
  C   C29       1.0  0.03480  0.25388  0.14634  1.0000
  C   C30       1.0  0.46520  0.75388  0.85366  1.0000
  C   C31       1.0  0.96520  0.74612  0.85366  1.0000
  C   C32       1.0  0.53480  0.24612  0.14634  1.0000
  C   C33       1.0  0.19681  0.41193  0.20153  1.0000
  C   C34       1.0  0.30319  0.91193  0.79847  1.0000
  C   C35       1.0  0.80320  0.58807  0.79846  1.0000
  C   C36       1.0  0.69681  0.08807  0.20153  1.0000
  C   C37       1.0  0.03285  0.27995  0.04258  1.0000
  C   C38       1.0  0.46715  0.77995  0.95742  1.0000
  C   C39       1.0  0.96715  0.72005  0.95741  1.0000
  C   C40       1.0  0.53285  0.22005  0.04258  1.0000
  C   C41       1.0  0.18588  0.42923  0.09406  1.0000
  C   C42       1.0  0.31412  0.92923  0.90594  1.0000
  C   C43       1.0  0.81413  0.57077  0.90594  1.0000
  C   C44       1.0  0.68588  0.07077  0.09405  1.0000
  C   C45       1.0  0.28597  0.48222  0.28892  1.0000
  C   C46       1.0  0.21403  0.98222  0.71108  1.0000
  C   C47       1.0  0.71403  0.51778  0.71108  1.0000
  C   C48       1.0  0.78597  0.01778  0.28892  1.0000
  C   C49       1.0  0.25735  0.52180  0.95786  1.0000
  C   C50       1.0  0.24264  0.02180  0.04214  1.0000
  C   C51       1.0  0.74265  0.47820  0.04214  1.0000
  C   C52       1.0  0.75735  0.97820  0.95786  1.0000
  C   C53       1.0  0.96476  0.23522  0.86018  1.0000
  C   C54       1.0  0.53524  0.73522  0.13982  1.0000
  C   C55       1.0  0.03524  0.76478  0.13982  1.0000
  C   C56       1.0  0.46476  0.26478  0.86018  1.0000
  N   N1        1.0  0.17459  0.98809  0.43180  1.0000
  N   N2        1.0  0.32541  0.48809  0.56820  1.0000
  N   N3        1.0  0.82541  0.01191  0.56820  1.0000
  N   N4        1.0  0.67459  0.51191  0.43180  1.0000
  N   N5        1.0  0.10627  0.36456  0.01758  1.0000
  N   N6        1.0  0.39373  0.86456  0.98242  1.0000
  N   N7        1.0  0.89373  0.63544  0.98242  1.0000
  N   N8        1.0  0.60627  0.13544  0.01758  1.0000
  O   O1        1.0  0.39994  0.69522  0.44822  1.0000
  O   O2        1.0  0.10007  0.19522  0.55178  1.0000
  O   O3        1.0  0.60007  0.30478  0.55178  1.0000
  O   O4        1.0  0.89993  0.80478  0.44822  1.0000
  O   O5        1.0  0.36464  0.43065  0.37126  1.0000
  O   O6        1.0  0.13536  0.93065  0.62874  1.0000
  O   O7        1.0  0.63536  0.56935  0.62874  1.0000
  O   O8        1.0  0.86464  0.06935  0.37126  1.0000
  O   O9        1.0  0.27676  0.58233  0.27978  1.0000
  O   O10       1.0  0.22324  0.08233  0.72021  1.0000
  O   O11       1.0  0.72324  0.41767  0.72022  1.0000
  O   O12       1.0  0.77676  0.91767  0.27979  1.0000
  O   O13       1.0  0.26526  0.51187  0.06794  1.0000
  O   O14       1.0  0.23474  0.01187  0.93206  1.0000
  O   O15       1.0  0.73474  0.48813  0.93206  1.0000
  O   O16       1.0  0.76526  0.98813  0.06794  1.0000
  O   O17       1.0  0.95484  0.21334  0.96555  1.0000
  O   O18       1.0  0.54516  0.71333  0.03445  1.0000
  O   O19       1.0  0.04516  0.78667  0.03445  1.0000
  O   O20       1.0  0.45484  0.28667  0.96555  1.0000
