data_image0
_chemical_formula_structural       Cu2H16C24Br2N6O4
_chemical_formula_sum              "Cu2 H16 C24 Br2 N6 O4"
_cell_length_a       3.84839
_cell_length_b       8.57876
_cell_length_c       17.5948
_cell_angle_alpha    89.9998
_cell_angle_beta     90.9206
_cell_angle_gamma    89.9995

_space_group_name_H-M_alt    "P 1"
_space_group_IT_number       1

loop_
  _space_group_symop_operation_xyz
  'x, y, z'

loop_
  _atom_site_type_symbol
  _atom_site_label
  _atom_site_symmetry_multiplicity
  _atom_site_fract_x
  _atom_site_fract_y
  _atom_site_fract_z
  _atom_site_occupancy
  Cu  Cu1       1.0  0.69723  0.16827  0.76207  1.0000
  Cu  Cu2       1.0  0.69718  0.83173  0.26208  1.0000
  H   H1        1.0  0.97277  0.27074  0.91983  1.0000
  H   H2        1.0  0.97272  0.72925  0.41984  1.0000
  H   H3        1.0  0.94440  0.52143  0.99563  1.0000
  H   H4        1.0  0.94432  0.47853  0.49564  1.0000
  H   H5        1.0  0.65449  0.75273  0.93584  1.0000
  H   H6        1.0  0.65441  0.24726  0.43583  1.0000
  H   H7        1.0  0.39043  0.72518  0.80464  1.0000
  H   H8        1.0  0.39036  0.27483  0.30464  1.0000
  H   H9        1.0  0.26152  0.06605  0.49960  1.0000
  H   H10       1.0  0.26149  0.93395  0.99960  1.0000
  H   H11       1.0  0.45925  0.78816  0.48846  1.0000
  H   H12       1.0  0.45926  0.21184  0.98847  1.0000
  H   H13       1.0  0.79162  0.66759  0.59966  1.0000
  H   H14       1.0  0.79158  0.33241  0.09967  1.0000
  H   H15       1.0  0.90676  0.82966  0.71415  1.0000
  H   H16       1.0  0.90672  0.17034  0.21416  1.0000
  C   C1        1.0  0.84319  0.37477  0.89796  1.0000
  C   C2        1.0  0.84315  0.62522  0.39797  1.0000
  C   C3        1.0  0.82683  0.51310  0.93908  1.0000
  C   C4        1.0  0.82677  0.48689  0.43908  1.0000
  C   C5        1.0  0.66636  0.64228  0.90553  1.0000
  C   C6        1.0  0.66630  0.35771  0.40553  1.0000
  C   C7        1.0  0.52200  0.62808  0.83276  1.0000
  C   C8        1.0  0.52194  0.37193  0.33277  1.0000
  C   C9        1.0  0.54272  0.48512  0.79568  1.0000
  C   C10       1.0  0.54265  0.51489  0.29569  1.0000
  C   C11       1.0  0.38282  0.45975  0.71818  1.0000
  C   C12       1.0  0.38277  0.54027  0.21819  1.0000
  C   C13       1.0  0.35943  0.25588  0.62192  1.0000
  C   C14       1.0  0.35940  0.74413  0.12193  1.0000
  C   C15       1.0  0.47967  0.09067  0.61192  1.0000
  C   C16       1.0  0.47964  0.90933  0.11192  1.0000
  C   C17       1.0  0.40691  0.00881  0.54535  1.0000
  C   C18       1.0  0.40691  0.99120  0.04535  1.0000
  C   C19       1.0  0.51617  0.85445  0.53994  1.0000
  C   C20       1.0  0.51616  0.14556  0.03995  1.0000
  C   C21       1.0  0.69737  0.78715  0.60071  1.0000
  C   C22       1.0  0.69731  0.21286  0.10072  1.0000
  C   C23       1.0  0.76278  0.87668  0.66558  1.0000
  C   C24       1.0  0.76275  0.12332  0.16559  1.0000
  Br  Br1       1.0  0.12906  0.02262  0.83466  1.0000
  Br  Br2       1.0  0.12896  0.97735  0.33466  1.0000
  N   N1        1.0  0.70420  0.36098  0.82783  1.0000
  N   N2        1.0  0.70415  0.63902  0.32784  1.0000
  N   N3        1.0  0.45107  0.31220  0.69223  1.0000
  N   N4        1.0  0.45104  0.68780  0.19223  1.0000
  N   N5        1.0  0.65540  0.02501  0.67104  1.0000
  N   N6        1.0  0.65538  0.97499  0.17104  1.0000
  O   O1        1.0  0.21115  0.56318  0.68622  1.0000
  O   O2        1.0  0.21109  0.43684  0.18623  1.0000
  O   O3        1.0  0.19801  0.32369  0.57037  1.0000
  O   O4        1.0  0.19798  0.67631  0.07037  1.0000
