data_image0
_chemical_formula_structural       Ba2H52C28S4N4O14
_chemical_formula_sum              "Ba2 H52 C28 S4 N4 O14"
_cell_length_a       7.7723
_cell_length_b       11.5097
_cell_length_c       13.1598
_cell_angle_alpha    82.0219
_cell_angle_beta     80.9595
_cell_angle_gamma    76.5453

_space_group_name_H-M_alt    "P 1"
_space_group_IT_number       1

loop_
  _space_group_symop_operation_xyz
  'x, y, z'

loop_
  _atom_site_type_symbol
  _atom_site_label
  _atom_site_symmetry_multiplicity
  _atom_site_fract_x
  _atom_site_fract_y
  _atom_site_fract_z
  _atom_site_occupancy
  Ba  Ba1       1.0  0.30241  0.32040  0.26958  1.0000
  Ba  Ba2       1.0  0.69760  0.67960  0.73042  1.0000
  H   H1        1.0  0.14070  0.30504  0.02278  1.0000
  H   H2        1.0  0.85929  0.69496  0.97722  1.0000
  H   H3        1.0  0.09936  0.41370  0.09203  1.0000
  H   H4        1.0  0.90063  0.58631  0.90797  1.0000
  H   H5        1.0  0.14772  0.11298  0.60060  1.0000
  H   H6        1.0  0.85228  0.88702  0.39940  1.0000
  H   H7        1.0  0.00315  0.21699  0.51966  1.0000
  H   H8        1.0  0.99686  0.78300  0.48035  1.0000
  H   H9        1.0  0.13673  0.31633  0.63834  1.0000
  H   H10       1.0  0.86328  0.68367  0.36166  1.0000
  H   H11       1.0  0.35446  0.25502  0.57598  1.0000
  H   H12       1.0  0.64554  0.74498  0.42402  1.0000
  H   H13       1.0  0.37702  0.45563  0.54225  1.0000
  H   H14       1.0  0.62299  0.54436  0.45775  1.0000
  H   H15       1.0  0.14798  0.52813  0.57204  1.0000
  H   H16       1.0  0.85202  0.47187  0.42797  1.0000
  H   H17       1.0  0.13959  0.60315  0.38312  1.0000
  H   H18       1.0  0.86041  0.39685  0.61688  1.0000
  H   H19       1.0  0.29857  0.65426  0.44172  1.0000
  H   H20       1.0  0.70143  0.34574  0.55828  1.0000
  H   H21       1.0  0.50113  0.67558  0.29080  1.0000
  H   H22       1.0  0.49888  0.32441  0.70920  1.0000
  H   H23       1.0  0.34400  0.64568  0.21649  1.0000
  H   H24       1.0  0.65600  0.35433  0.78352  1.0000
  H   H25       1.0  0.66279  0.60291  0.13052  1.0000
  H   H26       1.0  0.33722  0.39709  0.86948  1.0000
  H   H27       1.0  0.72201  0.49230  0.23591  1.0000
  H   H28       1.0  0.27799  0.50770  0.76409  1.0000
  H   H29       1.0  0.74018  0.44956  0.01238  1.0000
  H   H30       1.0  0.25981  0.55044  0.98762  1.0000
  H   H31       1.0  0.80841  0.34407  0.12093  1.0000
  H   H32       1.0  0.19158  0.65593  0.87907  1.0000
  H   H33       1.0  0.51305  0.33347  0.99435  1.0000
  H   H34       1.0  0.48694  0.66653  0.00565  1.0000
  H   H35       1.0  0.73966  0.24761  0.97879  1.0000
  H   H36       1.0  0.26033  0.75240  0.02120  1.0000
  H   H37       1.0  0.66314  0.06325  0.02920  1.0000
  H   H38       1.0  0.33685  0.93675  0.97080  1.0000
  H   H39       1.0  0.42818  0.12827  0.04573  1.0000
  H   H40       1.0  0.57182  0.87173  0.95427  1.0000
  H   H41       1.0  0.51248  0.92908  0.15329  1.0000
  H   H42       1.0  0.48752  0.07093  0.84671  1.0000
  H   H43       1.0  0.64864  0.99309  0.21775  1.0000
  H   H44       1.0  0.35135  0.00691  0.78226  1.0000
  H   H45       1.0  0.47775  0.95756  0.37501  1.0000
  H   H46       1.0  0.52224  0.04244  0.62499  1.0000
  H   H47       1.0  0.32334  0.89871  0.31954  1.0000
  H   H48       1.0  0.67665  0.10129  0.68045  1.0000
  H   H49       1.0  0.07843  0.07224  0.37789  1.0000
  H   H50       1.0  0.92156  0.92776  0.62211  1.0000
  H   H51       1.0  0.18284  0.97504  0.48127  1.0000
  H   H52       1.0  0.81716  0.02496  0.51872  1.0000
  C   C1        1.0  0.14253  0.18547  0.53581  1.0000
  C   C2        1.0  0.85748  0.81453  0.46419  1.0000
  C   C3        1.0  0.21230  0.28635  0.56486  1.0000
  C   C4        1.0  0.78770  0.71365  0.43514  1.0000
  C   C5        1.0  0.24795  0.48525  0.51168  1.0000
  C   C6        1.0  0.75205  0.51475  0.48832  1.0000
  C   C7        1.0  0.26510  0.57474  0.41769  1.0000
  C   C8        1.0  0.73490  0.42526  0.58231  1.0000
  C   C9        1.0  0.45757  0.60414  0.25985  1.0000
  C   C10       1.0  0.54244  0.39586  0.74015  1.0000
  C   C11       1.0  0.61223  0.53811  0.19107  1.0000
  C   C12       1.0  0.38777  0.46189  0.80893  1.0000
  C   C13       1.0  0.69607  0.38675  0.07694  1.0000
  C   C14       1.0  0.30392  0.61326  0.92306  1.0000
  C   C15       1.0  0.63094  0.29273  0.03400  1.0000
  C   C16       1.0  0.36905  0.70727  0.96600  1.0000
  C   C17       1.0  0.54988  0.10346  0.08462  1.0000
  C   C18       1.0  0.45012  0.89654  0.91538  1.0000
  C   C19       1.0  0.52844  0.01352  0.17795  1.0000
  C   C20       1.0  0.47156  0.98648  0.82205  1.0000
  C   C21       1.0  0.35322  0.98175  0.33899  1.0000
  C   C22       1.0  0.64677  0.01825  0.66100  1.0000
  C   C23       1.0  0.20246  0.04114  0.41378  1.0000
  C   C24       1.0  0.79754  0.95886  0.58622  1.0000
  C   C25       1.0  0.81878  0.25585  0.34441  1.0000
  C   C26       1.0  0.18123  0.74415  0.65559  1.0000
  C   C27       1.0  0.00495  0.64109  0.16216  1.0000
  C   C28       1.0  0.99504  0.35891  0.83785  1.0000
  S   S1        1.0  0.64663  0.20040  0.39759  1.0000
  S   S2        1.0  0.35338  0.79960  0.60240  1.0000
  S   S3        1.0  0.90605  0.77633  0.12044  1.0000
  S   S4        1.0  0.09395  0.22368  0.87956  1.0000
  N   N1        1.0  0.94675  0.29447  0.30843  1.0000
  N   N2        1.0  0.05328  0.70554  0.69156  1.0000
  N   N3        1.0  0.07807  0.54245  0.19241  1.0000
  N   N4        1.0  0.92192  0.45756  0.80760  1.0000
  O   O1        1.0  0.25344  0.14137  0.44569  1.0000
  O   O2        1.0  0.74657  0.85863  0.55431  1.0000
  O   O3        1.0  0.19530  0.38343  0.48362  1.0000
  O   O4        1.0  0.80470  0.61657  0.51638  1.0000
  O   O5        1.0  0.40495  0.51991  0.34314  1.0000
  O   O6        1.0  0.59506  0.48009  0.65686  1.0000
  O   O7        1.0  0.55267  0.45126  0.14448  1.0000
  O   O8        1.0  0.44732  0.54874  0.85552  1.0000
  O   O9        1.0  0.58522  0.20717  0.11840  1.0000
  O   O10       1.0  0.41478  0.79283  0.88160  1.0000
  O   O11       1.0  0.37529  0.06241  0.24701  1.0000
  O   O12       1.0  0.62471  0.93759  0.75299  1.0000
  O   O13       1.0  0.18921  0.34284  0.07156  1.0000
  O   O14       1.0  0.81079  0.65716  0.92845  1.0000
