data_image0
_chemical_formula_structural       Na4H8C8N16O4F12
_chemical_formula_sum              "Na4 H8 C8 N16 O4 F12"
_cell_length_a       7.17308
_cell_length_b       9.46365
_cell_length_c       10.1163
_cell_angle_alpha    102.235
_cell_angle_beta     110.756
_cell_angle_gamma    90.0102

_space_group_name_H-M_alt    "P 1"
_space_group_IT_number       1

loop_
  _space_group_symop_operation_xyz
  'x, y, z'

loop_
  _atom_site_type_symbol
  _atom_site_label
  _atom_site_symmetry_multiplicity
  _atom_site_fract_x
  _atom_site_fract_y
  _atom_site_fract_z
  _atom_site_occupancy
  Na  Na1       1.0  1.00000  1.00000  0.50000  1.0000
  Na  Na2       1.0  0.50000  0.00000  0.50000  1.0000
  Na  Na3       1.0  0.45117  0.17304  0.90253  1.0000
  Na  Na4       1.0  0.54883  0.82696  0.09747  1.0000
  H   H1        1.0  0.30835  0.25641  0.61665  1.0000
  H   H2        1.0  0.69165  0.74359  0.38335  1.0000
  H   H3        1.0  0.22334  0.21867  0.44668  1.0000
  H   H4        1.0  0.77666  0.78133  0.55332  1.0000
  H   H5        1.0  0.29107  0.44410  0.79317  1.0000
  H   H6        1.0  0.49790  0.55592  0.20683  1.0000
  H   H7        1.0  0.70893  0.55590  0.20683  1.0000
  H   H8        1.0  0.50210  0.44408  0.79317  1.0000
  C   C1        1.0  0.30536  0.71612  0.61096  1.0000
  C   C2        1.0  0.69464  0.28388  0.38904  1.0000
  C   C3        1.0  0.23369  0.61107  0.46738  1.0000
  C   C4        1.0  0.76631  0.38893  0.53262  1.0000
  C   C5        1.0  0.96719  0.21490  0.93475  1.0000
  C   C6        1.0  0.03281  0.78510  0.06525  1.0000
  C   C7        1.0  0.04160  0.31006  0.08338  1.0000
  C   C8        1.0  0.95840  0.68994  0.91662  1.0000
  N   N1        1.0  0.31235  0.86081  0.62481  1.0000
  N   N2        1.0  0.68765  0.13919  0.37519  1.0000
  N   N3        1.0  0.38458  0.91444  0.76916  1.0000
  N   N4        1.0  0.61542  0.08556  0.23084  1.0000
  N   N5        1.0  0.41831  0.80621  0.83665  1.0000
  N   N6        1.0  0.58169  0.19379  0.16335  1.0000
  N   N7        1.0  0.36944  0.67853  0.73905  1.0000
  N   N8        1.0  0.63056  0.32147  0.26095  1.0000
  N   N9        1.0  0.08556  0.16745  0.86036  1.0000
  N   N10       1.0  0.22553  0.83259  0.13968  1.0000
  N   N11       1.0  0.91444  0.83255  0.13964  1.0000
  N   N12       1.0  0.77447  0.16741  0.86032  1.0000
  N   N13       1.0  0.95927  0.08755  0.73386  1.0000
  N   N14       1.0  0.22562  0.91247  0.26617  1.0000
  N   N15       1.0  0.04072  0.91245  0.26614  1.0000
  N   N16       1.0  0.77438  0.08753  0.73383  1.0000
  O   O1        1.0  0.26512  0.17439  0.52997  1.0000
  O   O2        1.0  0.73488  0.82561  0.47003  1.0000
  O   O3        1.0  0.39666  0.37889  0.79337  1.0000
  O   O4        1.0  0.60334  0.62111  0.20663  1.0000
  F   F1        1.0  0.34569  0.62772  0.38604  1.0000
  F   F2        1.0  0.95958  0.37229  0.61406  1.0000
  F   F3        1.0  0.65431  0.37228  0.61396  1.0000
  F   F4        1.0  0.04042  0.62771  0.38594  1.0000
  F   F5        1.0  0.24062  0.47090  0.48124  1.0000
  F   F6        1.0  0.75938  0.52910  0.51876  1.0000
  F   F7        1.0  0.90016  0.39794  0.10660  1.0000
  F   F8        1.0  0.79353  0.60228  0.89350  1.0000
  F   F9        1.0  0.09984  0.60206  0.89340  1.0000
  F   F10       1.0  0.20647  0.39772  0.10649  1.0000
  F   F11       1.0  0.09484  0.23273  0.19003  1.0000
  F   F12       1.0  0.90517  0.76727  0.80997  1.0000
