data_image0
_chemical_formula_structural       Li8H32C36O20
_chemical_formula_sum              "Li8 H32 C36 O20"
_cell_length_a       7.47224
_cell_length_b       9.99648
_cell_length_c       13.4793
_cell_angle_alpha    106.679
_cell_angle_beta     91.2115
_cell_angle_gamma    103.513

_space_group_name_H-M_alt    "P 1"
_space_group_IT_number       1

loop_
  _space_group_symop_operation_xyz
  'x, y, z'

loop_
  _atom_site_type_symbol
  _atom_site_label
  _atom_site_symmetry_multiplicity
  _atom_site_fract_x
  _atom_site_fract_y
  _atom_site_fract_z
  _atom_site_occupancy
  Li  Li1       1.0  0.32021  0.68757  0.61213  1.0000
  Li  Li2       1.0  0.67979  0.31242  0.38787  1.0000
  Li  Li3       1.0  0.18432  0.36676  0.49554  1.0000
  Li  Li4       1.0  0.81568  0.63324  0.50446  1.0000
  Li  Li5       1.0  0.85570  0.09949  0.56008  1.0000
  Li  Li6       1.0  0.14430  0.90051  0.43992  1.0000
  Li  Li7       1.0  0.43033  0.17102  0.54293  1.0000
  Li  Li8       1.0  0.56967  0.82898  0.45707  1.0000
  H   H1        1.0  0.01691  0.72465  0.69478  1.0000
  H   H2        1.0  0.98309  0.27536  0.30522  1.0000
  H   H3        1.0  0.29697  0.27826  0.32988  1.0000
  H   H4        1.0  0.70303  0.72174  0.67012  1.0000
  H   H5        1.0  0.14821  0.13437  0.33769  1.0000
  H   H6        1.0  0.85180  0.86563  0.66231  1.0000
  H   H7        1.0  0.47404  0.50683  0.85368  1.0000
  H   H8        1.0  0.52597  0.49317  0.14632  1.0000
  H   H9        1.0  0.68277  0.46653  0.98222  1.0000
  H   H10       1.0  0.31723  0.53347  0.01778  1.0000
  H   H11       1.0  0.96971  0.39036  0.92735  1.0000
  H   H12       1.0  0.03029  0.60964  0.07265  1.0000
  H   H13       1.0  0.04304  0.35405  0.74299  1.0000
  H   H14       1.0  0.95696  0.64595  0.25701  1.0000
  H   H15       1.0  0.07713  0.16224  0.86055  1.0000
  H   H16       1.0  0.92287  0.83776  0.13945  1.0000
  H   H17       1.0  0.28804  0.20785  0.02044  1.0000
  H   H18       1.0  0.71196  0.79215  0.97956  1.0000
  H   H19       1.0  0.59241  0.14727  0.00190  1.0000
  H   H20       1.0  0.40759  0.85273  0.99810  1.0000
  H   H21       1.0  0.69153  0.05120  0.82588  1.0000
  H   H22       1.0  0.30847  0.94880  0.17412  1.0000
  H   H23       1.0  0.31415  0.82752  0.83898  1.0000
  H   H24       1.0  0.68585  0.17247  0.16102  1.0000
  H   H25       1.0  0.21693  0.64527  0.83443  1.0000
  H   H26       1.0  0.78306  0.35472  0.16557  1.0000
  H   H27       1.0  0.00442  0.88185  0.86956  1.0000
  H   H28       1.0  0.99558  0.11815  0.13044  1.0000
  H   H29       1.0  0.07745  0.81232  0.96632  1.0000
  H   H30       1.0  0.92255  0.18768  0.03368  1.0000
  H   H31       1.0  0.90743  0.69830  0.86384  1.0000
  H   H32       1.0  0.09257  0.30170  0.13616  1.0000
  C   C1        1.0  0.50218  0.47621  0.65376  1.0000
  C   C2        1.0  0.49783  0.52379  0.34624  1.0000
  C   C3        1.0  0.64049  0.45345  0.72665  1.0000
  C   C4        1.0  0.35951  0.54655  0.27335  1.0000
  C   C5        1.0  0.59955  0.47342  0.83015  1.0000
  C   C6        1.0  0.40045  0.52659  0.16986  1.0000
  C   C7        1.0  0.71686  0.45090  0.90210  1.0000
  C   C8        1.0  0.28314  0.54910  0.09790  1.0000
  C   C9        1.0  0.87754  0.40816  0.87131  1.0000
  C   C10       1.0  0.12246  0.59184  0.12869  1.0000
  C   C11       1.0  0.91907  0.38807  0.76877  1.0000
  C   C12       1.0  0.08093  0.61194  0.23123  1.0000
  C   C13       1.0  0.80215  0.41057  0.69568  1.0000
  C   C14       1.0  0.19785  0.58943  0.30432  1.0000
  C   C15       1.0  0.85102  0.38458  0.58547  1.0000
  C   C16       1.0  0.14899  0.61542  0.41453  1.0000
  C   C17       1.0  0.13700  0.05782  0.66136  1.0000
  C   C18       1.0  0.86300  0.94218  0.33864  1.0000
  C   C19       1.0  0.26631  0.08376  0.75524  1.0000
  C   C20       1.0  0.73369  0.91624  0.24476  1.0000
  C   C21       1.0  0.21280  0.13910  0.85480  1.0000
  C   C22       1.0  0.78720  0.86090  0.14521  1.0000
  C   C23       1.0  0.32986  0.16348  0.94342  1.0000
  C   C24       1.0  0.67013  0.83652  0.05658  1.0000
  C   C25       1.0  0.50126  0.13015  0.93292  1.0000
  C   C26       1.0  0.49874  0.86986  0.06708  1.0000
  C   C27       1.0  0.55646  0.07518  0.83446  1.0000
  C   C28       1.0  0.44353  0.92482  0.16554  1.0000
  C   C29       1.0  0.44057  0.05274  0.74522  1.0000
  C   C30       1.0  0.55943  0.94726  0.25478  1.0000
  C   C31       1.0  0.51205  0.99811  0.64158  1.0000
  C   C32       1.0  0.48795  0.00189  0.35842  1.0000
  C   C33       1.0  0.18600  0.74026  0.81862  1.0000
  C   C34       1.0  0.81400  0.25974  0.18138  1.0000
  C   C35       1.0  0.03440  0.78572  0.88299  1.0000
  C   C36       1.0  0.96560  0.21428  0.11700  1.0000
  O   O1        1.0  0.49247  0.60540  0.66775  1.0000
  O   O2        1.0  0.50753  0.39460  0.33225  1.0000
  O   O3        1.0  0.39574  0.36594  0.58885  1.0000
  O   O4        1.0  0.60426  0.63406  0.41115  1.0000
  O   O5        1.0  0.78458  0.44559  0.52784  1.0000
  O   O6        1.0  0.21542  0.55441  0.47216  1.0000
  O   O7        1.0  0.95431  0.29827  0.55385  1.0000
  O   O8        1.0  0.04569  0.70172  0.44615  1.0000
  O   O9        1.0  0.20456  0.05141  0.57430  1.0000
  O   O10       1.0  0.79543  0.94859  0.42570  1.0000
  O   O11       1.0  0.96532  0.04425  0.67216  1.0000
  O   O12       1.0  0.03468  0.95575  0.32784  1.0000
  O   O13       1.0  0.60810  0.09300  0.60531  1.0000
  O   O14       1.0  0.39190  0.90700  0.39469  1.0000
  O   O15       1.0  0.48357  0.86314  0.59888  1.0000
  O   O16       1.0  0.51643  0.13685  0.40112  1.0000
  O   O17       1.0  0.13684  0.70287  0.70893  1.0000
  O   O18       1.0  0.86316  0.29713  0.29107  1.0000
  O   O19       1.0  0.17366  0.24032  0.35211  1.0000
  O   O20       1.0  0.82634  0.75968  0.64789  1.0000
