data_image0
_chemical_formula_structural       Mn3H32C22N2O14
_chemical_formula_sum              "Mn3 H32 C22 N2 O14"
_cell_length_a       8.08255
_cell_length_b       8.96966
_cell_length_c       9.81767
_cell_angle_alpha    83.8864
_cell_angle_beta     82.3916
_cell_angle_gamma    77.3971

_space_group_name_H-M_alt    "P 1"
_space_group_IT_number       1

loop_
  _space_group_symop_operation_xyz
  'x, y, z'

loop_
  _atom_site_type_symbol
  _atom_site_label
  _atom_site_symmetry_multiplicity
  _atom_site_fract_x
  _atom_site_fract_y
  _atom_site_fract_z
  _atom_site_occupancy
  Mn  Mn1       1.0  0.50000  1.00000  0.50000  1.0000
  Mn  Mn2       1.0  0.67707  0.62606  0.56879  1.0000
  Mn  Mn3       1.0  0.32293  0.37394  0.43121  1.0000
  H   H1        1.0  0.90909  0.61957  0.73146  1.0000
  H   H2        1.0  0.09091  0.38043  0.26854  1.0000
  H   H3        1.0  0.00453  0.46136  0.65826  1.0000
  H   H4        1.0  0.99547  0.53864  0.34174  1.0000
  H   H5        1.0  0.04415  0.74032  0.17977  1.0000
  H   H6        1.0  0.95585  0.25969  0.82023  1.0000
  H   H7        1.0  0.96889  0.94520  0.16530  1.0000
  H   H8        1.0  0.03111  0.05481  0.83469  1.0000
  H   H9        1.0  0.86874  0.82506  0.08606  1.0000
  H   H10       1.0  0.13125  0.17494  0.91394  1.0000
  H   H11       1.0  0.03311  0.78406  0.48330  1.0000
  H   H12       1.0  0.96689  0.21595  0.51670  1.0000
  H   H13       1.0  0.14526  0.93971  0.44147  1.0000
  H   H14       1.0  0.85474  0.06030  0.55854  1.0000
  H   H15       1.0  0.10353  0.86904  0.61411  1.0000
  H   H16       1.0  0.89648  0.13096  0.38589  1.0000
  H   H17       1.0  0.70741  0.04131  0.90759  1.0000
  H   H18       1.0  0.29259  0.95870  0.09241  1.0000
  H   H19       1.0  0.50967  0.00003  0.87438  1.0000
  H   H20       1.0  0.49033  0.99997  0.12562  1.0000
  H   H21       1.0  0.61134  0.11707  0.75212  1.0000
  H   H22       1.0  0.38866  0.88294  0.24789  1.0000
  H   H23       1.0  0.62690  0.35486  0.78102  1.0000
  H   H24       1.0  0.37311  0.64513  0.21898  1.0000
  H   H25       1.0  0.40259  0.27335  0.95739  1.0000
  H   H26       1.0  0.59741  0.72665  0.04260  1.0000
  H   H27       1.0  0.14525  0.46890  0.03265  1.0000
  H   H28       1.0  0.85474  0.53110  0.96734  1.0000
  H   H29       1.0  0.12144  0.74116  0.92653  1.0000
  H   H30       1.0  0.87856  0.25883  0.07347  1.0000
  H   H31       1.0  0.35872  0.80434  0.75726  1.0000
  H   H32       1.0  0.64129  0.19566  0.24274  1.0000
  C   C1        1.0  0.80736  0.82235  0.30545  1.0000
  C   C2        1.0  0.19265  0.17765  0.69455  1.0000
  C   C3        1.0  0.93152  0.83363  0.17699  1.0000
  C   C4        1.0  0.06848  0.16638  0.82301  1.0000
  C   C5        1.0  0.30158  0.72185  0.50138  1.0000
  C   C6        1.0  0.69842  0.27815  0.49862  1.0000
  C   C7        1.0  0.13511  0.83547  0.50781  1.0000
  C   C8        1.0  0.86489  0.16454  0.49220  1.0000
  C   C9        1.0  0.72739  0.87661  0.75753  1.0000
  C   C10       1.0  0.27261  0.12339  0.24247  1.0000
  C   C11       1.0  0.63571  0.01828  0.82786  1.0000
  C   C12       1.0  0.36429  0.98172  0.17214  1.0000
  C   C13       1.0  0.51232  0.43653  0.81641  1.0000
  C   C14       1.0  0.48769  0.56346  0.18359  1.0000
  C   C15       1.0  0.38744  0.39167  0.91389  1.0000
  C   C16       1.0  0.61256  0.60832  0.08610  1.0000
  C   C17       1.0  0.24388  0.50118  0.95563  1.0000
  C   C18       1.0  0.75612  0.49882  0.04436  1.0000
  C   C19       1.0  0.23226  0.65202  0.89913  1.0000
  C   C20       1.0  0.76775  0.34798  0.10087  1.0000
  C   C21       1.0  0.36377  0.68741  0.80322  1.0000
  C   C22       1.0  0.63623  0.31259  0.19678  1.0000
  N   N1        1.0  0.50125  0.58129  0.76056  1.0000
  N   N2        1.0  0.49876  0.41870  0.23944  1.0000
  O   O1        1.0  0.69548  0.94188  0.33335  1.0000
  O   O2        1.0  0.30452  0.05813  0.66665  1.0000
  O   O3        1.0  0.82192  0.69371  0.37783  1.0000
  O   O4        1.0  0.17808  0.30629  0.62217  1.0000
  O   O5        1.0  0.44117  0.77301  0.48999  1.0000
  O   O6        1.0  0.55883  0.22699  0.51001  1.0000
  O   O7        1.0  0.30131  0.58081  0.51316  1.0000
  O   O8        1.0  0.69869  0.41919  0.48684  1.0000
  O   O9        1.0  0.67149  0.85396  0.64492  1.0000
  O   O10       1.0  0.32851  0.14604  0.35509  1.0000
  O   O11       1.0  0.84882  0.78668  0.81027  1.0000
  O   O12       1.0  0.15118  0.21333  0.18973  1.0000
  O   O13       1.0  0.89345  0.53063  0.68466  1.0000
  O   O14       1.0  0.10655  0.46937  0.31534  1.0000
