data_image0
_chemical_formula_structural       Sn4H64C40O16
_chemical_formula_sum              "Sn4 H64 C40 O16"
_cell_length_a       9.8513
_cell_length_b       10.2697
_cell_length_c       11.592
_cell_angle_alpha    90
_cell_angle_beta     99.2601
_cell_angle_gamma    90

_space_group_name_H-M_alt    "P 1"
_space_group_IT_number       1

loop_
  _space_group_symop_operation_xyz
  'x, y, z'

loop_
  _atom_site_type_symbol
  _atom_site_label
  _atom_site_symmetry_multiplicity
  _atom_site_fract_x
  _atom_site_fract_y
  _atom_site_fract_z
  _atom_site_occupancy
  Sn  Sn1       1.0  0.66343  0.14930  0.10409  1.0000
  Sn  Sn2       1.0  0.33657  0.64929  0.39591  1.0000
  Sn  Sn3       1.0  0.33657  0.85070  0.89591  1.0000
  Sn  Sn4       1.0  0.66343  0.35070  0.60409  1.0000
  H   H1        1.0  0.96458  0.41479  0.34808  1.0000
  H   H2        1.0  0.03543  0.91480  0.15192  1.0000
  H   H3        1.0  0.03542  0.58520  0.65192  1.0000
  H   H4        1.0  0.96458  0.08520  0.84808  1.0000
  H   H5        1.0  0.90398  0.62902  0.39459  1.0000
  H   H6        1.0  0.09602  0.12903  0.10541  1.0000
  H   H7        1.0  0.09602  0.37098  0.60541  1.0000
  H   H8        1.0  0.90398  0.87097  0.89459  1.0000
  H   H9        1.0  0.68328  0.73678  0.30961  1.0000
  H   H10       1.0  0.31672  0.23678  0.19039  1.0000
  H   H11       1.0  0.31672  0.26323  0.69038  1.0000
  H   H12       1.0  0.68328  0.76322  0.80961  1.0000
  H   H13       1.0  0.64022  0.60227  0.21613  1.0000
  H   H14       1.0  0.35979  0.10227  0.28387  1.0000
  H   H15       1.0  0.35978  0.39773  0.78387  1.0000
  H   H16       1.0  0.64022  0.89773  0.71613  1.0000
  H   H17       1.0  0.73951  0.78112  0.10961  1.0000
  H   H18       1.0  0.26049  0.28112  0.39039  1.0000
  H   H19       1.0  0.26050  0.21888  0.89039  1.0000
  H   H20       1.0  0.73951  0.71889  0.60961  1.0000
  H   H21       1.0  0.88988  0.78069  0.21600  1.0000
  H   H22       1.0  0.11012  0.28069  0.28400  1.0000
  H   H23       1.0  0.11012  0.21931  0.78400  1.0000
  H   H24       1.0  0.88988  0.71931  0.71600  1.0000
  H   H25       1.0  0.78877  0.55366  0.05226  1.0000
  H   H26       1.0  0.21123  0.05366  0.44774  1.0000
  H   H27       1.0  0.21123  0.44633  0.94774  1.0000
  H   H28       1.0  0.78877  0.94634  0.55226  1.0000
  H   H29       1.0  0.93083  0.65545  0.04145  1.0000
  H   H30       1.0  0.06917  0.15545  0.45854  1.0000
  H   H31       1.0  0.06917  0.34454  0.95854  1.0000
  H   H32       1.0  0.93084  0.84455  0.54146  1.0000
  H   H33       1.0  0.04856  0.58390  0.23518  1.0000
  H   H34       1.0  0.95144  0.08390  0.26482  1.0000
  H   H35       1.0  0.95144  0.41609  0.76482  1.0000
  H   H36       1.0  0.04856  0.91610  0.73518  1.0000
  H   H37       1.0  0.00881  0.44600  0.14303  1.0000
  H   H38       1.0  0.99119  0.94599  0.35697  1.0000
  H   H39       1.0  0.99119  0.55400  0.85697  1.0000
  H   H40       1.0  0.00881  0.05400  0.64304  1.0000
  H   H41       1.0  0.45597  0.31020  0.02402  1.0000
  H   H42       1.0  0.54403  0.81020  0.47597  1.0000
  H   H43       1.0  0.54403  0.68981  0.97597  1.0000
  H   H44       1.0  0.45596  0.18980  0.52403  1.0000
  H   H45       1.0  0.51689  0.23096  0.90282  1.0000
  H   H46       1.0  0.48310  0.73096  0.59718  1.0000
  H   H47       1.0  0.48311  0.76904  0.09718  1.0000
  H   H48       1.0  0.51689  0.26904  0.40282  1.0000
  H   H49       1.0  0.61246  0.36395  0.97742  1.0000
  H   H50       1.0  0.38753  0.86395  0.52258  1.0000
  H   H51       1.0  0.38754  0.63605  0.02258  1.0000
  H   H52       1.0  0.61246  0.13605  0.47742  1.0000
  H   H53       1.0  0.56827  0.05938  0.29148  1.0000
  H   H54       1.0  0.43173  0.55938  0.20852  1.0000
  H   H55       1.0  0.43173  0.94061  0.70852  1.0000
  H   H56       1.0  0.56827  0.44062  0.79148  1.0000
  H   H57       1.0  0.74624  0.01367  0.30140  1.0000
  H   H58       1.0  0.25376  0.51367  0.19860  1.0000
  H   H59       1.0  0.25376  0.98633  0.69860  1.0000
  H   H60       1.0  0.74623  0.48633  0.80140  1.0000
  H   H61       1.0  0.61370  0.92556  0.20704  1.0000
  H   H62       1.0  0.38630  0.42556  0.29296  1.0000
  H   H63       1.0  0.38630  0.07444  0.79296  1.0000
  H   H64       1.0  0.61370  0.57443  0.70704  1.0000
  C   C1        1.0  0.88826  0.46427  0.28270  1.0000
  C   C2        1.0  0.11174  0.96428  0.21730  1.0000
  C   C3        1.0  0.11173  0.53573  0.71730  1.0000
  C   C4        1.0  0.88827  0.03572  0.78271  1.0000
  C   C5        1.0  0.81859  0.57106  0.34633  1.0000
  C   C6        1.0  0.18141  0.07107  0.15367  1.0000
  C   C7        1.0  0.18141  0.42894  0.65367  1.0000
  C   C8        1.0  0.81859  0.92894  0.84633  1.0000
  C   C9        1.0  0.72713  0.65988  0.26086  1.0000
  C   C10       1.0  0.27287  0.15989  0.23914  1.0000
  C   C11       1.0  0.27287  0.34012  0.73914  1.0000
  C   C12       1.0  0.72713  0.84012  0.76086  1.0000
  C   C13       1.0  0.80705  0.71843  0.17061  1.0000
  C   C14       1.0  0.19295  0.21843  0.32939  1.0000
  C   C15       1.0  0.19295  0.28157  0.82938  1.0000
  C   C16       1.0  0.80705  0.78157  0.67061  1.0000
  C   C17       1.0  0.87100  0.61202  0.10416  1.0000
  C   C18       1.0  0.12900  0.11202  0.39584  1.0000
  C   C19       1.0  0.12900  0.38798  0.89584  1.0000
  C   C20       1.0  0.87100  0.88798  0.60416  1.0000
  C   C21       1.0  0.96411  0.52430  0.18939  1.0000
  C   C22       1.0  0.03589  0.02430  0.31061  1.0000
  C   C23       1.0  0.03589  0.47570  0.81061  1.0000
  C   C24       1.0  0.96412  0.97570  0.68940  1.0000
  C   C25       1.0  0.78924  0.35745  0.23179  1.0000
  C   C26       1.0  0.21076  0.85746  0.26821  1.0000
  C   C27       1.0  0.21075  0.64255  0.76821  1.0000
  C   C28       1.0  0.78925  0.14255  0.73179  1.0000
  C   C29       1.0  0.74490  0.51231  0.43886  1.0000
  C   C30       1.0  0.25510  0.01232  0.06113  1.0000
  C   C31       1.0  0.25509  0.48770  0.56113  1.0000
  C   C32       1.0  0.74490  0.98769  0.93887  1.0000
  C   C33       1.0  0.54614  0.28029  0.98663  1.0000
  C   C34       1.0  0.45386  0.78029  0.51337  1.0000
  C   C35       1.0  0.45386  0.71971  0.01337  1.0000
  C   C36       1.0  0.54613  0.21970  0.48663  1.0000
  C   C37       1.0  0.64659  0.02021  0.24425  1.0000
  C   C38       1.0  0.35341  0.52021  0.25574  1.0000
  C   C39       1.0  0.35341  0.97979  0.75575  1.0000
  C   C40       1.0  0.64659  0.47979  0.74425  1.0000
  O   O1        1.0  0.83846  0.27257  0.16556  1.0000
  O   O2        1.0  0.16155  0.77257  0.33443  1.0000
  O   O3        1.0  0.16154  0.72743  0.83444  1.0000
  O   O4        1.0  0.83846  0.22743  0.66556  1.0000
  O   O5        1.0  0.66804  0.34803  0.25168  1.0000
  O   O6        1.0  0.33197  0.84804  0.24832  1.0000
  O   O7        1.0  0.33195  0.65197  0.74833  1.0000
  O   O8        1.0  0.66805  0.15197  0.75168  1.0000
  O   O9        1.0  0.81439  0.42609  0.50745  1.0000
  O   O10       1.0  0.18561  0.92609  0.99255  1.0000
  O   O11       1.0  0.18561  0.57391  0.49255  1.0000
  O   O12       1.0  0.81439  0.07391  0.00745  1.0000
  O   O13       1.0  0.62540  0.54315  0.45349  1.0000
  O   O14       1.0  0.37460  0.04315  0.04651  1.0000
  O   O15       1.0  0.37459  0.45685  0.54650  1.0000
  O   O16       1.0  0.62540  0.95685  0.95349  1.0000
