data_image0
_chemical_formula_structural       Nd4Ag4H32C56N8O32
_chemical_formula_sum              "Nd4 Ag4 H32 C56 N8 O32"
_cell_length_a       9.16183
_cell_length_b       9.77557
_cell_length_c       22.4015
_cell_angle_alpha    90
_cell_angle_beta     90
_cell_angle_gamma    116.762

_space_group_name_H-M_alt    "P 1"
_space_group_IT_number       1

loop_
  _space_group_symop_operation_xyz
  'x, y, z'

loop_
  _atom_site_type_symbol
  _atom_site_label
  _atom_site_symmetry_multiplicity
  _atom_site_fract_x
  _atom_site_fract_y
  _atom_site_fract_z
  _atom_site_occupancy
  Nd  Nd1       1.0  0.61601  0.85510  0.99055  1.0000
  Nd  Nd2       1.0  0.88400  0.14491  0.49055  1.0000
  Nd  Nd3       1.0  0.38400  0.14491  0.00945  1.0000
  Nd  Nd4       1.0  0.11601  0.85510  0.50945  1.0000
  Ag  Ag1       1.0  0.02478  0.18593  0.14901  1.0000
  Ag  Ag2       1.0  0.47522  0.81407  0.64901  1.0000
  Ag  Ag3       1.0  0.97522  0.81407  0.85099  1.0000
  Ag  Ag4       1.0  0.52478  0.18593  0.35099  1.0000
  H   H1        1.0  0.19946  0.46765  0.06782  1.0000
  H   H2        1.0  0.30054  0.53236  0.56782  1.0000
  H   H3        1.0  0.80054  0.53235  0.93218  1.0000
  H   H4        1.0  0.69946  0.46765  0.43218  1.0000
  H   H5        1.0  0.76595  0.29928  0.16410  1.0000
  H   H6        1.0  0.73406  0.70072  0.66410  1.0000
  H   H7        1.0  0.23406  0.70073  0.83590  1.0000
  H   H8        1.0  0.26595  0.29928  0.33590  1.0000
  H   H9        1.0  0.71276  0.51780  0.13258  1.0000
  H   H10       1.0  0.78724  0.48219  0.63258  1.0000
  H   H11       1.0  0.28724  0.48219  0.86742  1.0000
  H   H12       1.0  0.21276  0.51781  0.36742  1.0000
  H   H13       1.0  0.92424  0.72746  0.07065  1.0000
  H   H14       1.0  0.57576  0.27254  0.57066  1.0000
  H   H15       1.0  0.07576  0.27254  0.92934  1.0000
  H   H16       1.0  0.42424  0.72746  0.42935  1.0000
  H   H17       1.0  0.98607  0.15317  0.28073  1.0000
  H   H18       1.0  0.51393  0.84683  0.78073  1.0000
  H   H19       1.0  0.01393  0.84683  0.71927  1.0000
  H   H20       1.0  0.48607  0.15317  0.21927  1.0000
  H   H21       1.0  0.12076  0.91152  0.15814  1.0000
  H   H22       1.0  0.37924  0.08847  0.65814  1.0000
  H   H23       1.0  0.87924  0.08847  0.84185  1.0000
  H   H24       1.0  0.62076  0.91152  0.34186  1.0000
  H   H25       1.0  0.14980  0.74925  0.23928  1.0000
  H   H26       1.0  0.35020  0.25074  0.73928  1.0000
  H   H27       1.0  0.85020  0.25075  0.76072  1.0000
  H   H28       1.0  0.64980  0.74925  0.26072  1.0000
  H   H29       1.0  0.10141  0.80036  0.34661  1.0000
  H   H30       1.0  0.39859  0.19965  0.84661  1.0000
  H   H31       1.0  0.89859  0.19965  0.65339  1.0000
  H   H32       1.0  0.60141  0.80036  0.15339  1.0000
  C   C1        1.0  0.07882  0.61385  0.06494  1.0000
  C   C2        1.0  0.42118  0.38615  0.56494  1.0000
  C   C3        1.0  0.92118  0.38615  0.93506  1.0000
  C   C4        1.0  0.57882  0.61385  0.43506  1.0000
  C   C5        1.0  0.09502  0.48409  0.08234  1.0000
  C   C6        1.0  0.40498  0.51591  0.58234  1.0000
  C   C7        1.0  0.90498  0.51591  0.91766  1.0000
  C   C8        1.0  0.59502  0.48409  0.41766  1.0000
  C   C9        1.0  0.85240  0.39019  0.13583  1.0000
  C   C10       1.0  0.64759  0.60981  0.63583  1.0000
  C   C11       1.0  0.14759  0.60981  0.86417  1.0000
  C   C12       1.0  0.35241  0.39019  0.36417  1.0000
  C   C13       1.0  0.82489  0.51354  0.11918  1.0000
  C   C14       1.0  0.67511  0.48645  0.61919  1.0000
  C   C15       1.0  0.17511  0.48645  0.88081  1.0000
  C   C16       1.0  0.32489  0.51354  0.38082  1.0000
  C   C17       1.0  0.94084  0.62820  0.08394  1.0000
  C   C18       1.0  0.55915  0.37180  0.58394  1.0000
  C   C19       1.0  0.05915  0.37180  0.91606  1.0000
  C   C20       1.0  0.44084  0.62820  0.41606  1.0000
  C   C21       1.0  0.21126  0.73907  0.02891  1.0000
  C   C22       1.0  0.28875  0.26093  0.52892  1.0000
  C   C23       1.0  0.78875  0.26093  0.97108  1.0000
  C   C24       1.0  0.71126  0.73907  0.47109  1.0000
  C   C25       1.0  0.04019  0.98148  0.32065  1.0000
  C   C26       1.0  0.45980  0.01852  0.82065  1.0000
  C   C27       1.0  0.95980  0.01852  0.67935  1.0000
  C   C28       1.0  0.54020  0.98148  0.17936  1.0000
  C   C29       1.0  0.02409  0.06413  0.27247  1.0000
  C   C30       1.0  0.47591  0.93587  0.77248  1.0000
  C   C31       1.0  0.97591  0.93587  0.72752  1.0000
  C   C32       1.0  0.52409  0.06413  0.22753  1.0000
  C   C33       1.0  0.09748  0.92761  0.20472  1.0000
  C   C34       1.0  0.40252  0.07239  0.70471  1.0000
  C   C35       1.0  0.90252  0.07239  0.79528  1.0000
  C   C36       1.0  0.59748  0.92761  0.29529  1.0000
  C   C37       1.0  0.11435  0.83866  0.25039  1.0000
  C   C38       1.0  0.38565  0.16134  0.75039  1.0000
  C   C39       1.0  0.88565  0.16134  0.74961  1.0000
  C   C40       1.0  0.61435  0.83866  0.24961  1.0000
  C   C41       1.0  0.08754  0.86628  0.30956  1.0000
  C   C42       1.0  0.41246  0.13372  0.80956  1.0000
  C   C43       1.0  0.91246  0.13372  0.69044  1.0000
  C   C44       1.0  0.58754  0.86628  0.19044  1.0000
  C   C45       1.0  0.00396  0.02157  0.38174  1.0000
  C   C46       1.0  0.49604  0.97844  0.88174  1.0000
  C   C47       1.0  0.99604  0.97843  0.61826  1.0000
  C   C48       1.0  0.50396  0.02157  0.11826  1.0000
  C   C49       1.0  0.99577  0.02149  0.03297  1.0000
  C   C50       1.0  0.50424  0.97851  0.53297  1.0000
  C   C51       1.0  0.00425  0.97850  0.96703  1.0000
  C   C52       1.0  0.49576  0.02149  0.46703  1.0000
  C   C53       1.0  0.49120  0.49231  0.96528  1.0000
  C   C54       1.0  0.00880  0.50770  0.46528  1.0000
  C   C55       1.0  0.50880  0.50770  0.03471  1.0000
  C   C56       1.0  0.99120  0.49231  0.53472  1.0000
  N   N1        1.0  0.98530  0.37509  0.11802  1.0000
  N   N2        1.0  0.51470  0.62491  0.61803  1.0000
  N   N3        1.0  0.01470  0.62491  0.88197  1.0000
  N   N4        1.0  0.48530  0.37509  0.38198  1.0000
  N   N5        1.0  0.05353  0.03985  0.21561  1.0000
  N   N6        1.0  0.44647  0.96015  0.71561  1.0000
  N   N7        1.0  0.94647  0.96015  0.78439  1.0000
  N   N8        1.0  0.55352  0.03984  0.28439  1.0000
  O   O1        1.0  0.31630  0.70808  0.00322  1.0000
  O   O2        1.0  0.18370  0.29193  0.50322  1.0000
  O   O3        1.0  0.68370  0.29193  0.99678  1.0000
  O   O4        1.0  0.81630  0.70808  0.49678  1.0000
  O   O5        1.0  0.20790  0.86741  0.02887  1.0000
  O   O6        1.0  0.29210  0.13260  0.52887  1.0000
  O   O7        1.0  0.79210  0.13259  0.97113  1.0000
  O   O8        1.0  0.70790  0.86741  0.47113  1.0000
  O   O9        1.0  0.93652  0.10971  0.38446  1.0000
  O   O10       1.0  0.56349  0.89030  0.88446  1.0000
  O   O11       1.0  0.06349  0.89030  0.61554  1.0000
  O   O12       1.0  0.43652  0.10971  0.11554  1.0000
  O   O13       1.0  0.04179  0.96705  0.42729  1.0000
  O   O14       1.0  0.45821  0.03295  0.92729  1.0000
  O   O15       1.0  0.95822  0.03295  0.57271  1.0000
  O   O16       1.0  0.54179  0.96705  0.07271  1.0000
  O   O17       1.0  0.12833  0.12088  0.05587  1.0000
  O   O18       1.0  0.37168  0.87912  0.55587  1.0000
  O   O19       1.0  0.87168  0.87912  0.94413  1.0000
  O   O20       1.0  0.62833  0.12088  0.44413  1.0000
  O   O21       1.0  0.85990  0.95658  0.05941  1.0000
  O   O22       1.0  0.64011  0.04342  0.55941  1.0000
  O   O23       1.0  0.14011  0.04342  0.94059  1.0000
  O   O24       1.0  0.35990  0.95658  0.44059  1.0000
  O   O25       1.0  0.54755  0.61495  0.93547  1.0000
  O   O26       1.0  0.95245  0.38505  0.43547  1.0000
  O   O27       1.0  0.45245  0.38506  0.06453  1.0000
  O   O28       1.0  0.04755  0.61495  0.56453  1.0000
  O   O29       1.0  0.42116  0.35749  0.94396  1.0000
  O   O30       1.0  0.07884  0.64250  0.44397  1.0000
  O   O31       1.0  0.57883  0.64250  0.05603  1.0000
  O   O32       1.0  0.92116  0.35749  0.55604  1.0000
