data_image0
_chemical_formula_structural       Ag4H32C48S8N24Cl4O16
_chemical_formula_sum              "Ag4 H32 C48 S8 N24 Cl4 O16"
_cell_length_a       8.42488
_cell_length_b       13.1405
_cell_length_c       14.427
_cell_angle_alpha    90
_cell_angle_beta     90
_cell_angle_gamma    90

_space_group_name_H-M_alt    "P 1"
_space_group_IT_number       1

loop_
  _space_group_symop_operation_xyz
  'x, y, z'

loop_
  _atom_site_type_symbol
  _atom_site_label
  _atom_site_symmetry_multiplicity
  _atom_site_fract_x
  _atom_site_fract_y
  _atom_site_fract_z
  _atom_site_occupancy
  Ag  Ag1       1.0  0.58605  0.82431  0.77764  1.0000
  Ag  Ag2       1.0  0.91395  0.17569  0.27764  1.0000
  Ag  Ag3       1.0  0.08605  0.67569  0.22236  1.0000
  Ag  Ag4       1.0  0.41395  0.32431  0.72236  1.0000
  H   H1        1.0  0.89546  0.73816  0.88663  1.0000
  H   H2        1.0  0.60453  0.26184  0.38663  1.0000
  H   H3        1.0  0.39546  0.76183  0.11337  1.0000
  H   H4        1.0  0.10454  0.23816  0.61337  1.0000
  H   H5        1.0  0.19038  0.77800  0.89323  1.0000
  H   H6        1.0  0.30961  0.22200  0.39322  1.0000
  H   H7        1.0  0.69038  0.72200  0.10677  1.0000
  H   H8        1.0  0.80961  0.27800  0.60677  1.0000
  H   H9        1.0  0.13722  0.99138  0.68402  1.0000
  H   H10       1.0  0.36279  0.00861  0.18402  1.0000
  H   H11       1.0  0.63721  0.50862  0.31597  1.0000
  H   H12       1.0  0.86278  0.49138  0.81598  1.0000
  H   H13       1.0  0.78504  0.11195  0.48889  1.0000
  H   H14       1.0  0.71497  0.88805  0.98890  1.0000
  H   H15       1.0  0.28504  0.38805  0.51111  1.0000
  H   H16       1.0  0.21497  0.61195  0.01110  1.0000
  H   H17       1.0  0.12704  0.98900  0.31342  1.0000
  H   H18       1.0  0.37297  0.01100  0.81342  1.0000
  H   H19       1.0  0.62703  0.51100  0.68658  1.0000
  H   H20       1.0  0.87297  0.48900  0.18658  1.0000
  H   H21       1.0  0.12628  0.58454  0.65223  1.0000
  H   H22       1.0  0.37373  0.41546  0.15223  1.0000
  H   H23       1.0  0.62627  0.91546  0.34778  1.0000
  H   H24       1.0  0.87372  0.08454  0.84777  1.0000
  H   H25       1.0  0.33836  0.64382  0.76479  1.0000
  H   H26       1.0  0.16164  0.35618  0.26480  1.0000
  H   H27       1.0  0.83836  0.85618  0.23521  1.0000
  H   H28       1.0  0.66163  0.14382  0.73521  1.0000
  H   H29       1.0  0.47189  0.86973  0.57734  1.0000
  H   H30       1.0  0.02811  0.13027  0.07734  1.0000
  H   H31       1.0  0.97189  0.63027  0.42266  1.0000
  H   H32       1.0  0.52811  0.36973  0.92266  1.0000
  C   C1        1.0  0.95083  0.79296  0.83990  1.0000
  C   C2        1.0  0.54917  0.20703  0.33990  1.0000
  C   C3        1.0  0.45083  0.70703  0.16010  1.0000
  C   C4        1.0  0.04916  0.29296  0.66010  1.0000
  C   C5        1.0  0.11208  0.81530  0.84354  1.0000
  C   C6        1.0  0.38792  0.18470  0.34354  1.0000
  C   C7        1.0  0.61207  0.68470  0.15646  1.0000
  C   C8        1.0  0.88792  0.31530  0.65646  1.0000
  C   C9        1.0  0.08337  0.93295  0.72763  1.0000
  C   C10       1.0  0.41663  0.06705  0.22763  1.0000
  C   C11       1.0  0.58336  0.56705  0.27237  1.0000
  C   C12       1.0  0.91663  0.43294  0.77237  1.0000
  C   C13       1.0  0.92168  0.90815  0.72052  1.0000
  C   C14       1.0  0.57832  0.09185  0.22052  1.0000
  C   C15       1.0  0.42168  0.59185  0.27948  1.0000
  C   C16       1.0  0.07832  0.40815  0.77948  1.0000
  C   C17       1.0  0.91053  0.97833  0.54158  1.0000
  C   C18       1.0  0.58947  0.02167  0.04158  1.0000
  C   C19       1.0  0.41053  0.52167  0.45842  1.0000
  C   C20       1.0  0.08947  0.47833  0.95842  1.0000
  C   C21       1.0  0.87550  0.05429  0.47656  1.0000
  C   C22       1.0  0.62451  0.94571  0.97656  1.0000
  C   C23       1.0  0.37550  0.44570  0.52344  1.0000
  C   C24       1.0  0.12451  0.55429  0.02344  1.0000
  C   C25       1.0  0.06557  0.98639  0.37948  1.0000
  C   C26       1.0  0.43444  0.01361  0.87948  1.0000
  C   C27       1.0  0.56557  0.51361  0.62052  1.0000
  C   C28       1.0  0.93443  0.48639  0.12052  1.0000
  C   C29       1.0  0.10460  0.91451  0.44816  1.0000
  C   C30       1.0  0.39540  0.08549  0.94816  1.0000
  C   C31       1.0  0.60460  0.58549  0.55184  1.0000
  C   C32       1.0  0.89540  0.41451  0.05184  1.0000
  C   C33       1.0  0.27922  0.77102  0.53403  1.0000
  C   C34       1.0  0.22078  0.22899  0.03403  1.0000
  C   C35       1.0  0.77922  0.72898  0.46597  1.0000
  C   C36       1.0  0.72078  0.27102  0.96597  1.0000
  C   C37       1.0  0.20399  0.64859  0.63594  1.0000
  C   C38       1.0  0.29601  0.35141  0.13594  1.0000
  C   C39       1.0  0.70399  0.85141  0.36406  1.0000
  C   C40       1.0  0.79601  0.14859  0.86406  1.0000
  C   C41       1.0  0.32029  0.68112  0.69822  1.0000
  C   C42       1.0  0.17972  0.31889  0.19822  1.0000
  C   C43       1.0  0.82028  0.81889  0.30178  1.0000
  C   C44       1.0  0.67971  0.18111  0.80178  1.0000
  C   C45       1.0  0.39537  0.80608  0.59547  1.0000
  C   C46       1.0  0.10463  0.19392  0.09547  1.0000
  C   C47       1.0  0.89537  0.69393  0.40453  1.0000
  C   C48       1.0  0.60463  0.30608  0.90453  1.0000
  S   S1        1.0  0.26193  0.83088  0.42389  1.0000
  S   S2        1.0  0.23807  0.16912  0.92389  1.0000
  S   S3        1.0  0.76193  0.66912  0.57611  1.0000
  S   S4        1.0  0.73808  0.33088  0.07611  1.0000
  S   S5        1.0  0.79041  0.96821  0.64250  1.0000
  S   S6        1.0  0.70959  0.03180  0.14250  1.0000
  S   S7        1.0  0.29041  0.53180  0.35750  1.0000
  S   S8        1.0  0.20959  0.46821  0.85750  1.0000
  N   N1        1.0  0.85562  0.83917  0.77770  1.0000
  N   N2        1.0  0.64438  0.16083  0.27770  1.0000
  N   N3        1.0  0.35562  0.66083  0.22230  1.0000
  N   N4        1.0  0.14438  0.33917  0.72230  1.0000
  N   N5        1.0  0.17732  0.88616  0.78839  1.0000
  N   N6        1.0  0.32268  0.11384  0.28839  1.0000
  N   N7        1.0  0.67732  0.61384  0.21161  1.0000
  N   N8        1.0  0.82268  0.38616  0.71161  1.0000
  N   N9        1.0  0.02450  0.90923  0.52771  1.0000
  N   N10       1.0  0.47551  0.09076  0.02771  1.0000
  N   N11       1.0  0.52450  0.59076  0.47229  1.0000
  N   N12       1.0  0.97550  0.40924  0.97229  1.0000
  N   N13       1.0  0.95345  0.05594  0.39513  1.0000
  N   N14       1.0  0.54655  0.94406  0.89513  1.0000
  N   N15       1.0  0.45346  0.44406  0.60487  1.0000
  N   N16       1.0  0.04655  0.55594  0.10487  1.0000
  N   N17       1.0  0.41478  0.76083  0.67827  1.0000
  N   N18       1.0  0.08522  0.23917  0.17827  1.0000
  N   N19       1.0  0.91478  0.73917  0.32173  1.0000
  N   N20       1.0  0.58522  0.26083  0.82173  1.0000
  N   N21       1.0  0.18271  0.69343  0.55356  1.0000
  N   N22       1.0  0.31729  0.30658  0.05356  1.0000
  N   N23       1.0  0.68271  0.80658  0.44644  1.0000
  N   N24       1.0  0.81729  0.19343  0.94644  1.0000
  Cl  Cl1       1.0  0.58677  0.60241  0.92424  1.0000
  Cl  Cl2       1.0  0.91323  0.39759  0.42424  1.0000
  Cl  Cl3       1.0  0.08677  0.89759  0.07576  1.0000
  Cl  Cl4       1.0  0.41323  0.10241  0.57576  1.0000
  O   O1        1.0  0.50029  0.69976  0.91922  1.0000
  O   O2        1.0  0.99971  0.30024  0.41922  1.0000
  O   O3        1.0  0.00029  0.80024  0.08078  1.0000
  O   O4        1.0  0.49971  0.19976  0.58078  1.0000
  O   O5        1.0  0.50610  0.53517  0.98952  1.0000
  O   O6        1.0  0.99390  0.46483  0.48952  1.0000
  O   O7        1.0  0.00610  0.96483  0.01048  1.0000
  O   O8        1.0  0.49390  0.03517  0.51048  1.0000
  O   O9        1.0  0.58918  0.55555  0.83212  1.0000
  O   O10       1.0  0.91082  0.44445  0.33212  1.0000
  O   O11       1.0  0.08918  0.94445  0.16788  1.0000
  O   O12       1.0  0.41082  0.05555  0.66788  1.0000
  O   O13       1.0  0.74962  0.62098  0.95485  1.0000
  O   O14       1.0  0.75038  0.37902  0.45485  1.0000
  O   O15       1.0  0.24962  0.87902  0.04515  1.0000
  O   O16       1.0  0.25038  0.12098  0.54515  1.0000
