data_image0
_chemical_formula_structural       Zn2H44C52N4O8
_chemical_formula_sum              "Zn2 H44 C52 N4 O8"
_cell_length_a       10.2978
_cell_length_b       10.4431
_cell_length_c       11.9897
_cell_angle_alpha    94.8553
_cell_angle_beta     95.2649
_cell_angle_gamma    109.447

_space_group_name_H-M_alt    "P 1"
_space_group_IT_number       1

loop_
  _space_group_symop_operation_xyz
  'x, y, z'

loop_
  _atom_site_type_symbol
  _atom_site_label
  _atom_site_symmetry_multiplicity
  _atom_site_fract_x
  _atom_site_fract_y
  _atom_site_fract_z
  _atom_site_occupancy
  Zn  Zn1       1.0  0.94386  0.05438  0.74641  1.0000
  Zn  Zn2       1.0  0.05612  0.94563  0.25361  1.0000
  H   H1        1.0  0.74082  0.74880  0.44909  1.0000
  H   H2        1.0  0.25089  0.25751  0.04489  1.0000
  H   H3        1.0  0.25918  0.25121  0.55094  1.0000
  H   H4        1.0  0.74911  0.74251  0.95509  1.0000
  H   H5        1.0  0.62419  0.52700  0.32999  1.0000
  H   H6        1.0  0.47388  0.37608  0.16640  1.0000
  H   H7        1.0  0.37585  0.47302  0.67001  1.0000
  H   H8        1.0  0.52612  0.62393  0.83358  1.0000
  H   H9        1.0  0.51234  0.18689  0.44205  1.0000
  H   H10       1.0  0.82206  0.48672  0.05965  1.0000
  H   H11       1.0  0.48774  0.81311  0.55793  1.0000
  H   H12       1.0  0.17793  0.51328  0.94033  1.0000
  H   H13       1.0  0.64307  0.24282  0.35240  1.0000
  H   H14       1.0  0.76171  0.36209  0.15270  1.0000
  H   H15       1.0  0.35697  0.75720  0.64755  1.0000
  H   H16       1.0  0.23830  0.63790  0.84727  1.0000
  H   H17       1.0  0.48417  0.27275  0.32531  1.0000
  H   H18       1.0  0.73207  0.51968  0.17215  1.0000
  H   H19       1.0  0.51585  0.72724  0.67469  1.0000
  H   H20       1.0  0.26793  0.48031  0.82782  1.0000
  H   H21       1.0  0.63230  0.31415  0.62107  1.0000
  H   H22       1.0  0.69561  0.37058  0.87976  1.0000
  H   H23       1.0  0.36773  0.68583  0.37890  1.0000
  H   H24       1.0  0.30438  0.62940  0.12022  1.0000
  H   H25       1.0  0.74885  0.53876  0.74139  1.0000
  H   H26       1.0  0.46940  0.25188  0.75697  1.0000
  H   H27       1.0  0.25115  0.46120  0.25861  1.0000
  H   H28       1.0  0.53058  0.74813  0.24301  1.0000
  H   H29       1.0  0.64396  0.00544  0.69890  1.0000
  H   H30       1.0  0.99408  0.34743  0.79732  1.0000
  H   H31       1.0  0.35605  0.99452  0.30113  1.0000
  H   H32       1.0  0.00589  0.65257  0.20268  1.0000
  H   H33       1.0  0.43913  0.97044  0.80046  1.0000
  H   H34       1.0  0.03007  0.55332  0.69979  1.0000
  H   H35       1.0  0.56087  0.02957  0.19955  1.0000
  H   H36       1.0  0.96993  0.44668  0.30021  1.0000
  H   H37       1.0  0.72062  0.06681  0.11221  1.0000
  H   H38       1.0  0.93249  0.28563  0.38392  1.0000
  H   H39       1.0  0.27935  0.93321  0.88782  1.0000
  H   H40       1.0  0.06753  0.71437  0.61608  1.0000
  H   H41       1.0  0.91320  0.10051  0.99671  1.0000
  H   H42       1.0  0.89751  0.09136  0.49545  1.0000
  H   H43       1.0  0.08679  0.89954  0.00334  1.0000
  H   H44       1.0  0.10245  0.90864  0.50456  1.0000
  C   C1        1.0  0.83456  0.78848  0.67590  1.0000
  C   C2        1.0  0.21493  0.16347  0.81909  1.0000
  C   C3        1.0  0.16541  0.21149  0.32413  1.0000
  C   C4        1.0  0.78505  0.83655  0.18089  1.0000
  C   C5        1.0  0.75460  0.65706  0.60301  1.0000
  C   C6        1.0  0.34691  0.24491  0.89304  1.0000
  C   C7        1.0  0.24541  0.34293  0.39700  1.0000
  C   C8        1.0  0.65307  0.75510  0.10694  1.0000
  C   C9        1.0  0.71703  0.65352  0.48696  1.0000
  C   C10       1.0  0.34830  0.28235  0.00853  1.0000
  C   C11       1.0  0.28298  0.34647  0.51305  1.0000
  C   C12       1.0  0.65169  0.71767  0.99145  1.0000
  C   C13       1.0  0.65294  0.52840  0.42009  1.0000
  C   C14       1.0  0.47416  0.34757  0.07678  1.0000
  C   C15       1.0  0.34710  0.47160  0.57991  1.0000
  C   C16       1.0  0.52584  0.65244  0.92321  1.0000
  C   C17       1.0  0.62401  0.40439  0.46646  1.0000
  C   C18       1.0  0.60099  0.37768  0.03234  1.0000
  C   C19       1.0  0.37603  0.59561  0.53353  1.0000
  C   C20       1.0  0.39901  0.62231  0.96763  1.0000
  C   C21       1.0  0.56212  0.26969  0.39285  1.0000
  C   C22       1.0  0.73634  0.44038  0.10792  1.0000
  C   C23       1.0  0.43793  0.73031  0.60713  1.0000
  C   C24       1.0  0.26366  0.55961  0.89205  1.0000
  C   C25       1.0  0.65666  0.40954  0.58321  1.0000
  C   C26       1.0  0.59796  0.34533  0.91606  1.0000
  C   C27       1.0  0.34337  0.59044  0.41678  1.0000
  C   C28       1.0  0.40203  0.65466  0.08391  1.0000
  C   C29       1.0  0.72134  0.53403  0.65075  1.0000
  C   C30       1.0  0.47269  0.27954  0.84719  1.0000
  C   C31       1.0  0.27868  0.46595  0.34925  1.0000
  C   C32       1.0  0.52729  0.72046  0.15279  1.0000
  C   C33       1.0  0.65535  0.01850  0.79094  1.0000
  C   C34       1.0  0.98077  0.33934  0.70539  1.0000
  C   C35       1.0  0.34465  0.98150  0.20908  1.0000
  C   C36       1.0  0.01922  0.66066  0.29462  1.0000
  C   C37       1.0  0.54112  0.99744  0.84890  1.0000
  C   C38       1.0  0.00233  0.45409  0.64970  1.0000
  C   C39       1.0  0.45887  0.00257  0.15112  1.0000
  C   C40       1.0  0.99768  0.54592  0.35031  1.0000
  C   C41       1.0  0.55967  0.01266  0.96742  1.0000
  C   C42       1.0  0.98699  0.43982  0.53125  1.0000
  C   C43       1.0  0.44032  0.98736  0.03260  1.0000
  C   C44       1.0  0.01303  0.56019  0.46875  1.0000
  C   C45       1.0  0.69669  0.05279  0.02082  1.0000
  C   C46       1.0  0.94625  0.30621  0.47549  1.0000
  C   C47       1.0  0.30330  0.94724  0.97921  1.0000
  C   C48       1.0  0.05376  0.69378  0.52452  1.0000
  C   C49       1.0  0.80617  0.07203  0.95700  1.0000
  C   C50       1.0  0.92636  0.19575  0.53707  1.0000
  C   C51       1.0  0.19382  0.92800  0.04303  1.0000
  C   C52       1.0  0.07362  0.80425  0.46294  1.0000
  N   N1        1.0  0.78578  0.05407  0.84346  1.0000
  N   N2        1.0  0.94449  0.21214  0.65060  1.0000
  N   N3        1.0  0.21422  0.94595  0.15657  1.0000
  N   N4        1.0  0.05548  0.78786  0.34940  1.0000
  O   O1        1.0  0.85184  0.89990  0.62840  1.0000
  O   O2        1.0  0.10083  0.14658  0.86437  1.0000
  O   O3        1.0  0.14811  0.10008  0.37164  1.0000
  O   O4        1.0  0.89916  0.85343  0.13563  1.0000
  O   O5        1.0  0.88326  0.78911  0.77597  1.0000
  O   O6        1.0  0.21659  0.11349  0.72045  1.0000
  O   O7        1.0  0.11671  0.21085  0.22406  1.0000
  O   O8        1.0  0.78339  0.88652  0.27954  1.0000
