data_image0
_chemical_formula_structural       Cu2H32C32N16Cl4
_chemical_formula_sum              "Cu2 H32 C32 N16 Cl4"
_cell_length_a       7.52073
_cell_length_b       8.19225
_cell_length_c       16.0859
_cell_angle_alpha    89.9999
_cell_angle_beta     90.0004
_cell_angle_gamma    116.482

_space_group_name_H-M_alt    "P 1"
_space_group_IT_number       1

loop_
  _space_group_symop_operation_xyz
  'x, y, z'

loop_
  _atom_site_type_symbol
  _atom_site_label
  _atom_site_symmetry_multiplicity
  _atom_site_fract_x
  _atom_site_fract_y
  _atom_site_fract_z
  _atom_site_occupancy
  Cu  Cu1       1.0  0.50000  0.50000  1.00000  1.0000
  Cu  Cu2       1.0  1.00000  0.00000  0.50000  1.0000
  H   H1        1.0  0.21087  0.08839  0.93695  1.0000
  H   H2        1.0  0.28913  0.41161  0.43695  1.0000
  H   H3        1.0  0.78913  0.91161  0.06305  1.0000
  H   H4        1.0  0.71087  0.58839  0.56305  1.0000
  H   H5        1.0  0.83480  0.35848  0.95523  1.0000
  H   H6        1.0  0.66520  0.14152  0.45523  1.0000
  H   H7        1.0  0.16520  0.64152  0.04477  1.0000
  H   H8        1.0  0.33480  0.85848  0.54477  1.0000
  H   H9        1.0  0.69666  0.88160  0.89893  1.0000
  H   H10       1.0  0.80334  0.61840  0.39893  1.0000
  H   H11       1.0  0.30334  0.11840  0.10107  1.0000
  H   H12       1.0  0.19665  0.38160  0.60107  1.0000
  H   H13       1.0  0.89801  0.09678  0.91635  1.0000
  H   H14       1.0  0.60199  0.40322  0.41635  1.0000
  H   H15       1.0  0.10199  0.90322  0.08365  1.0000
  H   H16       1.0  0.39801  0.59678  0.58365  1.0000
  H   H17       1.0  0.57876  0.08646  0.73588  1.0000
  H   H18       1.0  0.92124  0.41354  0.23588  1.0000
  H   H19       1.0  0.42124  0.91354  0.26412  1.0000
  H   H20       1.0  0.07875  0.58645  0.76412  1.0000
  H   H21       1.0  0.68333  0.08349  0.59065  1.0000
  H   H22       1.0  0.81667  0.41651  0.09065  1.0000
  H   H23       1.0  0.31667  0.91651  0.40935  1.0000
  H   H24       1.0  0.18333  0.58349  0.90935  1.0000
  H   H25       1.0  0.16874  0.00528  0.66436  1.0000
  H   H26       1.0  0.33125  0.49472  0.16437  1.0000
  H   H27       1.0  0.83125  0.99472  0.33563  1.0000
  H   H28       1.0  0.66875  0.50528  0.83564  1.0000
  H   H29       1.0  0.07091  0.98475  0.81358  1.0000
  H   H30       1.0  0.42909  0.51525  0.31358  1.0000
  H   H31       1.0  0.92909  0.01524  0.18642  1.0000
  H   H32       1.0  0.57091  0.48475  0.68642  1.0000
  C   C1        1.0  0.36618  0.12054  0.92885  1.0000
  C   C2        1.0  0.13383  0.37947  0.42885  1.0000
  C   C3        1.0  0.63383  0.87946  0.07115  1.0000
  C   C4        1.0  0.86617  0.62054  0.57115  1.0000
  C   C5        1.0  0.68322  0.26263  0.94001  1.0000
  C   C6        1.0  0.81678  0.23737  0.44002  1.0000
  C   C7        1.0  0.31678  0.73737  0.05999  1.0000
  C   C8        1.0  0.18322  0.76264  0.55999  1.0000
  C   C9        1.0  0.76335  0.02459  0.87830  1.0000
  C   C10       1.0  0.73665  0.47541  0.37830  1.0000
  C   C11       1.0  0.23665  0.97541  0.12170  1.0000
  C   C12       1.0  0.26335  0.52459  0.62170  1.0000
  C   C13       1.0  0.81586  0.03454  0.78769  1.0000
  C   C14       1.0  0.68414  0.46546  0.28769  1.0000
  C   C15       1.0  0.18414  0.96546  0.21231  1.0000
  C   C16       1.0  0.31586  0.53454  0.71231  1.0000
  C   C17       1.0  0.70866  0.06410  0.72352  1.0000
  C   C18       1.0  0.79134  0.43590  0.22351  1.0000
  C   C19       1.0  0.29134  0.93590  0.27648  1.0000
  C   C20       1.0  0.20866  0.56410  0.77649  1.0000
  C   C21       1.0  0.76751  0.06333  0.64134  1.0000
  C   C22       1.0  0.73249  0.43667  0.14134  1.0000
  C   C23       1.0  0.23249  0.93667  0.35866  1.0000
  C   C24       1.0  0.26751  0.56333  0.85866  1.0000
  C   C25       1.0  0.03522  0.01586  0.68333  1.0000
  C   C26       1.0  0.46477  0.48414  0.18333  1.0000
  C   C27       1.0  0.96477  0.98414  0.31667  1.0000
  C   C28       1.0  0.53523  0.51586  0.81667  1.0000
  C   C29       1.0  0.98287  0.00994  0.76615  1.0000
  C   C30       1.0  0.51714  0.49005  0.26615  1.0000
  C   C31       1.0  0.01713  0.99005  0.23385  1.0000
  C   C32       1.0  0.48286  0.50995  0.73385  1.0000
  N   N1        1.0  0.63129  0.10304  0.90107  1.0000
  N   N2        1.0  0.86871  0.39696  0.40107  1.0000
  N   N3        1.0  0.36871  0.89696  0.09893  1.0000
  N   N4        1.0  0.13129  0.60304  0.59893  1.0000
  N   N5        1.0  0.42944  0.00986  0.89332  1.0000
  N   N6        1.0  0.07056  0.49014  0.39332  1.0000
  N   N7        1.0  0.57056  0.99014  0.10668  1.0000
  N   N8        1.0  0.92944  0.50986  0.60668  1.0000
  N   N9        1.0  0.51773  0.27775  0.95832  1.0000
  N   N10       1.0  0.98227  0.22225  0.45832  1.0000
  N   N11       1.0  0.48227  0.72225  0.04168  1.0000
  N   N12       1.0  0.01773  0.77775  0.54168  1.0000
  N   N13       1.0  0.92723  0.03833  0.62142  1.0000
  N   N14       1.0  0.57278  0.46166  0.12142  1.0000
  N   N15       1.0  0.07277  0.96166  0.37858  1.0000
  N   N16       1.0  0.42722  0.53833  0.87859  1.0000
  Cl  Cl1       1.0  0.90379  0.70633  0.96280  1.0000
  Cl  Cl2       1.0  0.59621  0.79367  0.46280  1.0000
  Cl  Cl3       1.0  0.09621  0.29366  0.03720  1.0000
  Cl  Cl4       1.0  0.40379  0.20633  0.53720  1.0000
