data_image0
_chemical_formula_structural       ZnH34C38N2O6
_chemical_formula_sum              "Zn1 H34 C38 N2 O6"
_cell_length_a       5.58598
_cell_length_b       11.7032
_cell_length_c       12.0965
_cell_angle_alpha    99.9007
_cell_angle_beta     101.496
_cell_angle_gamma    103.572

_space_group_name_H-M_alt    "P 1"
_space_group_IT_number       1

loop_
  _space_group_symop_operation_xyz
  'x, y, z'

loop_
  _atom_site_type_symbol
  _atom_site_label
  _atom_site_symmetry_multiplicity
  _atom_site_fract_x
  _atom_site_fract_y
  _atom_site_fract_z
  _atom_site_occupancy
  Zn  Zn1       1.0  0.00000  0.00000  0.50000  1.0000
  H   H1        1.0  0.32851  0.26282  0.98203  1.0000
  H   H2        1.0  0.67151  0.73719  0.01797  1.0000
  H   H3        1.0  0.37493  0.23834  0.18366  1.0000
  H   H4        1.0  0.62509  0.76167  0.81634  1.0000
  H   H5        1.0  0.69301  0.14055  0.26922  1.0000
  H   H6        1.0  0.30698  0.85944  0.73077  1.0000
  H   H7        1.0  0.96392  0.06516  0.14978  1.0000
  H   H8        1.0  0.03606  0.93483  0.85022  1.0000
  H   H9        1.0  0.91269  0.08647  0.94667  1.0000
  H   H10       1.0  0.08731  0.91351  0.05333  1.0000
  H   H11       1.0  0.73252  0.14596  0.79428  1.0000
  H   H12       1.0  0.26747  0.85403  0.20572  1.0000
  H   H13       1.0  0.05948  0.33632  0.89201  1.0000
  H   H14       1.0  0.94052  0.66369  0.10799  1.0000
  H   H15       1.0  0.20239  0.55428  0.89347  1.0000
  H   H16       1.0  0.79759  0.44573  0.10653  1.0000
  H   H17       1.0  0.89174  0.65976  0.82013  1.0000
  H   H18       1.0  0.10823  0.34024  0.17987  1.0000
  H   H19       1.0  0.42923  0.54539  0.74417  1.0000
  H   H20       1.0  0.57074  0.45460  0.25584  1.0000
  H   H21       1.0  0.28769  0.32895  0.74368  1.0000
  H   H22       1.0  0.71230  0.67105  0.25633  1.0000
  H   H23       1.0  0.29549  0.81092  0.41415  1.0000
  H   H24       1.0  0.70451  0.18908  0.58584  1.0000
  H   H25       1.0  0.29802  0.60159  0.40693  1.0000
  H   H26       1.0  0.70197  0.39841  0.59306  1.0000
  H   H27       1.0  0.70091  0.56980  0.58953  1.0000
  H   H28       1.0  0.29912  0.43021  0.41049  1.0000
  H   H29       1.0  0.71923  0.78245  0.58477  1.0000
  H   H30       1.0  0.28080  0.21756  0.41524  1.0000
  H   H31       1.0  0.88772  0.03647  0.68578  1.0000
  H   H32       1.0  0.11229  0.96352  0.31422  1.0000
  H   H33       1.0  0.59622  0.00892  0.61434  1.0000
  H   H34       1.0  0.40380  0.99108  0.38566  1.0000
  C   C1        1.0  0.46705  0.21887  0.01818  1.0000
  C   C2        1.0  0.53296  0.78113  0.98182  1.0000
  C   C3        1.0  0.49504  0.20601  0.13217  1.0000
  C   C4        1.0  0.50497  0.79399  0.86783  1.0000
  C   C5        1.0  0.67339  0.15091  0.18038  1.0000
  C   C6        1.0  0.32659  0.84909  0.81962  1.0000
  C   C7        1.0  0.82429  0.10841  0.11327  1.0000
  C   C8        1.0  0.17569  0.89158  0.88672  1.0000
  C   C9        1.0  0.79401  0.11961  0.99870  1.0000
  C   C10       1.0  0.20598  0.88038  0.00130  1.0000
  C   C11       1.0  0.61446  0.17423  0.94966  1.0000
  C   C12       1.0  0.38554  0.82576  0.05034  1.0000
  C   C13       1.0  0.59159  0.18556  0.82497  1.0000
  C   C14       1.0  0.40842  0.81443  0.17503  1.0000
  C   C15       1.0  0.66466  0.31772  0.81811  1.0000
  C   C16       1.0  0.33533  0.68228  0.18189  1.0000
  C   C17       1.0  0.92210  0.38255  0.85903  1.0000
  C   C18       1.0  0.07789  0.61746  0.14097  1.0000
  C   C19       1.0  0.00253  0.50454  0.85944  1.0000
  C   C20       1.0  0.99746  0.49546  0.14056  1.0000
  C   C21       1.0  0.82605  0.56402  0.81834  1.0000
  C   C22       1.0  0.17393  0.43598  0.18165  1.0000
  C   C23       1.0  0.56948  0.50004  0.77616  1.0000
  C   C24       1.0  0.43050  0.49995  0.22384  1.0000
  C   C25       1.0  0.48878  0.37742  0.77584  1.0000
  C   C26       1.0  0.51120  0.62258  0.22416  1.0000
  C   C27       1.0  0.33142  0.11799  0.74265  1.0000
  C   C28       1.0  0.66858  0.88201  0.25735  1.0000
  C   C29       1.0  0.16411  0.75493  0.45188  1.0000
  C   C30       1.0  0.83589  0.24508  0.54811  1.0000
  C   C31       1.0  0.16638  0.63581  0.44941  1.0000
  C   C32       1.0  0.83362  0.36419  0.55059  1.0000
  C   C33       1.0  0.00044  0.56346  0.49941  1.0000
  C   C34       1.0  0.99958  0.43655  0.50059  1.0000
  C   C35       1.0  0.83510  0.61830  0.54809  1.0000
  C   C36       1.0  0.16493  0.38171  0.45192  1.0000
  C   C37       1.0  0.84369  0.73777  0.54639  1.0000
  C   C38       1.0  0.15633  0.26224  0.45363  1.0000
  N   N1        1.0  0.00610  0.80677  0.49946  1.0000
  N   N2        1.0  0.99391  0.19323  0.50054  1.0000
  O   O1        1.0  0.33218  0.06328  0.64037  1.0000
  O   O2        1.0  0.66781  0.93672  0.35963  1.0000
  O   O3        1.0  0.13330  0.12213  0.77593  1.0000
  O   O4        1.0  0.86670  0.87786  0.22408  1.0000
  O   O5        1.0  0.75239  0.98194  0.61512  1.0000
  O   O6        1.0  0.24762  0.01806  0.38488  1.0000
