data_image0
_chemical_formula_structural       Zn2H40C52S12N20
_chemical_formula_sum              "Zn2 H40 C52 S12 N20"
_cell_length_a       8.75746
_cell_length_b       8.75914
_cell_length_c       19.2967
_cell_angle_alpha    85.3881
_cell_angle_beta     85.3872
_cell_angle_gamma    80.8409

_space_group_name_H-M_alt    "P 1"
_space_group_IT_number       1

loop_
  _space_group_symop_operation_xyz
  'x, y, z'

loop_
  _atom_site_type_symbol
  _atom_site_label
  _atom_site_symmetry_multiplicity
  _atom_site_fract_x
  _atom_site_fract_y
  _atom_site_fract_z
  _atom_site_occupancy
  Zn  Zn1       1.0  0.74166  0.25834  0.75000  1.0000
  Zn  Zn2       1.0  0.25834  0.74166  0.25000  1.0000
  H   H1        1.0  0.70486  0.01202  0.54031  1.0000
  H   H2        1.0  0.98799  0.29515  0.95969  1.0000
  H   H3        1.0  0.29514  0.98798  0.45969  1.0000
  H   H4        1.0  0.01201  0.70485  0.04031  1.0000
  H   H5        1.0  0.95828  0.37069  0.48601  1.0000
  H   H6        1.0  0.62930  0.04171  0.01399  1.0000
  H   H7        1.0  0.04172  0.62931  0.51399  1.0000
  H   H8        1.0  0.37070  0.95829  0.98601  1.0000
  H   H9        1.0  0.08974  0.20922  0.70875  1.0000
  H   H10       1.0  0.79071  0.91029  0.79125  1.0000
  H   H11       1.0  0.91026  0.79078  0.29125  1.0000
  H   H12       1.0  0.20929  0.08971  0.20875  1.0000
  H   H13       1.0  0.31622  0.99686  0.70610  1.0000
  H   H14       1.0  0.00309  0.68382  0.79390  1.0000
  H   H15       1.0  0.68378  0.00314  0.29390  1.0000
  H   H16       1.0  0.99691  0.31618  0.20610  1.0000
  H   H17       1.0  0.48748  0.83124  0.76299  1.0000
  H   H18       1.0  0.16870  0.51257  0.73701  1.0000
  H   H19       1.0  0.51252  0.16876  0.23701  1.0000
  H   H20       1.0  0.83129  0.48743  0.26299  1.0000
  H   H21       1.0  0.70110  0.60581  0.75734  1.0000
  H   H22       1.0  0.39415  0.29897  0.74267  1.0000
  H   H23       1.0  0.29890  0.39419  0.24267  1.0000
  H   H24       1.0  0.60585  0.70103  0.25733  1.0000
  H   H25       1.0  0.83202  0.75520  0.92764  1.0000
  H   H26       1.0  0.24481  0.16800  0.57237  1.0000
  H   H27       1.0  0.16798  0.24480  0.07236  1.0000
  H   H28       1.0  0.75519  0.83200  0.42763  1.0000
  H   H29       1.0  0.58711  0.66528  0.90539  1.0000
  H   H30       1.0  0.33472  0.41288  0.59461  1.0000
  H   H31       1.0  0.41289  0.33472  0.09461  1.0000
  H   H32       1.0  0.66528  0.58712  0.40539  1.0000
  H   H33       1.0  0.60413  0.41881  0.10921  1.0000
  H   H34       1.0  0.58119  0.39588  0.39078  1.0000
  H   H35       1.0  0.39587  0.58119  0.89079  1.0000
  H   H36       1.0  0.41881  0.60412  0.60922  1.0000
  H   H37       1.0  0.84702  0.52129  0.12170  1.0000
  H   H38       1.0  0.47872  0.15303  0.37830  1.0000
  H   H39       1.0  0.15298  0.47871  0.87830  1.0000
  H   H40       1.0  0.52128  0.84697  0.62170  1.0000
  C   C1        1.0  0.72195  0.16275  0.61904  1.0000
  C   C2        1.0  0.83724  0.27804  0.88096  1.0000
  C   C3        1.0  0.27805  0.83725  0.38096  1.0000
  C   C4        1.0  0.16276  0.72196  0.11904  1.0000
  C   C5        1.0  0.87809  0.35734  0.59116  1.0000
  C   C6        1.0  0.64265  0.12190  0.90884  1.0000
  C   C7        1.0  0.12191  0.64266  0.40884  1.0000
  C   C8        1.0  0.35735  0.87810  0.09116  1.0000
  C   C9        1.0  0.84216  0.18290  0.50350  1.0000
  C   C10       1.0  0.81710  0.15785  0.99650  1.0000
  C   C11       1.0  0.15784  0.81710  0.49650  1.0000
  C   C12       1.0  0.18290  0.84215  0.00350  1.0000
  C   C13       1.0  0.07694  0.09051  0.72718  1.0000
  C   C14       1.0  0.90945  0.92307  0.77283  1.0000
  C   C15       1.0  0.92307  0.90949  0.27282  1.0000
  C   C16       1.0  0.09056  0.07693  0.22717  1.0000
  C   C17       1.0  0.20243  0.97187  0.72650  1.0000
  C   C18       1.0  0.02809  0.79759  0.77349  1.0000
  C   C19       1.0  0.79757  0.02813  0.27350  1.0000
  C   C20       1.0  0.97191  0.20241  0.22651  1.0000
  C   C21       1.0  0.17888  0.82111  0.75000  1.0000
  C   C22       1.0  0.82112  0.17889  0.25000  1.0000
  C   C23       1.0  0.30844  0.69156  0.75000  1.0000
  C   C24       1.0  0.69156  0.30844  0.25000  1.0000
  C   C25       1.0  0.46118  0.71609  0.75620  1.0000
  C   C26       1.0  0.28389  0.53886  0.74380  1.0000
  C   C27       1.0  0.53882  0.28391  0.24380  1.0000
  C   C28       1.0  0.71611  0.46114  0.25621  1.0000
  C   C29       1.0  0.58053  0.59109  0.75452  1.0000
  C   C30       1.0  0.40889  0.41952  0.74548  1.0000
  C   C31       1.0  0.41947  0.40891  0.24548  1.0000
  C   C32       1.0  0.59111  0.58048  0.25452  1.0000
  C   C33       1.0  0.77653  0.67994  0.96630  1.0000
  C   C34       1.0  0.32006  0.22349  0.53371  1.0000
  C   C35       1.0  0.22347  0.32006  0.03370  1.0000
  C   C36       1.0  0.67994  0.77651  0.46629  1.0000
  C   C37       1.0  0.63952  0.62812  0.95437  1.0000
  C   C38       1.0  0.37188  0.36048  0.54564  1.0000
  C   C39       1.0  0.36048  0.37188  0.04563  1.0000
  C   C40       1.0  0.62812  0.63952  0.45436  1.0000
  C   C41       1.0  0.57194  0.53059  0.00531  1.0000
  C   C42       1.0  0.46940  0.42807  0.49469  1.0000
  C   C43       1.0  0.42806  0.46940  0.99469  1.0000
  C   C44       1.0  0.53060  0.57193  0.50531  1.0000
  C   C45       1.0  0.64812  0.49342  0.06706  1.0000
  C   C46       1.0  0.50658  0.35190  0.43294  1.0000
  C   C47       1.0  0.35188  0.50658  0.93294  1.0000
  C   C48       1.0  0.49342  0.64810  0.56706  1.0000
  C   C49       1.0  0.78500  0.54970  0.07450  1.0000
  C   C50       1.0  0.45031  0.21503  0.42551  1.0000
  C   C51       1.0  0.21500  0.45030  0.92551  1.0000
  C   C52       1.0  0.54969  0.78497  0.57449  1.0000
  S   S1        1.0  0.60631  0.08066  0.68098  1.0000
  S   S2        1.0  0.91937  0.39364  0.81901  1.0000
  S   S3        1.0  0.39369  0.91934  0.31902  1.0000
  S   S4        1.0  0.08063  0.60636  0.18099  1.0000
  S   S5        1.0  0.95869  0.50700  0.61243  1.0000
  S   S6        1.0  0.49297  0.04129  0.88756  1.0000
  S   S7        1.0  0.04131  0.49300  0.38757  1.0000
  S   S8        1.0  0.50703  0.95871  0.11244  1.0000
  S   S9        1.0  0.88284  0.12188  0.42413  1.0000
  S   S10       1.0  0.87812  0.11719  0.07587  1.0000
  S   S11       1.0  0.11716  0.87812  0.57587  1.0000
  S   S12       1.0  0.12188  0.88281  0.92413  1.0000
  N   N1        1.0  0.79009  0.27960  0.63825  1.0000
  N   N2        1.0  0.72038  0.20990  0.86175  1.0000
  N   N3        1.0  0.20991  0.72040  0.36175  1.0000
  N   N4        1.0  0.27962  0.79010  0.13825  1.0000
  N   N5        1.0  0.74887  0.11422  0.55317  1.0000
  N   N6        1.0  0.88578  0.25113  0.94683  1.0000
  N   N7        1.0  0.25113  0.88578  0.44683  1.0000
  N   N8        1.0  0.11422  0.74887  0.05317  1.0000
  N   N9        1.0  0.89784  0.30869  0.52434  1.0000
  N   N10       1.0  0.69131  0.10215  0.97565  1.0000
  N   N11       1.0  0.10216  0.69131  0.47566  1.0000
  N   N12       1.0  0.30869  0.89785  0.02435  1.0000
  N   N13       1.0  0.93302  0.06696  0.75000  1.0000
  N   N14       1.0  0.06698  0.93304  0.25000  1.0000
  N   N15       1.0  0.55516  0.44486  0.75000  1.0000
  N   N16       1.0  0.44484  0.55514  0.25000  1.0000
  N   N17       1.0  0.84960  0.64100  0.02521  1.0000
  N   N18       1.0  0.35901  0.15044  0.47479  1.0000
  N   N19       1.0  0.15040  0.35900  0.97479  1.0000
  N   N20       1.0  0.64099  0.84956  0.52521  1.0000
