data_image0
_chemical_formula_structural       Sn4H56C40O8
_chemical_formula_sum              "Sn4 H56 C40 O8"
_cell_length_a       6.18815
_cell_length_b       10.0895
_cell_length_c       17.649
_cell_angle_alpha    90
_cell_angle_beta     98.7981
_cell_angle_gamma    90

_space_group_name_H-M_alt    "P 1"
_space_group_IT_number       1

loop_
  _space_group_symop_operation_xyz
  'x, y, z'

loop_
  _atom_site_type_symbol
  _atom_site_label
  _atom_site_symmetry_multiplicity
  _atom_site_fract_x
  _atom_site_fract_y
  _atom_site_fract_z
  _atom_site_occupancy
  Sn  Sn1       1.0  0.56780  0.67402  0.22832  1.0000
  Sn  Sn2       1.0  0.43231  0.17405  0.27168  1.0000
  Sn  Sn3       1.0  0.43217  0.32594  0.77165  1.0000
  Sn  Sn4       1.0  0.56767  0.82597  0.72833  1.0000
  H   H1        1.0  0.56156  0.89129  0.13819  1.0000
  H   H2        1.0  0.43849  0.39134  0.36182  1.0000
  H   H3        1.0  0.43842  0.10871  0.86179  1.0000
  H   H4        1.0  0.56149  0.60868  0.63817  1.0000
  H   H5        1.0  0.77806  0.78321  0.12166  1.0000
  H   H6        1.0  0.22203  0.28319  0.37834  1.0000
  H   H7        1.0  0.22195  0.21681  0.87833  1.0000
  H   H8        1.0  0.77797  0.71680  0.62166  1.0000
  H   H9        1.0  0.81056  0.89016  0.20426  1.0000
  H   H10       1.0  0.18949  0.39015  0.29574  1.0000
  H   H11       1.0  0.18941  0.10984  0.79573  1.0000
  H   H12       1.0  0.81047  0.60983  0.70424  1.0000
  H   H13       1.0  0.68021  0.52692  0.35771  1.0000
  H   H14       1.0  0.31989  0.02693  0.14230  1.0000
  H   H15       1.0  0.31975  0.47312  0.64229  1.0000
  H   H16       1.0  0.68010  0.97309  0.85769  1.0000
  H   H17       1.0  0.88417  0.65073  0.35279  1.0000
  H   H18       1.0  0.11594  0.15076  0.14723  1.0000
  H   H19       1.0  0.11576  0.34933  0.64721  1.0000
  H   H20       1.0  0.88406  0.84926  0.85278  1.0000
  H   H21       1.0  0.87659  0.50401  0.29501  1.0000
  H   H22       1.0  0.12352  0.00403  0.20503  1.0000
  H   H23       1.0  0.12342  0.49604  0.70502  1.0000
  H   H24       1.0  0.87647  0.99597  0.79497  1.0000
  H   H25       1.0  0.17696  0.55301  0.18811  1.0000
  H   H26       1.0  0.82315  0.05305  0.31189  1.0000
  H   H27       1.0  0.82301  0.44698  0.81188  1.0000
  H   H28       1.0  0.17687  0.94696  0.68812  1.0000
  H   H29       1.0  0.14154  0.72906  0.17883  1.0000
  H   H30       1.0  0.85860  0.22905  0.32117  1.0000
  H   H31       1.0  0.85845  0.27094  0.82117  1.0000
  H   H32       1.0  0.14139  0.77097  0.67883  1.0000
  H   H33       1.0  0.16969  0.65336  0.27149  1.0000
  H   H34       1.0  0.83048  0.15338  0.22852  1.0000
  H   H35       1.0  0.83034  0.34663  0.72850  1.0000
  H   H36       1.0  0.16954  0.84662  0.77149  1.0000
  H   H37       1.0  0.48341  0.16890  0.08248  1.0000
  H   H38       1.0  0.51664  0.66891  0.41753  1.0000
  H   H39       1.0  0.51669  0.83105  0.91751  1.0000
  H   H40       1.0  0.48329  0.33108  0.58246  1.0000
  H   H41       1.0  0.66818  0.03032  0.99369  1.0000
  H   H42       1.0  0.33180  0.53034  0.50631  1.0000
  H   H43       1.0  0.33190  0.96965  0.00630  1.0000
  H   H44       1.0  0.66813  0.46965  0.49368  1.0000
  H   H45       1.0  0.00101  0.11348  0.94735  1.0000
  H   H46       1.0  0.99897  0.61351  0.55263  1.0000
  H   H47       1.0  0.99906  0.88652  0.05263  1.0000
  H   H48       1.0  0.00098  0.38650  0.44738  1.0000
  H   H49       1.0  0.15630  0.33381  0.99120  1.0000
  H   H50       1.0  0.84379  0.83386  0.50880  1.0000
  H   H51       1.0  0.84380  0.66619  0.00880  1.0000
  H   H52       1.0  0.15619  0.16616  0.49121  1.0000
  H   H53       1.0  0.97117  0.47041  0.07981  1.0000
  H   H54       1.0  0.02895  0.97047  0.42022  1.0000
  H   H55       1.0  0.02888  0.52955  0.92021  1.0000
  H   H56       1.0  0.97103  0.02954  0.57979  1.0000
  C   C1        1.0  0.69618  0.82929  0.16562  1.0000
  C   C2        1.0  0.30389  0.32932  0.33439  1.0000
  C   C3        1.0  0.30380  0.17070  0.83438  1.0000
  C   C4        1.0  0.69607  0.67070  0.66561  1.0000
  C   C5        1.0  0.77790  0.57754  0.31986  1.0000
  C   C6        1.0  0.22218  0.07755  0.18015  1.0000
  C   C7        1.0  0.22207  0.42251  0.68015  1.0000
  C   C8        1.0  0.77781  0.92246  0.81985  1.0000
  C   C9        1.0  0.22061  0.64914  0.21483  1.0000
  C   C10       1.0  0.77944  0.14917  0.28518  1.0000
  C   C11       1.0  0.77938  0.35084  0.78516  1.0000
  C   C12       1.0  0.22054  0.85084  0.71483  1.0000
  C   C13       1.0  0.60651  0.41000  0.14050  1.0000
  C   C14       1.0  0.39359  0.91003  0.35952  1.0000
  C   C15       1.0  0.39353  0.58997  0.85950  1.0000
  C   C16       1.0  0.60636  0.08997  0.64048  1.0000
  C   C17       1.0  0.71624  0.32766  0.08672  1.0000
  C   C18       1.0  0.28387  0.82771  0.41330  1.0000
  C   C19       1.0  0.28383  0.67231  0.91328  1.0000
  C   C20       1.0  0.71609  0.17230  0.58670  1.0000
  C   C21       1.0  0.63134  0.20342  0.06235  1.0000
  C   C22       1.0  0.36870  0.70345  0.43766  1.0000
  C   C23       1.0  0.36874  0.79655  0.93766  1.0000
  C   C24       1.0  0.63122  0.29654  0.56233  1.0000
  C   C25       1.0  0.73352  0.12730  0.01225  1.0000
  C   C26       1.0  0.26649  0.62732  0.48774  1.0000
  C   C27       1.0  0.26656  0.87267  0.98775  1.0000
  C   C28       1.0  0.73346  0.37268  0.51225  1.0000
  C   C29       1.0  0.92170  0.17401  0.98628  1.0000
  C   C30       1.0  0.07831  0.67403  0.51371  1.0000
  C   C31       1.0  0.07838  0.82599  0.01371  1.0000
  C   C32       1.0  0.92163  0.32598  0.48629  1.0000
  C   C33       1.0  0.00819  0.29741  0.01076  1.0000
  C   C34       1.0  0.99189  0.79746  0.48924  1.0000
  C   C35       1.0  0.99190  0.70258  0.98925  1.0000
  C   C36       1.0  0.00808  0.20255  0.51076  1.0000
  C   C37       1.0  0.90524  0.37413  0.06045  1.0000
  C   C38       1.0  0.09486  0.87420  0.43957  1.0000
  C   C39       1.0  0.09482  0.62583  0.93956  1.0000
  C   C40       1.0  0.90510  0.12581  0.56043  1.0000
  O   O1        1.0  0.64912  0.53529  0.13999  1.0000
  O   O2        1.0  0.35110  0.03533  0.36003  1.0000
  O   O3        1.0  0.35099  0.46467  0.86003  1.0000
  O   O4        1.0  0.64890  0.96468  0.63997  1.0000
  O   O5        1.0  0.48194  0.35811  0.18252  1.0000
  O   O6        1.0  0.51813  0.85810  0.31749  1.0000
  O   O7        1.0  0.51806  0.64188  0.81747  1.0000
  O   O8        1.0  0.48179  0.14189  0.68249  1.0000
