data_image0
_chemical_formula_structural       Ag4H52C56S8N8
_chemical_formula_sum              "Ag4 H52 C56 S8 N8"
_cell_length_a       5.79432
_cell_length_b       15.8507
_cell_length_c       15.5907
_cell_angle_alpha    88.2027
_cell_angle_beta     79.2908
_cell_angle_gamma    80.2828

_space_group_name_H-M_alt    "P 1"
_space_group_IT_number       1

loop_
  _space_group_symop_operation_xyz
  'x, y, z'

loop_
  _atom_site_type_symbol
  _atom_site_label
  _atom_site_symmetry_multiplicity
  _atom_site_fract_x
  _atom_site_fract_y
  _atom_site_fract_z
  _atom_site_occupancy
  Ag  Ag1       1.0  0.77358  0.97013  0.91262  1.0000
  Ag  Ag2       1.0  0.65013  0.03106  0.08878  1.0000
  Ag  Ag3       1.0  0.26643  0.08561  0.96842  1.0000
  Ag  Ag4       1.0  0.31067  0.91312  0.03298  1.0000
  H   H1        1.0  0.13903  0.63091  0.13742  1.0000
  H   H2        1.0  0.93420  0.36867  0.85954  1.0000
  H   H3        1.0  0.22593  0.85837  0.62677  1.0000
  H   H4        1.0  0.70543  0.14077  0.37112  1.0000
  H   H5        1.0  0.10359  0.74137  0.16253  1.0000
  H   H6        1.0  0.02312  0.25786  0.83572  1.0000
  H   H7        1.0  0.15251  0.83576  0.73973  1.0000
  H   H8        1.0  0.72890  0.16225  0.25778  1.0000
  H   H9        1.0  0.08213  0.59224  0.29109  1.0000
  H   H10       1.0  0.98736  0.40703  0.70618  1.0000
  H   H11       1.0  0.31431  0.70683  0.59176  1.0000
  H   H12       1.0  0.61831  0.29101  0.40802  1.0000
  H   H13       1.0  0.79471  0.57496  0.42831  1.0000
  H   H14       1.0  0.81592  0.42332  0.57011  1.0000
  H   H15       1.0  0.61120  0.57209  0.57795  1.0000
  H   H16       1.0  0.77340  0.42624  0.42294  1.0000
  H   H17       1.0  0.37126  0.64790  0.44432  1.0000
  H   H18       1.0  0.47710  0.34891  0.55610  1.0000
  H   H19       1.0  0.96257  0.55915  0.65210  1.0000
  H   H20       1.0  0.18527  0.44110  0.34827  1.0000
  H   H21       1.0  0.24244  0.74076  0.32447  1.0000
  H   H22       1.0  0.31980  0.25605  0.67692  1.0000
  H   H23       1.0  0.00872  0.67996  0.74208  1.0000
  H   H24       1.0  0.43417  0.32169  0.25658  1.0000
  H   H25       1.0  0.53081  0.76054  0.19011  1.0000
  H   H26       1.0  0.49662  0.23760  0.81029  1.0000
  H   H27       1.0  0.70775  0.81200  0.75859  1.0000
  H   H28       1.0  0.27523  0.18930  0.23897  1.0000
  H   H29       1.0  0.65627  0.66607  0.01285  1.0000
  H   H30       1.0  0.35190  0.33416  0.97907  1.0000
  H   H31       1.0  0.68049  0.98101  0.66007  1.0000
  H   H32       1.0  0.31154  0.02328  0.34214  1.0000
  H   H33       1.0  0.80255  0.59285  0.08131  1.0000
  H   H34       1.0  0.50711  0.40716  0.91366  1.0000
  H   H35       1.0  0.58818  0.91767  0.58555  1.0000
  H   H36       1.0  0.07799  0.08449  0.41512  1.0000
  H   H37       1.0  0.80115  0.51006  0.93425  1.0000
  H   H38       1.0  0.24656  0.48633  0.05952  1.0000
  H   H39       1.0  0.69161  0.06579  0.50841  1.0000
  H   H40       1.0  0.26831  0.93621  0.48917  1.0000
  H   H41       1.0  0.42840  0.49703  0.75393  1.0000
  H   H42       1.0  0.64282  0.50711  0.25085  1.0000
  H   H43       1.0  0.09174  0.24718  0.49914  1.0000
  H   H44       1.0  0.84159  0.74963  0.50330  1.0000
  H   H45       1.0  0.53247  0.62442  0.81954  1.0000
  H   H46       1.0  0.95488  0.38517  0.18775  1.0000
  H   H47       1.0  0.85473  0.17901  0.62479  1.0000
  H   H48       1.0  0.65020  0.81655  0.38101  1.0000
  H   H49       1.0  0.25648  0.69565  0.94958  1.0000
  H   H50       1.0  0.90658  0.31192  0.05338  1.0000
  H   H51       1.0  0.04888  0.04716  0.69298  1.0000
  H   H52       1.0  0.77459  0.95059  0.31180  1.0000
  C   C1        1.0  0.83912  0.79641  0.05109  1.0000
  C   C2        1.0  0.70058  0.20441  0.94933  1.0000
  C   C3        1.0  0.35949  0.94851  0.79420  1.0000
  C   C4        1.0  0.10050  0.05061  0.20626  1.0000
  C   C5        1.0  0.00735  0.68980  0.15133  1.0000
  C   C6        1.0  0.86895  0.30977  0.84689  1.0000
  C   C7        1.0  0.29938  0.84661  0.68707  1.0000
  C   C8        1.0  0.83025  0.15239  0.31130  1.0000
  C   C9        1.0  0.82597  0.67757  0.23205  1.0000
  C   C10       1.0  0.75413  0.32133  0.76683  1.0000
  C   C11       1.0  0.49051  0.76788  0.67625  1.0000
  C   C12       1.0  0.93520  0.23166  0.32240  1.0000
  C   C13       1.0  0.89815  0.62527  0.29960  1.0000
  C   C14       1.0  0.84219  0.37367  0.69874  1.0000
  C   C15       1.0  0.46609  0.69990  0.62512  1.0000
  C   C16       1.0  0.79609  0.29882  0.37440  1.0000
  C   C17       1.0  0.73560  0.61494  0.37575  1.0000
  C   C18       1.0  0.74354  0.38335  0.62316  1.0000
  C   C19       1.0  0.63456  0.62512  0.61665  1.0000
  C   C20       1.0  0.88519  0.37390  0.38348  1.0000
  C   C21       1.0  0.49872  0.65575  0.38486  1.0000
  C   C22       1.0  0.55424  0.34172  0.61513  1.0000
  C   C23       1.0  0.83130  0.61771  0.65810  1.0000
  C   C24       1.0  0.11544  0.38238  0.34173  1.0000
  C   C25       1.0  0.42599  0.70783  0.31753  1.0000
  C   C26       1.0  0.46553  0.28959  0.68299  1.0000
  C   C27       1.0  0.85732  0.68551  0.70872  1.0000
  C   C28       1.0  0.25538  0.31535  0.29017  1.0000
  C   C29       1.0  0.58901  0.71884  0.24168  1.0000
  C   C30       1.0  0.56540  0.27933  0.75828  1.0000
  C   C31       1.0  0.68742  0.76003  0.71789  1.0000
  C   C32       1.0  0.16537  0.24060  0.28037  1.0000
  C   C33       1.0  0.82932  0.64343  0.03228  1.0000
  C   C34       1.0  0.52402  0.35701  0.96363  1.0000
  C   C35       1.0  0.52287  0.96486  0.63849  1.0000
  C   C36       1.0  0.11666  0.03667  0.36253  1.0000
  C   C37       1.0  0.00773  0.60704  0.95335  1.0000
  C   C38       1.0  0.57291  0.39460  0.04504  1.0000
  C   C39       1.0  0.38635  0.04494  0.60450  1.0000
  C   C40       1.0  0.02932  0.95511  0.39675  1.0000
  C   C41       1.0  0.96384  0.53660  0.91046  1.0000
  C   C42       1.0  0.40714  0.46265  0.08638  1.0000
  C   C43       1.0  0.50412  0.08923  0.53529  1.0000
  C   C44       1.0  0.12858  0.91131  0.46420  1.0000
  C   C45       1.0  0.31065  0.52956  0.81041  1.0000
  C   C46       1.0  0.62609  0.47406  0.19244  1.0000
  C   C47       1.0  0.17240  0.18987  0.53034  1.0000
  C   C48       1.0  0.89308  0.80784  0.47176  1.0000
  C   C49       1.0  0.36966  0.60022  0.84751  1.0000
  C   C50       1.0  0.80118  0.40633  0.15682  1.0000
  C   C51       1.0  0.03954  0.15136  0.59998  1.0000
  C   C52       1.0  0.78502  0.84567  0.40393  1.0000
  C   C53       1.0  0.21563  0.63970  0.92005  1.0000
  C   C54       1.0  0.77404  0.36578  0.08194  1.0000
  C   C55       1.0  0.14824  0.07778  0.63776  1.0000
  C   C56       1.0  0.85432  0.92048  0.36569  1.0000
  S   S1        1.0  0.69387  0.81660  0.96375  1.0000
  S   S2        1.0  0.48526  0.18546  0.03662  1.0000
  S   S3        1.0  0.48659  0.03537  0.81320  1.0000
  S   S4        1.0  0.33036  0.96478  0.18909  1.0000
  S   S5        1.0  0.90633  0.87536  0.11010  1.0000
  S   S6        1.0  0.90179  0.12502  0.89169  1.0000
  S   S7        1.0  0.20833  0.89244  0.87519  1.0000
  S   S8        1.0  0.98325  0.10582  0.12374  1.0000
  N   N1        1.0  0.89791  0.71348  0.07487  1.0000
  N   N2        1.0  0.70598  0.28709  0.92417  1.0000
  N   N3        1.0  0.38535  0.92293  0.71007  1.0000
  N   N4        1.0  0.01206  0.07636  0.28995  1.0000
  N   N5        1.0  0.10956  0.49792  0.84085  1.0000
  N   N6        1.0  0.43023  0.50222  0.15819  1.0000
  N   N7        1.0  0.40269  0.15977  0.49825  1.0000
  N   N8        1.0  0.06421  0.83963  0.50167  1.0000
