data_image0
_chemical_formula_structural       Ag4H48C52S8N12
_chemical_formula_sum              "Ag4 H48 C52 S8 N12"
_cell_length_a       5.78021
_cell_length_b       15.9095
_cell_length_c       15.5669
_cell_angle_alpha    88.197
_cell_angle_beta     79.3005
_cell_angle_gamma    80.2431

_space_group_name_H-M_alt    "P 1"
_space_group_IT_number       1

loop_
  _space_group_symop_operation_xyz
  'x, y, z'

loop_
  _atom_site_type_symbol
  _atom_site_label
  _atom_site_symmetry_multiplicity
  _atom_site_fract_x
  _atom_site_fract_y
  _atom_site_fract_z
  _atom_site_occupancy
  Ag  Ag1       1.0  0.77586  0.96965  0.91277  1.0000
  Ag  Ag2       1.0  0.65247  0.03189  0.08882  1.0000
  Ag  Ag3       1.0  0.26652  0.08543  0.96746  1.0000
  Ag  Ag4       1.0  0.31012  0.91361  0.03323  1.0000
  H   H1        1.0  0.11142  0.74215  0.16055  1.0000
  H   H2        1.0  0.03063  0.25637  0.83839  1.0000
  H   H3        1.0  0.14316  0.83905  0.74134  1.0000
  H   H4        1.0  0.72524  0.15974  0.25606  1.0000
  H   H5        1.0  0.15133  0.63230  0.13336  1.0000
  H   H6        1.0  0.94587  0.36660  0.86448  1.0000
  H   H7        1.0  0.20974  0.86325  0.62824  1.0000
  H   H8        1.0  0.69693  0.13664  0.36953  1.0000
  H   H9        1.0  0.10493  0.58750  0.28504  1.0000
  H   H10       1.0  0.99972  0.41265  0.71400  1.0000
  H   H11       1.0  0.28905  0.71484  0.58681  1.0000
  H   H12       1.0  0.60140  0.28420  0.41300  1.0000
  H   H13       1.0  0.44070  0.62742  0.44602  1.0000
  H   H14       1.0  0.52858  0.37225  0.55527  1.0000
  H   H15       1.0  0.90689  0.55806  0.62822  1.0000
  H   H16       1.0  0.11685  0.44010  0.37047  1.0000
  H   H17       1.0  0.26513  0.72565  0.33596  1.0000
  H   H18       1.0  0.34159  0.27230  0.66519  1.0000
  H   H19       1.0  0.99686  0.66746  0.72526  1.0000
  H   H20       1.0  0.40105  0.33142  0.27122  1.0000
  H   H21       1.0  0.53143  0.75608  0.19606  1.0000
  H   H22       1.0  0.50182  0.24165  0.80398  1.0000
  H   H23       1.0  0.71007  0.80504  0.75427  1.0000
  H   H24       1.0  0.26875  0.19459  0.24205  1.0000
  H   H25       1.0  0.65965  0.66657  0.01199  1.0000
  H   H26       1.0  0.35478  0.33420  0.97961  1.0000
  H   H27       1.0  0.67837  0.98099  0.65909  1.0000
  H   H28       1.0  0.30950  0.02223  0.34220  1.0000
  H   H29       1.0  0.80506  0.59409  0.08137  1.0000
  H   H30       1.0  0.51336  0.40626  0.91427  1.0000
  H   H31       1.0  0.58295  0.91809  0.58512  1.0000
  H   H32       1.0  0.07494  0.08357  0.41494  1.0000
  H   H33       1.0  0.81027  0.50858  0.93653  1.0000
  H   H34       1.0  0.25362  0.48736  0.05865  1.0000
  H   H35       1.0  0.68671  0.06436  0.50728  1.0000
  H   H36       1.0  0.25854  0.93697  0.49074  1.0000
  H   H37       1.0  0.42922  0.49989  0.75110  1.0000
  H   H38       1.0  0.63985  0.50346  0.25502  1.0000
  H   H39       1.0  0.09205  0.24977  0.50244  1.0000
  H   H40       1.0  0.84295  0.74768  0.49904  1.0000
  H   H41       1.0  0.53551  0.62571  0.81785  1.0000
  H   H42       1.0  0.95435  0.38292  0.19115  1.0000
  H   H43       1.0  0.85214  0.18058  0.62638  1.0000
  H   H44       1.0  0.65002  0.81590  0.37745  1.0000
  H   H45       1.0  0.25957  0.69675  0.94820  1.0000
  H   H46       1.0  0.90828  0.31036  0.05606  1.0000
  H   H47       1.0  0.04392  0.04807  0.69373  1.0000
  H   H48       1.0  0.77352  0.95005  0.30946  1.0000
  C   C1        1.0  0.83987  0.79682  0.05119  1.0000
  C   C2        1.0  0.70080  0.20390  0.94944  1.0000
  C   C3        1.0  0.36029  0.94842  0.79448  1.0000
  C   C4        1.0  0.10148  0.05088  0.20545  1.0000
  C   C5        1.0  0.01707  0.69015  0.14931  1.0000
  C   C6        1.0  0.87838  0.30905  0.84962  1.0000
  C   C7        1.0  0.28808  0.84938  0.68742  1.0000
  C   C8        1.0  0.82336  0.15000  0.31069  1.0000
  C   C9        1.0  0.84138  0.67488  0.23063  1.0000
  C   C10       1.0  0.76715  0.32423  0.76888  1.0000
  C   C11       1.0  0.47480  0.76991  0.67308  1.0000
  C   C12       1.0  0.92179  0.22946  0.32496  1.0000
  C   C13       1.0  0.91976  0.62050  0.29582  1.0000
  C   C14       1.0  0.85621  0.37934  0.70378  1.0000
  C   C15       1.0  0.44317  0.70498  0.61969  1.0000
  C   C16       1.0  0.77863  0.29401  0.37947  1.0000
  C   C17       1.0  0.54996  0.64205  0.38402  1.0000
  C   C18       1.0  0.59216  0.35739  0.61673  1.0000
  C   C19       1.0  0.78767  0.61903  0.64213  1.0000
  C   C20       1.0  0.06641  0.37954  0.35634  1.0000
  C   C21       1.0  0.45302  0.69653  0.32270  1.0000
  C   C22       1.0  0.48862  0.30200  0.67799  1.0000
  C   C23       1.0  0.83716  0.68006  0.69588  1.0000
  C   C24       1.0  0.22416  0.31894  0.30131  1.0000
  C   C25       1.0  0.60141  0.71336  0.24487  1.0000
  C   C26       1.0  0.57784  0.28509  0.75524  1.0000
  C   C27       1.0  0.67762  0.75663  0.71183  1.0000
  C   C28       1.0  0.15029  0.24278  0.28523  1.0000
  C   C29       1.0  0.83268  0.64412  0.03189  1.0000
  C   C30       1.0  0.52811  0.35642  0.96455  1.0000
  C   C31       1.0  0.51915  0.96513  0.63821  1.0000
  C   C32       1.0  0.11398  0.03596  0.36219  1.0000
  C   C33       1.0  0.01251  0.60740  0.95330  1.0000
  C   C34       1.0  0.57642  0.39389  0.04621  1.0000
  C   C35       1.0  0.38205  0.04503  0.60461  1.0000
  C   C36       1.0  0.02511  0.95488  0.39602  1.0000
  C   C37       1.0  0.97084  0.53615  0.91140  1.0000
  C   C38       1.0  0.41192  0.46261  0.08678  1.0000
  C   C39       1.0  0.49993  0.08881  0.53501  1.0000
  C   C40       1.0  0.12162  0.91149  0.46436  1.0000
  C   C41       1.0  0.31431  0.53089  0.80909  1.0000
  C   C42       1.0  0.62630  0.47206  0.19519  1.0000
  C   C43       1.0  0.17051  0.19124  0.53207  1.0000
  C   C44       1.0  0.89101  0.80689  0.46919  1.0000
  C   C45       1.0  0.37313  0.60133  0.84625  1.0000
  C   C46       1.0  0.80148  0.40440  0.15963  1.0000
  C   C47       1.0  0.03681  0.15252  0.60133  1.0000
  C   C48       1.0  0.78349  0.84508  0.40123  1.0000
  C   C49       1.0  0.21940  0.64055  0.91917  1.0000
  C   C50       1.0  0.77588  0.36441  0.08416  1.0000
  C   C51       1.0  0.14419  0.07843  0.63847  1.0000
  C   C52       1.0  0.85200  0.92008  0.36378  1.0000
  S   S1        1.0  0.69373  0.81709  0.96388  1.0000
  S   S2        1.0  0.48332  0.18515  0.03617  1.0000
  S   S3        1.0  0.48909  0.03466  0.81318  1.0000
  S   S4        1.0  0.33251  0.96559  0.18817  1.0000
  S   S5        1.0  0.90584  0.87537  0.11088  1.0000
  S   S6        1.0  0.90057  0.12463  0.89096  1.0000
  S   S7        1.0  0.21090  0.89216  0.87576  1.0000
  S   S8        1.0  0.98520  0.10657  0.12290  1.0000
  N   N1        1.0  0.90078  0.71415  0.07436  1.0000
  N   N2        1.0  0.70968  0.28632  0.92535  1.0000
  N   N3        1.0  0.38264  0.92351  0.71028  1.0000
  N   N4        1.0  0.01072  0.07573  0.28928  1.0000
  N   N5        1.0  0.78012  0.60448  0.37123  1.0000
  N   N6        1.0  0.77369  0.39562  0.62901  1.0000
  N   N7        1.0  0.59309  0.63085  0.60464  1.0000
  N   N8        1.0  0.84623  0.36773  0.39484  1.0000
  N   N9        1.0  0.11560  0.49816  0.84112  1.0000
  N   N10       1.0  0.43325  0.50142  0.15933  1.0000
  N   N11       1.0  0.39993  0.15997  0.49887  1.0000
  N   N12       1.0  0.05850  0.83948  0.50077  1.0000
