data_image0
_chemical_formula_structural       Sr2Ag2H8C12N6O16
_chemical_formula_sum              "Sr2 Ag2 H8 C12 N6 O16"
_cell_length_a       6.93323
_cell_length_b       7.21496
_cell_length_c       11.2115
_cell_angle_alpha    79.251
_cell_angle_beta     89.2364
_cell_angle_gamma    74.7543

_space_group_name_H-M_alt    "P 1"
_space_group_IT_number       1

loop_
  _space_group_symop_operation_xyz
  'x, y, z'

loop_
  _atom_site_type_symbol
  _atom_site_label
  _atom_site_symmetry_multiplicity
  _atom_site_fract_x
  _atom_site_fract_y
  _atom_site_fract_z
  _atom_site_occupancy
  Sr  Sr1       1.0  0.70334  0.15657  0.06466  1.0000
  Sr  Sr2       1.0  0.29667  0.84342  0.93534  1.0000
  Ag  Ag1       1.0  0.24859  0.70930  0.37500  1.0000
  Ag  Ag2       1.0  0.75141  0.29070  0.62500  1.0000
  H   H1        1.0  0.18529  0.34003  0.56017  1.0000
  H   H2        1.0  0.81472  0.65996  0.43983  1.0000
  H   H3        1.0  0.20545  0.99002  0.55965  1.0000
  H   H4        1.0  0.79454  0.00998  0.44035  1.0000
  H   H5        1.0  0.96864  0.76628  0.18939  1.0000
  H   H6        1.0  0.03136  0.23372  0.81061  1.0000
  H   H7        1.0  0.75843  0.73056  0.20767  1.0000
  H   H8        1.0  0.24157  0.26945  0.79233  1.0000
  C   C1        1.0  0.24381  0.06887  0.14953  1.0000
  C   C2        1.0  0.75619  0.93114  0.85047  1.0000
  C   C3        1.0  0.26030  0.47502  0.15168  1.0000
  C   C4        1.0  0.73970  0.52498  0.84832  1.0000
  C   C5        1.0  0.22574  0.34315  0.26752  1.0000
  C   C6        1.0  0.77426  0.65686  0.73248  1.0000
  C   C7        1.0  0.22974  0.14720  0.26650  1.0000
  C   C8        1.0  0.77026  0.85281  0.73350  1.0000
  C   C9        1.0  0.19523  0.28687  0.47504  1.0000
  C   C10       1.0  0.80478  0.71312  0.52495  1.0000
  C   C11       1.0  0.20498  0.09208  0.47469  1.0000
  C   C12       1.0  0.79502  0.90792  0.52531  1.0000
  N   N1        1.0  0.20668  0.41224  0.37175  1.0000
  N   N2        1.0  0.79333  0.58776  0.62824  1.0000
  N   N3        1.0  0.22176  0.02146  0.37071  1.0000
  N   N4        1.0  0.77824  0.97854  0.62929  1.0000
  N   N5        1.0  0.68262  0.39143  0.29081  1.0000
  N   N6        1.0  0.31737  0.60857  0.70920  1.0000
  O   O1        1.0  0.19893  0.65916  0.14477  1.0000
  O   O2        1.0  0.80107  0.34083  0.85523  1.0000
  O   O3        1.0  0.35506  0.39251  0.07120  1.0000
  O   O4        1.0  0.64495  0.60750  0.92879  1.0000
  O   O5        1.0  0.41430  0.97098  0.12422  1.0000
  O   O6        1.0  0.58569  0.02902  0.87578  1.0000
  O   O7        1.0  0.08268  0.09968  0.08900  1.0000
  O   O8        1.0  0.91731  0.90032  0.91100  1.0000
  O   O9        1.0  0.67128  0.21714  0.29375  1.0000
  O   O10       1.0  0.32872  0.78286  0.70626  1.0000
  O   O11       1.0  0.73321  0.48433  0.19351  1.0000
  O   O12       1.0  0.26679  0.51568  0.80650  1.0000
  O   O13       1.0  0.64097  0.46960  0.38349  1.0000
  O   O14       1.0  0.35902  0.53040  0.61652  1.0000
  O   O15       1.0  0.83120  0.82986  0.21160  1.0000
  O   O16       1.0  0.16880  0.17015  0.78840  1.0000
