data_image0
_chemical_formula_structural       Ca2Ag4H12C24N8O18
_chemical_formula_sum              "Ca2 Ag4 H12 C24 N8 O18"
_cell_length_a       8.09432
_cell_length_b       8.09432
_cell_length_c       11.463
_cell_angle_alpha    93.0037
_cell_angle_beta     93.0036
_cell_angle_gamma    103.823

_space_group_name_H-M_alt    "P 1"
_space_group_IT_number       1

loop_
  _space_group_symop_operation_xyz
  'x, y, z'

loop_
  _atom_site_type_symbol
  _atom_site_label
  _atom_site_symmetry_multiplicity
  _atom_site_fract_x
  _atom_site_fract_y
  _atom_site_fract_z
  _atom_site_occupancy
  Ca  Ca1       1.0  0.21035  0.78965  0.75000  1.0000
  Ca  Ca2       1.0  0.78965  0.21035  0.25000  1.0000
  Ag  Ag1       1.0  0.20207  0.34638  0.04896  1.0000
  Ag  Ag2       1.0  0.65362  0.79793  0.45104  1.0000
  Ag  Ag3       1.0  0.79793  0.65362  0.95104  1.0000
  Ag  Ag4       1.0  0.34638  0.20207  0.54896  1.0000
  H   H1        1.0  0.22398  0.22818  0.79681  1.0000
  H   H2        1.0  0.77182  0.77602  0.70318  1.0000
  H   H3        1.0  0.77603  0.77182  0.20318  1.0000
  H   H4        1.0  0.22818  0.22397  0.29682  1.0000
  H   H5        1.0  0.43231  0.51040  0.85999  1.0000
  H   H6        1.0  0.48960  0.56769  0.64001  1.0000
  H   H7        1.0  0.56769  0.48960  0.14001  1.0000
  H   H8        1.0  0.51040  0.43231  0.35999  1.0000
  H   H9        1.0  0.94615  0.99258  0.81093  1.0000
  H   H10       1.0  0.00742  0.05385  0.68907  1.0000
  H   H11       1.0  0.05385  0.00742  0.18907  1.0000
  H   H12       1.0  0.99258  0.94615  0.31093  1.0000
  C   C1        1.0  0.85998  0.26657  0.95456  1.0000
  C   C2        1.0  0.73342  0.14002  0.54543  1.0000
  C   C3        1.0  0.14003  0.73343  0.04543  1.0000
  C   C4        1.0  0.26657  0.85997  0.45457  1.0000
  C   C5        1.0  0.67842  0.24749  0.90698  1.0000
  C   C6        1.0  0.75250  0.32158  0.59302  1.0000
  C   C7        1.0  0.32158  0.75251  0.09302  1.0000
  C   C8        1.0  0.24749  0.67842  0.40699  1.0000
  C   C9        1.0  0.35499  0.23444  0.82685  1.0000
  C   C10       1.0  0.76555  0.64501  0.67315  1.0000
  C   C11       1.0  0.64501  0.76556  0.17315  1.0000
  C   C12       1.0  0.23444  0.35499  0.32686  1.0000
  C   C13       1.0  0.56422  0.09225  0.86680  1.0000
  C   C14       1.0  0.90774  0.43578  0.63319  1.0000
  C   C15       1.0  0.43578  0.90775  0.13320  1.0000
  C   C16       1.0  0.09225  0.56422  0.36681  1.0000
  C   C17       1.0  0.46768  0.38909  0.86474  1.0000
  C   C18       1.0  0.61091  0.53233  0.63526  1.0000
  C   C19       1.0  0.53233  0.61091  0.13526  1.0000
  C   C20       1.0  0.38909  0.46767  0.36474  1.0000
  C   C21       1.0  0.60886  0.92093  0.86812  1.0000
  C   C22       1.0  0.07906  0.39114  0.63188  1.0000
  C   C23       1.0  0.39114  0.07906  0.13188  1.0000
  C   C24       1.0  0.92093  0.60886  0.36812  1.0000
  N   N1        1.0  0.62860  0.39539  0.90383  1.0000
  N   N2        1.0  0.60461  0.37141  0.59617  1.0000
  N   N3        1.0  0.37141  0.60461  0.09617  1.0000
  N   N4        1.0  0.39539  0.62859  0.40383  1.0000
  N   N5        1.0  0.40400  0.08779  0.82726  1.0000
  N   N6        1.0  0.91220  0.59600  0.67274  1.0000
  N   N7        1.0  0.59600  0.91221  0.17274  1.0000
  N   N8        1.0  0.08779  0.40400  0.32726  1.0000
  O   O1        1.0  0.75874  0.92157  0.90846  1.0000
  O   O2        1.0  0.07842  0.24126  0.59154  1.0000
  O   O3        1.0  0.24126  0.07843  0.09154  1.0000
  O   O4        1.0  0.92158  0.75874  0.40846  1.0000
  O   O5        1.0  0.02313  0.97687  0.75000  1.0000
  O   O6        1.0  0.97687  0.02313  0.25000  1.0000
  O   O7        1.0  0.88488  0.26686  0.06538  1.0000
  O   O8        1.0  0.73313  0.11513  0.43462  1.0000
  O   O9        1.0  0.11513  0.73314  0.93462  1.0000
  O   O10       1.0  0.26686  0.88487  0.56538  1.0000
  O   O11       1.0  0.49291  0.79072  0.83206  1.0000
  O   O12       1.0  0.20928  0.50709  0.66794  1.0000
  O   O13       1.0  0.50709  0.20928  0.16794  1.0000
  O   O14       1.0  0.79072  0.49291  0.33206  1.0000
  O   O15       1.0  0.97517  0.29438  0.88375  1.0000
  O   O16       1.0  0.70562  0.02483  0.61625  1.0000
  O   O17       1.0  0.02483  0.70562  0.11625  1.0000
  O   O18       1.0  0.29438  0.97517  0.38376  1.0000
