data_image0
_chemical_formula_structural       Ca2H16C16O16F8
_chemical_formula_sum              "Ca2 H16 C16 O16 F8"
_cell_length_a       3.69934
_cell_length_b       6.65319
_cell_length_c       22.6162
_cell_angle_alpha    90.0003
_cell_angle_beta     90.0002
_cell_angle_gamma    93.164

_space_group_name_H-M_alt    "P 1"
_space_group_IT_number       1

loop_
  _space_group_symop_operation_xyz
  'x, y, z'

loop_
  _atom_site_type_symbol
  _atom_site_label
  _atom_site_symmetry_multiplicity
  _atom_site_fract_x
  _atom_site_fract_y
  _atom_site_fract_z
  _atom_site_occupancy
  Ca  Ca1       1.0  0.90760  0.58345  0.25000  1.0000
  Ca  Ca2       1.0  0.09240  0.41655  0.75000  1.0000
  H   H1        1.0  0.97559  0.15650  0.28433  1.0000
  H   H2        1.0  0.02442  0.84350  0.78432  1.0000
  H   H3        1.0  0.02442  0.84350  0.71568  1.0000
  H   H4        1.0  0.97558  0.15650  0.21568  1.0000
  H   H5        1.0  0.44258  0.55177  0.35455  1.0000
  H   H6        1.0  0.55742  0.44824  0.85455  1.0000
  H   H7        1.0  0.55742  0.44823  0.64545  1.0000
  H   H8        1.0  0.44258  0.55177  0.14545  1.0000
  H   H9        1.0  0.37273  0.32601  0.33441  1.0000
  H   H10       1.0  0.62727  0.67399  0.83441  1.0000
  H   H11       1.0  0.62727  0.67399  0.66559  1.0000
  H   H12       1.0  0.37272  0.32601  0.16559  1.0000
  H   H13       1.0  0.40356  0.91822  0.28468  1.0000
  H   H14       1.0  0.59645  0.08178  0.78468  1.0000
  H   H15       1.0  0.59645  0.08178  0.71532  1.0000
  H   H16       1.0  0.40355  0.91822  0.21532  1.0000
  C   C1        1.0  0.05836  0.92928  0.37231  1.0000
  C   C2        1.0  0.94163  0.07071  0.87231  1.0000
  C   C3        1.0  0.94165  0.07073  0.62769  1.0000
  C   C4        1.0  0.05836  0.92928  0.12769  1.0000
  C   C5        1.0  0.03101  0.96715  0.43801  1.0000
  C   C6        1.0  0.96898  0.03285  0.93801  1.0000
  C   C7        1.0  0.96899  0.03285  0.56199  1.0000
  C   C8        1.0  0.03100  0.96715  0.06199  1.0000
  C   C9        1.0  0.91044  0.14726  0.46048  1.0000
  C   C10       1.0  0.08956  0.85274  0.96047  1.0000
  C   C11       1.0  0.08956  0.85274  0.53952  1.0000
  C   C12       1.0  0.91044  0.14726  0.03952  1.0000
  C   C13       1.0  0.87829  0.17911  0.52104  1.0000
  C   C14       1.0  0.12171  0.82090  0.02105  1.0000
  C   C15       1.0  0.12172  0.82090  0.47895  1.0000
  C   C16       1.0  0.87828  0.17910  0.97895  1.0000
  O   O1        1.0  0.90923  0.76929  0.35241  1.0000
  O   O2        1.0  0.09077  0.23072  0.85240  1.0000
  O   O3        1.0  0.09077  0.23071  0.64759  1.0000
  O   O4        1.0  0.90922  0.76928  0.14759  1.0000
  O   O5        1.0  0.23911  0.06244  0.34173  1.0000
  O   O6        1.0  0.76089  0.93756  0.84172  1.0000
  O   O7        1.0  0.76089  0.93755  0.65828  1.0000
  O   O8        1.0  0.23910  0.06244  0.15827  1.0000
  O   O9        1.0  0.86395  0.22106  0.25000  1.0000
  O   O10       1.0  0.13605  0.77894  0.75000  1.0000
  O   O11       1.0  0.40294  0.46624  0.31975  1.0000
  O   O12       1.0  0.59708  0.53376  0.81975  1.0000
  O   O13       1.0  0.59707  0.53376  0.68025  1.0000
  O   O14       1.0  0.40293  0.46624  0.18025  1.0000
  O   O15       1.0  0.43198  0.82769  0.25000  1.0000
  O   O16       1.0  0.56802  0.17231  0.75000  1.0000
  F   F1        1.0  0.81281  0.29369  0.42315  1.0000
  F   F2        1.0  0.18719  0.70631  0.92315  1.0000
  F   F3        1.0  0.18720  0.70631  0.57685  1.0000
  F   F4        1.0  0.81280  0.29369  0.07685  1.0000
  F   F5        1.0  0.74458  0.35336  0.53976  1.0000
  F   F6        1.0  0.25543  0.64664  0.03976  1.0000
  F   F7        1.0  0.25542  0.64664  0.46024  1.0000
  F   F8        1.0  0.74457  0.35336  0.96024  1.0000
