data_image0
_chemical_formula_structural       Ca2H16C20O12F8
_chemical_formula_sum              "Ca2 H16 C20 O12 F8"
_cell_length_a       7.68859
_cell_length_b       10.3951
_cell_length_c       10.395
_cell_angle_alpha    116.017
_cell_angle_beta     96.8741
_cell_angle_gamma    96.8739

_space_group_name_H-M_alt    "P 1"
_space_group_IT_number       1

loop_
  _space_group_symop_operation_xyz
  'x, y, z'

loop_
  _atom_site_type_symbol
  _atom_site_label
  _atom_site_symmetry_multiplicity
  _atom_site_fract_x
  _atom_site_fract_y
  _atom_site_fract_z
  _atom_site_occupancy
  Ca  Ca1       1.0  0.75000  0.96522  0.03478  1.0000
  Ca  Ca2       1.0  0.25000  0.03478  0.96522  1.0000
  H   H1        1.0  0.02032  0.28646  0.41984  1.0000
  H   H2        1.0  0.47968  0.58015  0.71354  1.0000
  H   H3        1.0  0.97969  0.71354  0.58015  1.0000
  H   H4        1.0  0.52032  0.41984  0.28646  1.0000
  H   H5        1.0  0.93904  0.17417  0.49863  1.0000
  H   H6        1.0  0.56096  0.50137  0.82583  1.0000
  H   H7        1.0  0.06096  0.82583  0.50137  1.0000
  H   H8        1.0  0.43904  0.49863  0.17417  1.0000
  H   H9        1.0  0.78635  0.21979  0.38797  1.0000
  H   H10       1.0  0.71364  0.61203  0.78021  1.0000
  H   H11       1.0  0.21365  0.78021  0.61203  1.0000
  H   H12       1.0  0.28636  0.38797  0.21979  1.0000
  H   H13       1.0  0.05599  0.06510  0.26619  1.0000
  H   H14       1.0  0.44401  0.73381  0.93491  1.0000
  H   H15       1.0  0.94401  0.93490  0.73381  1.0000
  H   H16       1.0  0.55599  0.26619  0.06510  1.0000
  C   C1        1.0  0.90498  0.24249  0.04285  1.0000
  C   C2        1.0  0.59503  0.95714  0.75750  1.0000
  C   C3        1.0  0.09502  0.75751  0.95715  1.0000
  C   C4        1.0  0.40497  0.04286  0.24250  1.0000
  C   C5        1.0  0.95299  0.37504  0.02062  1.0000
  C   C6        1.0  0.54701  0.97938  0.62496  1.0000
  C   C7        1.0  0.04702  0.62496  0.97938  1.0000
  C   C8        1.0  0.45298  0.02062  0.37504  1.0000
  C   C9        1.0  0.96052  0.51523  0.13167  1.0000
  C   C10       1.0  0.53948  0.86833  0.48477  1.0000
  C   C11       1.0  0.03949  0.48477  0.86833  1.0000
  C   C12       1.0  0.46052  0.13167  0.51524  1.0000
  C   C13       1.0  0.00698  0.63780  0.11156  1.0000
  C   C14       1.0  0.49301  0.88845  0.36221  1.0000
  C   C15       1.0  0.99302  0.36221  0.88844  1.0000
  C   C16       1.0  0.50698  0.11155  0.63780  1.0000
  C   C17       1.0  0.91884  0.19322  0.40224  1.0000
  C   C18       1.0  0.58115  0.59776  0.80678  1.0000
  C   C19       1.0  0.08116  0.80678  0.59776  1.0000
  C   C20       1.0  0.41885  0.40224  0.19322  1.0000
  O   O1        1.0  0.75889  0.22314  0.08265  1.0000
  O   O2        1.0  0.74111  0.91735  0.77685  1.0000
  O   O3        1.0  0.24111  0.77686  0.91735  1.0000
  O   O4        1.0  0.25889  0.08265  0.22314  1.0000
  O   O5        1.0  0.01225  0.15516  0.01935  1.0000
  O   O6        1.0  0.48775  0.98065  0.84485  1.0000
  O   O7        1.0  0.98775  0.84484  0.98065  1.0000
  O   O8        1.0  0.51225  0.01935  0.15515  1.0000
  O   O9        1.0  0.92792  0.06522  0.27299  1.0000
  O   O10       1.0  0.57208  0.72701  0.93478  1.0000
  O   O11       1.0  0.07208  0.93478  0.72701  1.0000
  O   O12       1.0  0.42792  0.27299  0.06522  1.0000
  F   F1        1.0  0.92735  0.53397  0.26330  1.0000
  F   F2        1.0  0.57264  0.73670  0.46602  1.0000
  F   F3        1.0  0.07265  0.46603  0.73670  1.0000
  F   F4        1.0  0.42736  0.26330  0.53398  1.0000
  F   F5        1.0  0.01767  0.77142  0.22453  1.0000
  F   F6        1.0  0.48232  0.77548  0.22858  1.0000
  F   F7        1.0  0.98233  0.22859  0.77547  1.0000
  F   F8        1.0  0.51768  0.22453  0.77142  1.0000
