data_image0
_chemical_formula_structural       Cd2H40C20S4N4O4
_chemical_formula_sum              "Cd2 H40 C20 S4 N4 O4"
_cell_length_a       7.49685
_cell_length_b       9.00298
_cell_length_c       11.8104
_cell_angle_alpha    112.485
_cell_angle_beta     100.161
_cell_angle_gamma    89.9544

_space_group_name_H-M_alt    "P 1"
_space_group_IT_number       1

loop_
  _space_group_symop_operation_xyz
  'x, y, z'

loop_
  _atom_site_type_symbol
  _atom_site_label
  _atom_site_symmetry_multiplicity
  _atom_site_fract_x
  _atom_site_fract_y
  _atom_site_fract_z
  _atom_site_occupancy
  Cd  Cd1       1.0  0.75015  0.93923  0.00028  1.0000
  Cd  Cd2       1.0  0.24984  0.06077  0.99972  1.0000
  H   H1        1.0  0.29378  0.84133  0.41243  1.0000
  H   H2        1.0  0.20728  0.42819  0.58730  1.0000
  H   H3        1.0  0.70623  0.15868  0.58758  1.0000
  H   H4        1.0  0.79274  0.57180  0.41268  1.0000
  H   H5        1.0  0.06225  0.88023  0.38603  1.0000
  H   H6        1.0  0.43865  0.49383  0.61411  1.0000
  H   H7        1.0  0.93775  0.11978  0.61398  1.0000
  H   H8        1.0  0.56137  0.50619  0.38591  1.0000
  H   H9        1.0  0.24161  0.11218  0.56812  1.0000
  H   H10       1.0  0.25983  0.54286  0.43188  1.0000
  H   H11       1.0  0.75840  0.88783  0.43189  1.0000
  H   H12       1.0  0.74020  0.45714  0.56811  1.0000
  H   H13       1.0  0.14659  0.17094  0.44296  1.0000
  H   H14       1.0  0.35371  0.72752  0.55709  1.0000
  H   H15       1.0  0.85341  0.82906  0.55704  1.0000
  H   H16       1.0  0.64632  0.27247  0.44290  1.0000
  H   H17       1.0  0.38128  0.13847  0.46837  1.0000
  H   H18       1.0  0.11916  0.66890  0.53110  1.0000
  H   H19       1.0  0.61872  0.86154  0.53163  1.0000
  H   H20       1.0  0.88087  0.33110  0.46889  1.0000
  H   H21       1.0  0.49146  0.93001  0.30017  1.0000
  H   H22       1.0  0.00868  0.62884  0.69936  1.0000
  H   H23       1.0  0.50855  0.06999  0.69984  1.0000
  H   H24       1.0  0.99130  0.37115  0.30062  1.0000
  H   H25       1.0  0.39664  0.89289  0.14324  1.0000
  H   H26       1.0  0.10293  0.74884  0.85650  1.0000
  H   H27       1.0  0.60336  0.10711  0.85677  1.0000
  H   H28       1.0  0.89704  0.25115  0.14348  1.0000
  H   H29       1.0  0.55890  0.65853  0.16052  1.0000
  H   H30       1.0  0.94165  0.49673  0.83859  1.0000
  H   H31       1.0  0.44110  0.34146  0.83948  1.0000
  H   H32       1.0  0.05834  0.50327  0.16140  1.0000
  H   H33       1.0  0.32404  0.60454  0.09606  1.0000
  H   H34       1.0  0.17649  0.50735  0.90305  1.0000
  H   H35       1.0  0.67596  0.39546  0.90394  1.0000
  H   H36       1.0  0.82350  0.49266  0.09693  1.0000
  H   H37       1.0  0.40851  0.63264  0.25352  1.0000
  H   H38       1.0  0.09222  0.37791  0.74546  1.0000
  H   H39       1.0  0.59149  0.36736  0.74648  1.0000
  H   H40       1.0  0.90777  0.62209  0.25454  1.0000
  C   C1        1.0  0.06736  0.90679  0.17374  1.0000
  C   C2        1.0  0.43253  0.73285  0.82648  1.0000
  C   C3        1.0  0.93264  0.09320  0.82625  1.0000
  C   C4        1.0  0.56744  0.26716  0.17353  1.0000
  C   C5        1.0  0.19963  0.91981  0.38403  1.0000
  C   C6        1.0  0.30114  0.53528  0.61592  1.0000
  C   C7        1.0  0.80038  0.08020  0.61598  1.0000
  C   C8        1.0  0.69888  0.46472  0.38408  1.0000
  C   C9        1.0  0.24565  0.09595  0.47155  1.0000
  C   C10       1.0  0.25512  0.62362  0.52836  1.0000
  C   C11       1.0  0.75436  0.90406  0.52846  1.0000
  C   C12       1.0  0.74490  0.37637  0.47163  1.0000
  C   C13       1.0  0.38783  0.85525  0.21975  1.0000
  C   C14       1.0  0.11224  0.63470  0.77982  1.0000
  C   C15       1.0  0.61218  0.14475  0.78025  1.0000
  C   C16       1.0  0.88774  0.36530  0.22016  1.0000
  C   C17       1.0  0.42137  0.67735  0.18068  1.0000
  C   C18       1.0  0.07916  0.49551  0.81846  1.0000
  C   C19       1.0  0.57863  0.32265  0.81933  1.0000
  C   C20       1.0  0.92082  0.50448  0.18152  1.0000
  S   S1        1.0  0.85675  0.95009  0.21872  1.0000
  S   S2        1.0  0.64347  0.73116  0.78200  1.0000
  S   S3        1.0  0.14325  0.04991  0.78128  1.0000
  S   S4        1.0  0.35650  0.26885  0.21802  1.0000
  N   N1        1.0  0.20987  0.89185  0.25508  1.0000
  N   N2        1.0  0.29032  0.63644  0.74479  1.0000
  N   N3        1.0  0.79014  0.10815  0.74493  1.0000
  N   N4        1.0  0.70966  0.36356  0.25520  1.0000
  O   O1        1.0  0.08331  0.88863  0.06309  1.0000
  O   O2        1.0  0.41602  0.82525  0.93713  1.0000
  O   O3        1.0  0.91669  0.11136  0.93692  1.0000
  O   O4        1.0  0.58393  0.17474  0.06287  1.0000
