data_image0
_chemical_formula_structural       Ag2H32C36S4N6O6
_chemical_formula_sum              "Ag2 H32 C36 S4 N6 O6"
_cell_length_a       8.17378
_cell_length_b       9.94067
_cell_length_c       11.6203
_cell_angle_alpha    106.425
_cell_angle_beta     97.4195
_cell_angle_gamma    91.4123

_space_group_name_H-M_alt    "P 1"
_space_group_IT_number       1

loop_
  _space_group_symop_operation_xyz
  'x, y, z'

loop_
  _atom_site_type_symbol
  _atom_site_label
  _atom_site_symmetry_multiplicity
  _atom_site_fract_x
  _atom_site_fract_y
  _atom_site_fract_z
  _atom_site_occupancy
  Ag  Ag1       1.0  0.52938  0.59225  0.86294  1.0000
  Ag  Ag2       1.0  0.47062  0.40775  0.13706  1.0000
  H   H1        1.0  0.55644  0.38543  0.56090  1.0000
  H   H2        1.0  0.44356  0.61457  0.43909  1.0000
  H   H3        1.0  0.55780  0.00939  0.67719  1.0000
  H   H4        1.0  0.44220  0.99061  0.32282  1.0000
  H   H5        1.0  0.81700  0.95092  0.59799  1.0000
  H   H6        1.0  0.18300  0.04908  0.40202  1.0000
  H   H7        1.0  0.95888  0.11452  0.50613  1.0000
  H   H8        1.0  0.04113  0.88548  0.49387  1.0000
  H   H9        1.0  0.85937  0.47003  0.54702  1.0000
  H   H10       1.0  0.14063  0.52997  0.45298  1.0000
  H   H11       1.0  0.97996  0.33852  0.46497  1.0000
  H   H12       1.0  0.02004  0.66148  0.53503  1.0000
  H   H13       1.0  0.96004  0.15464  0.31669  1.0000
  H   H14       1.0  0.03996  0.84537  0.68331  1.0000
  H   H15       1.0  0.95822  0.94689  0.13756  1.0000
  H   H16       1.0  0.04178  0.05311  0.86245  1.0000
  H   H17       1.0  0.75224  0.92671  0.94906  1.0000
  H   H18       1.0  0.24776  0.07329  0.05094  1.0000
  H   H19       1.0  0.56519  0.12150  0.95155  1.0000
  H   H20       1.0  0.43482  0.87850  0.04845  1.0000
  H   H21       1.0  0.31316  0.30757  0.62486  1.0000
  H   H22       1.0  0.68684  0.69243  0.37514  1.0000
  H   H23       1.0  0.30291  0.14849  0.66914  1.0000
  H   H24       1.0  0.69709  0.85151  0.33086  1.0000
  H   H25       1.0  0.08818  0.32904  0.70600  1.0000
  H   H26       1.0  0.91182  0.67096  0.29400  1.0000
  H   H27       1.0  0.81855  0.31589  0.78037  1.0000
  H   H28       1.0  0.18145  0.68411  0.21962  1.0000
  H   H29       1.0  0.81636  0.32727  0.99960  1.0000
  H   H30       1.0  0.18364  0.67273  0.00039  1.0000
  H   H31       1.0  0.08828  0.35652  0.13491  1.0000
  H   H32       1.0  0.91172  0.64348  0.86508  1.0000
  C   C1        1.0  0.76690  0.26093  0.52745  1.0000
  C   C2        1.0  0.23310  0.73908  0.47255  1.0000
  C   C3        1.0  0.61478  0.29060  0.56926  1.0000
  C   C4        1.0  0.38522  0.70941  0.43074  1.0000
  C   C5        1.0  0.53954  0.20269  0.62461  1.0000
  C   C6        1.0  0.46046  0.79731  0.37539  1.0000
  C   C7        1.0  0.61461  0.08070  0.63542  1.0000
  C   C8        1.0  0.38539  0.91930  0.36458  1.0000
  C   C9        1.0  0.76345  0.04808  0.59088  1.0000
  C   C10       1.0  0.23655  0.95192  0.40912  1.0000
  C   C11       1.0  0.83979  0.13804  0.53772  1.0000
  C   C12       1.0  0.16021  0.86196  0.46228  1.0000
  C   C13       1.0  0.85382  0.36531  0.48110  1.0000
  C   C14       1.0  0.14619  0.63469  0.51891  1.0000
  C   C15       1.0  0.75740  0.24494  0.23032  1.0000
  C   C16       1.0  0.24260  0.75506  0.76968  1.0000
  C   C17       1.0  0.87037  0.14222  0.23616  1.0000
  C   C18       1.0  0.12963  0.85778  0.76384  1.0000
  C   C19       1.0  0.86970  0.02662  0.13498  1.0000
  C   C20       1.0  0.13031  0.97338  0.86502  1.0000
  C   C21       1.0  0.75788  0.01520  0.03048  1.0000
  C   C22       1.0  0.24212  0.98480  0.96953  1.0000
  C   C23       1.0  0.65216  0.12288  0.03148  1.0000
  C   C24       1.0  0.34784  0.87712  0.96852  1.0000
  C   C25       1.0  0.38103  0.24179  0.67349  1.0000
  C   C26       1.0  0.61897  0.75821  0.32651  1.0000
  C   C27       1.0  0.22926  0.34178  0.88070  1.0000
  C   C28       1.0  0.77074  0.65822  0.11930  1.0000
  C   C29       1.0  0.08415  0.33074  0.79949  1.0000
  C   C30       1.0  0.91585  0.66926  0.20051  1.0000
  C   C31       1.0  0.93328  0.32399  0.84175  1.0000
  C   C32       1.0  0.06672  0.67601  0.15825  1.0000
  C   C33       1.0  0.93167  0.33010  0.96290  1.0000
  C   C34       1.0  0.06833  0.66990  0.03710  1.0000
  C   C35       1.0  0.08171  0.34602  0.03850  1.0000
  C   C36       1.0  0.91829  0.65398  0.96150  1.0000
  S   S1        1.0  0.74223  0.39872  0.34681  1.0000
  S   S2        1.0  0.25777  0.60129  0.65319  1.0000
  S   S3        1.0  0.42876  0.33890  0.83577  1.0000
  S   S4        1.0  0.57123  0.66110  0.16423  1.0000
  N   N1        1.0  0.65082  0.23507  0.12865  1.0000
  N   N2        1.0  0.34918  0.76493  0.87135  1.0000
  N   N3        1.0  0.22847  0.35143  0.99850  1.0000
  N   N4        1.0  0.77153  0.64857  0.00150  1.0000
  N   N5        1.0  0.28292  0.29064  0.32034  1.0000
  N   N6        1.0  0.71708  0.70936  0.67965  1.0000
  O   O1        1.0  0.22689  0.28867  0.41675  1.0000
  O   O2        1.0  0.77311  0.71133  0.58325  1.0000
  O   O3        1.0  0.29107  0.40782  0.29443  1.0000
  O   O4        1.0  0.70892  0.59218  0.70557  1.0000
  O   O5        1.0  0.32820  0.18101  0.25069  1.0000
  O   O6        1.0  0.67180  0.81899  0.74931  1.0000
