data_image0
_chemical_formula_structural       Na6Er2H20C28N8O32
_chemical_formula_sum              "Na6 Er2 H20 C28 N8 O32"
_cell_length_a       8.74753
_cell_length_b       9.03975
_cell_length_c       14.9284
_cell_angle_alpha    100.115
_cell_angle_beta     105.185
_cell_angle_gamma    94.706

_space_group_name_H-M_alt    "P 1"
_space_group_IT_number       1

loop_
  _space_group_symop_operation_xyz
  'x, y, z'

loop_
  _atom_site_type_symbol
  _atom_site_label
  _atom_site_symmetry_multiplicity
  _atom_site_fract_x
  _atom_site_fract_y
  _atom_site_fract_z
  _atom_site_occupancy
  Na  Na1       1.0  0.73807  0.39362  0.24469  1.0000
  Na  Na2       1.0  0.26195  0.60635  0.75532  1.0000
  Na  Na3       1.0  0.61541  0.03231  0.16382  1.0000
  Na  Na4       1.0  0.38459  0.96769  0.83618  1.0000
  Na  Na5       1.0  0.93478  0.11858  0.35933  1.0000
  Na  Na6       1.0  0.06522  0.88142  0.64067  1.0000
  Er  Er1       1.0  0.23177  0.88326  0.23456  1.0000
  Er  Er2       1.0  0.76821  0.11674  0.76544  1.0000
  H   H1        1.0  0.42801  0.18270  0.05438  1.0000
  H   H2        1.0  0.57199  0.81730  0.94562  1.0000
  H   H3        1.0  0.46788  0.33127  0.13455  1.0000
  H   H4        1.0  0.53212  0.66874  0.86545  1.0000
  H   H5        1.0  0.73683  0.87910  0.32686  1.0000
  H   H6        1.0  0.26317  0.12090  0.67314  1.0000
  H   H7        1.0  0.84319  0.81696  0.26163  1.0000
  H   H8        1.0  0.15681  0.18305  0.73837  1.0000
  H   H9        1.0  0.05285  0.35341  0.54163  1.0000
  H   H10       1.0  0.94717  0.64660  0.45837  1.0000
  H   H11       1.0  0.14722  0.21923  0.51290  1.0000
  H   H12       1.0  0.85279  0.78078  0.48709  1.0000
  H   H13       1.0  0.06369  0.47075  0.38003  1.0000
  H   H14       1.0  0.93633  0.52925  0.61997  1.0000
  H   H15       1.0  0.01672  0.59555  0.31636  1.0000
  H   H16       1.0  0.98331  0.40445  0.68364  1.0000
  H   H17       1.0  0.62215  0.54369  0.43386  1.0000
  H   H18       1.0  0.37786  0.45631  0.56613  1.0000
  H   H19       1.0  0.25950  0.47676  0.04792  1.0000
  H   H20       1.0  0.74048  0.52326  0.95208  1.0000
  C   C1        1.0  0.44706  0.67179  0.36221  1.0000
  C   C2        1.0  0.55292  0.32820  0.63780  1.0000
  C   C3        1.0  0.54199  0.62794  0.44172  1.0000
  C   C4        1.0  0.45800  0.37205  0.55828  1.0000
  C   C5        1.0  0.44116  0.79353  0.53998  1.0000
  C   C6        1.0  0.55884  0.20647  0.46003  1.0000
  C   C7        1.0  0.34871  0.84267  0.46105  1.0000
  C   C8        1.0  0.65130  0.15734  0.53896  1.0000
  C   C9        1.0  0.43876  0.60830  0.25985  1.0000
  C   C10       1.0  0.56123  0.39172  0.74016  1.0000
  C   C11       1.0  0.43400  0.85101  0.63991  1.0000
  C   C12       1.0  0.56601  0.14899  0.36008  1.0000
  C   C13       1.0  0.24122  0.96584  0.46208  1.0000
  C   C14       1.0  0.75879  0.03418  0.53793  1.0000
  C   C15       1.0  0.01025  0.22572  0.09140  1.0000
  C   C16       1.0  0.98975  0.77428  0.90860  1.0000
  C   C17       1.0  0.90350  0.17425  0.00047  1.0000
  C   C18       1.0  0.09648  0.82576  0.99952  1.0000
  C   C19       1.0  0.06178  0.32748  0.94160  1.0000
  C   C20       1.0  0.93822  0.67251  0.05840  1.0000
  C   C21       1.0  0.16013  0.38646  0.03378  1.0000
  C   C22       1.0  0.83988  0.61352  0.96622  1.0000
  C   C23       1.0  0.99407  0.16271  0.17597  1.0000
  C   C24       1.0  0.00591  0.83732  0.82403  1.0000
  C   C25       1.0  0.75200  0.06235  0.97327  1.0000
  C   C26       1.0  0.24799  0.93764  0.02674  1.0000
  C   C27       1.0  0.08743  0.37155  0.85365  1.0000
  C   C28       1.0  0.91255  0.62844  0.14635  1.0000
  N   N1        1.0  0.35418  0.77935  0.37414  1.0000
  N   N2        1.0  0.64581  0.22065  0.62587  1.0000
  N   N3        1.0  0.53870  0.68807  0.52960  1.0000
  N   N4        1.0  0.46129  0.31191  0.47040  1.0000
  N   N5        1.0  0.93435  0.22540  0.92745  1.0000
  N   N6        1.0  0.06566  0.77459  0.07255  1.0000
  N   N7        1.0  0.13538  0.33380  0.10785  1.0000
  N   N8        1.0  0.86464  0.66616  0.89214  1.0000
  O   O1        1.0  0.35454  0.67531  0.19942  1.0000
  O   O2        1.0  0.64547  0.32470  0.80058  1.0000
  O   O3        1.0  0.51177  0.49820  0.24287  1.0000
  O   O4        1.0  0.48826  0.50182  0.75713  1.0000
  O   O5        1.0  0.54111  0.95704  0.69207  1.0000
  O   O6        1.0  0.45891  0.04294  0.30792  1.0000
  O   O7        1.0  0.32247  0.78848  0.66468  1.0000
  O   O8        1.0  0.67751  0.21152  0.33531  1.0000
  O   O9        1.0  0.23461  0.04185  0.54029  1.0000
  O   O10       1.0  0.76539  0.95816  0.45972  1.0000
  O   O11       1.0  0.16468  0.98456  0.38024  1.0000
  O   O12       1.0  0.83532  0.01545  0.61977  1.0000
  O   O13       1.0  0.08161  0.06179  0.19734  1.0000
  O   O14       1.0  0.91839  0.93822  0.80264  1.0000
  O   O15       1.0  0.90111  0.21497  0.22091  1.0000
  O   O16       1.0  0.09888  0.78503  0.77908  1.0000
  O   O17       1.0  0.72246  0.98691  0.03155  1.0000
  O   O18       1.0  0.27755  0.01308  0.96845  1.0000
  O   O19       1.0  0.66512  0.05285  0.88841  1.0000
  O   O20       1.0  0.33489  0.94715  0.11159  1.0000
  O   O21       1.0  0.99233  0.29051  0.77359  1.0000
  O   O22       1.0  0.00764  0.70948  0.22641  1.0000
  O   O23       1.0  0.19344  0.47593  0.86095  1.0000
  O   O24       1.0  0.80653  0.52406  0.13905  1.0000
  O   O25       1.0  0.51572  0.24895  0.10416  1.0000
  O   O26       1.0  0.48428  0.75104  0.89585  1.0000
  O   O27       1.0  0.76599  0.88817  0.26883  1.0000
  O   O28       1.0  0.23400  0.11182  0.73117  1.0000
  O   O29       1.0  0.08384  0.29590  0.48750  1.0000
  O   O30       1.0  0.91620  0.70414  0.51250  1.0000
  O   O31       1.0  0.98541  0.53880  0.36157  1.0000
  O   O32       1.0  0.01461  0.46120  0.63843  1.0000
