data_image0
_chemical_formula_structural       Cd4H56C44N8O20
_chemical_formula_sum              "Cd4 H56 C44 N8 O20"
_cell_length_a       5.87633
_cell_length_b       15.4743
_cell_length_c       15.9985
_cell_angle_alpha    89.9986
_cell_angle_beta     90.0007
_cell_angle_gamma    90.0004

_space_group_name_H-M_alt    "P 1"
_space_group_IT_number       1

loop_
  _space_group_symop_operation_xyz
  'x, y, z'

loop_
  _atom_site_type_symbol
  _atom_site_label
  _atom_site_symmetry_multiplicity
  _atom_site_fract_x
  _atom_site_fract_y
  _atom_site_fract_z
  _atom_site_occupancy
  Cd  Cd1       1.0  0.07405  0.29548  0.15580  1.0000
  Cd  Cd2       1.0  0.42596  0.70452  0.65581  1.0000
  Cd  Cd3       1.0  0.57405  0.20452  0.84419  1.0000
  Cd  Cd4       1.0  0.92596  0.79548  0.34420  1.0000
  H   H1        1.0  0.55368  0.37934  0.09552  1.0000
  H   H2        1.0  0.94632  0.62068  0.59552  1.0000
  H   H3        1.0  0.05368  0.12068  0.90448  1.0000
  H   H4        1.0  0.44633  0.87933  0.40449  1.0000
  H   H5        1.0  0.80721  0.50309  0.12589  1.0000
  H   H6        1.0  0.69278  0.49693  0.62588  1.0000
  H   H7        1.0  0.30723  0.99693  0.87412  1.0000
  H   H8        1.0  0.19278  0.00307  0.37412  1.0000
  H   H9        1.0  0.06096  0.46778  0.25818  1.0000
  H   H10       1.0  0.43905  0.53220  0.75817  1.0000
  H   H11       1.0  0.56097  0.03222  0.74181  1.0000
  H   H12       1.0  0.93903  0.96778  0.24182  1.0000
  H   H13       1.0  0.28789  0.59911  0.29419  1.0000
  H   H14       1.0  0.21211  0.40088  0.79418  1.0000
  H   H15       1.0  0.78791  0.90089  0.70581  1.0000
  H   H16       1.0  0.71211  0.09910  0.20581  1.0000
  H   H17       1.0  0.10739  0.68010  0.45863  1.0000
  H   H18       1.0  0.39260  0.31992  0.95862  1.0000
  H   H19       1.0  0.60741  0.81991  0.54138  1.0000
  H   H20       1.0  0.89260  0.18009  0.04137  1.0000
  H   H21       1.0  0.91471  0.55265  0.46635  1.0000
  H   H22       1.0  0.58531  0.44736  0.96635  1.0000
  H   H23       1.0  0.41473  0.94736  0.53365  1.0000
  H   H24       1.0  0.08530  0.05264  0.03365  1.0000
  H   H25       1.0  0.95024  0.53849  0.35754  1.0000
  H   H26       1.0  0.54978  0.46153  0.85753  1.0000
  H   H27       1.0  0.45025  0.96152  0.64246  1.0000
  H   H28       1.0  0.04976  0.03848  0.14246  1.0000
  H   H29       1.0  0.52152  0.71325  0.31064  1.0000
  H   H30       1.0  0.97846  0.28676  0.81064  1.0000
  H   H31       1.0  0.02155  0.78676  0.68936  1.0000
  H   H32       1.0  0.47846  0.21324  0.18936  1.0000
  H   H33       1.0  0.90214  0.61413  0.23743  1.0000
  H   H34       1.0  0.59784  0.38587  0.73742  1.0000
  H   H35       1.0  0.40216  0.88588  0.76259  1.0000
  H   H36       1.0  0.09785  0.11412  0.26258  1.0000
  H   H37       1.0  0.71811  0.68627  0.18790  1.0000
  H   H38       1.0  0.78187  0.31373  0.68791  1.0000
  H   H39       1.0  0.21811  0.81374  0.81210  1.0000
  H   H40       1.0  0.28189  0.18626  0.31209  1.0000
  H   H41       1.0  0.55496  0.57275  0.38995  1.0000
  H   H42       1.0  0.94504  0.42725  0.88994  1.0000
  H   H43       1.0  0.05498  0.92726  0.61006  1.0000
  H   H44       1.0  0.44503  0.07275  0.11005  1.0000
  H   H45       1.0  0.47231  0.31525  0.35672  1.0000
  H   H46       1.0  0.02770  0.68471  0.85673  1.0000
  H   H47       1.0  0.97230  0.18475  0.64327  1.0000
  H   H48       1.0  0.52768  0.81526  0.14327  1.0000
  H   H49       1.0  0.70550  0.32873  0.42872  1.0000
  H   H50       1.0  0.79448  0.67121  0.92873  1.0000
  H   H51       1.0  0.20551  0.17126  0.57128  1.0000
  H   H52       1.0  0.29448  0.82874  0.07127  1.0000
  H   H53       1.0  0.62647  0.22416  0.39358  1.0000
  H   H54       1.0  0.87352  0.77581  0.89360  1.0000
  H   H55       1.0  0.12647  0.27584  0.60641  1.0000
  H   H56       1.0  0.37352  0.72416  0.10642  1.0000
  C   C1        1.0  0.49974  0.42996  0.13821  1.0000
  C   C2        1.0  0.00026  0.57005  0.63821  1.0000
  C   C3        1.0  0.99974  0.07005  0.86179  1.0000
  C   C4        1.0  0.50027  0.92995  0.36179  1.0000
  C   C5        1.0  0.64126  0.49959  0.15633  1.0000
  C   C6        1.0  0.85872  0.50042  0.65632  1.0000
  C   C7        1.0  0.14128  0.00042  0.84368  1.0000
  C   C8        1.0  0.35873  0.99957  0.34368  1.0000
  C   C9        1.0  0.22489  0.48017  0.22874  1.0000
  C   C10       1.0  0.27512  0.51982  0.72873  1.0000
  C   C11       1.0  0.72490  0.01983  0.77126  1.0000
  C   C12       1.0  0.77510  0.98017  0.27126  1.0000
  C   C13       1.0  0.57064  0.56210  0.21398  1.0000
  C   C14       1.0  0.92935  0.43790  0.71398  1.0000
  C   C15       1.0  0.07065  0.93790  0.78602  1.0000
  C   C16       1.0  0.42936  0.06210  0.28603  1.0000
  C   C17       1.0  0.35417  0.55230  0.24940  1.0000
  C   C18       1.0  0.14583  0.44770  0.74939  1.0000
  C   C19       1.0  0.85419  0.94771  0.75061  1.0000
  C   C20       1.0  0.64582  0.05229  0.25061  1.0000
  C   C21       1.0  0.61713  0.68150  0.46883  1.0000
  C   C22       1.0  0.88288  0.31849  0.96883  1.0000
  C   C23       1.0  0.11712  0.81851  0.53117  1.0000
  C   C24       1.0  0.38288  0.18151  0.03118  1.0000
  C   C25       1.0  0.80812  0.29799  0.30244  1.0000
  C   C26       1.0  0.69188  0.70198  0.80245  1.0000
  C   C27       1.0  0.30812  0.20201  0.69755  1.0000
  C   C28       1.0  0.19184  0.79800  0.19755  1.0000
  C   C29       1.0  0.91547  0.58691  0.40610  1.0000
  C   C30       1.0  0.58455  0.41310  0.90609  1.0000
  C   C31       1.0  0.41547  0.91310  0.59391  1.0000
  C   C32       1.0  0.08454  0.08690  0.09391  1.0000
  C   C33       1.0  0.72467  0.63658  0.23706  1.0000
  C   C34       1.0  0.77531  0.36342  0.73705  1.0000
  C   C35       1.0  0.22469  0.86343  0.76295  1.0000
  C   C36       1.0  0.27532  0.13657  0.26294  1.0000
  C   C37       1.0  0.67800  0.62645  0.39222  1.0000
  C   C38       1.0  0.82200  0.37355  0.89222  1.0000
  C   C39       1.0  0.17801  0.87356  0.60778  1.0000
  C   C40       1.0  0.32200  0.12645  0.10778  1.0000
  C   C41       1.0  0.64221  0.29235  0.37478  1.0000
  C   C42       1.0  0.85778  0.70761  0.87479  1.0000
  C   C43       1.0  0.14221  0.20765  0.62521  1.0000
  C   C44       1.0  0.35777  0.79236  0.12521  1.0000
  N   N1        1.0  0.29498  0.41962  0.17435  1.0000
  N   N2        1.0  0.20502  0.58038  0.67434  1.0000
  N   N3        1.0  0.79498  0.08038  0.82565  1.0000
  N   N4        1.0  0.70503  0.91962  0.32566  1.0000
  N   N5        1.0  0.67407  0.68034  0.31628  1.0000
  N   N6        1.0  0.82591  0.31966  0.81627  1.0000
  N   N7        1.0  0.17408  0.81967  0.68373  1.0000
  N   N8        1.0  0.32592  0.18033  0.18372  1.0000
  O   O1        1.0  0.62479  0.76324  0.46011  1.0000
  O   O2        1.0  0.87522  0.23677  0.96011  1.0000
  O   O3        1.0  0.12476  0.73678  0.53989  1.0000
  O   O4        1.0  0.37522  0.26323  0.03989  1.0000
  O   O5        1.0  0.57319  0.64070  0.53554  1.0000
  O   O6        1.0  0.92680  0.35930  0.03554  1.0000
  O   O7        1.0  0.07319  0.85931  0.46447  1.0000
  O   O8        1.0  0.42681  0.14070  0.96446  1.0000
  O   O9        1.0  0.09112  0.65007  0.40239  1.0000
  O   O10       1.0  0.40889  0.34995  0.90239  1.0000
  O   O11       1.0  0.59111  0.84994  0.59761  1.0000
  O   O12       1.0  0.90889  0.15006  0.09760  1.0000
  O   O13       1.0  0.73397  0.27860  0.22874  1.0000
  O   O14       1.0  0.76604  0.72140  0.72875  1.0000
  O   O15       1.0  0.23398  0.22141  0.77125  1.0000
  O   O16       1.0  0.26601  0.77860  0.27125  1.0000
  O   O17       1.0  0.01240  0.31992  0.31518  1.0000
  O   O18       1.0  0.48761  0.68006  0.81517  1.0000
  O   O19       1.0  0.51239  0.18008  0.68482  1.0000
  O   O20       1.0  0.98757  0.81992  0.18481  1.0000
