data_image0
_chemical_formula_structural       Cu2H16C32N4O8F12
_chemical_formula_sum              "Cu2 H16 C32 N4 O8 F12"
_cell_length_a       7.65043
_cell_length_b       11.0789
_cell_length_c       11.0789
_cell_angle_alpha    61.4875
_cell_angle_beta     78.1594
_cell_angle_gamma    78.1595

_space_group_name_H-M_alt    "P 1"
_space_group_IT_number       1

loop_
  _space_group_symop_operation_xyz
  'x, y, z'

loop_
  _atom_site_type_symbol
  _atom_site_label
  _atom_site_symmetry_multiplicity
  _atom_site_fract_x
  _atom_site_fract_y
  _atom_site_fract_z
  _atom_site_occupancy
  Cu  Cu1       1.0  0.25000  0.63167  0.36833  1.0000
  Cu  Cu2       1.0  0.75000  0.36833  0.63167  1.0000
  H   H1        1.0  0.99762  0.82645  0.47928  1.0000
  H   H2        1.0  0.50237  0.52072  0.17355  1.0000
  H   H3        1.0  0.00238  0.17355  0.52072  1.0000
  H   H4        1.0  0.49762  0.47928  0.82645  1.0000
  H   H5        1.0  0.87263  0.07881  0.36696  1.0000
  H   H6        1.0  0.62737  0.63304  0.92119  1.0000
  H   H7        1.0  0.12737  0.92119  0.63304  1.0000
  H   H8        1.0  0.37263  0.36696  0.07881  1.0000
  H   H9        1.0  0.96136  0.22338  0.11354  1.0000
  H   H10       1.0  0.53864  0.88646  0.77662  1.0000
  H   H11       1.0  0.03864  0.77663  0.88646  1.0000
  H   H12       1.0  0.46136  0.11354  0.22338  1.0000
  H   H13       1.0  0.14284  0.23257  0.88541  1.0000
  H   H14       1.0  0.35716  0.11459  0.76743  1.0000
  H   H15       1.0  0.85717  0.76742  0.11460  1.0000
  H   H16       1.0  0.64283  0.88541  0.23258  1.0000
  C   C1        1.0  0.03166  0.89282  0.36935  1.0000
  C   C2        1.0  0.46834  0.63065  0.10718  1.0000
  C   C3        1.0  0.96834  0.10718  0.63066  1.0000
  C   C4        1.0  0.53166  0.36934  0.89282  1.0000
  C   C5        1.0  0.96351  0.03407  0.30519  1.0000
  C   C6        1.0  0.53649  0.69480  0.96593  1.0000
  C   C7        1.0  0.03648  0.96593  0.69481  1.0000
  C   C8        1.0  0.46351  0.30519  0.03407  1.0000
  C   C9        1.0  0.01244  0.11377  0.16515  1.0000
  C   C10       1.0  0.48756  0.83485  0.88623  1.0000
  C   C11       1.0  0.98755  0.88623  0.83485  1.0000
  C   C12       1.0  0.51244  0.16515  0.11377  1.0000
  C   C13       1.0  0.13029  0.05184  0.08835  1.0000
  C   C14       1.0  0.36972  0.91165  0.94816  1.0000
  C   C15       1.0  0.86971  0.94815  0.91166  1.0000
  C   C16       1.0  0.63029  0.08834  0.05185  1.0000
  C   C17       1.0  0.19157  0.12337  0.94342  1.0000
  C   C18       1.0  0.30843  0.05658  0.87663  1.0000
  C   C19       1.0  0.80842  0.87663  0.05659  1.0000
  C   C20       1.0  0.69158  0.94342  0.12337  1.0000
  C   C21       1.0  0.19120  0.90908  0.16155  1.0000
  C   C22       1.0  0.30881  0.83846  0.09092  1.0000
  C   C23       1.0  0.80881  0.09092  0.83846  1.0000
  C   C24       1.0  0.69119  0.16154  0.90908  1.0000
  C   C25       1.0  0.42186  0.34489  0.49231  1.0000
  C   C26       1.0  0.07815  0.50769  0.65511  1.0000
  C   C27       1.0  0.57814  0.65511  0.50768  1.0000
  C   C28       1.0  0.92185  0.49232  0.34489  1.0000
  C   C29       1.0  0.48881  0.21808  0.46113  1.0000
  C   C30       1.0  0.01119  0.53887  0.78192  1.0000
  C   C31       1.0  0.51120  0.78192  0.53886  1.0000
  C   C32       1.0  0.98880  0.46114  0.21808  1.0000
  N   N1        1.0  0.14281  0.83265  0.29899  1.0000
  N   N2        1.0  0.35720  0.70101  0.16735  1.0000
  N   N3        1.0  0.85719  0.16734  0.70102  1.0000
  N   N4        1.0  0.64280  0.29898  0.83266  1.0000
  O   O1        1.0  0.33659  0.44175  0.39540  1.0000
  O   O2        1.0  0.16343  0.60459  0.55825  1.0000
  O   O3        1.0  0.66343  0.55825  0.60459  1.0000
  O   O4        1.0  0.83657  0.39541  0.44175  1.0000
  O   O5        1.0  0.45614  0.33653  0.60056  1.0000
  O   O6        1.0  0.04386  0.39944  0.66347  1.0000
  O   O7        1.0  0.54385  0.66348  0.39943  1.0000
  O   O8        1.0  0.95614  0.60057  0.33652  1.0000
  F   F1        1.0  0.59670  0.11771  0.55410  1.0000
  F   F2        1.0  0.90330  0.44590  0.88229  1.0000
  F   F3        1.0  0.40331  0.88229  0.44589  1.0000
  F   F4        1.0  0.09670  0.55411  0.11771  1.0000
  F   F5        1.0  0.34794  0.15677  0.46522  1.0000
  F   F6        1.0  0.15207  0.53478  0.84322  1.0000
  F   F7        1.0  0.65207  0.84323  0.53477  1.0000
  F   F8        1.0  0.84793  0.46523  0.15677  1.0000
  F   F9        1.0  0.58501  0.25544  0.33270  1.0000
  F   F10       1.0  0.91499  0.66730  0.74456  1.0000
  F   F11       1.0  0.41499  0.74457  0.66729  1.0000
  F   F12       1.0  0.08501  0.33271  0.25543  1.0000
