data_image0
_chemical_formula_structural       Cd4H44C60N28O12
_chemical_formula_sum              "Cd4 H44 C60 N28 O12"
_cell_length_a       8.13766
_cell_length_b       11.0802
_cell_length_c       17.0407
_cell_angle_alpha    90
_cell_angle_beta     94.4342
_cell_angle_gamma    90

_space_group_name_H-M_alt    "P 1"
_space_group_IT_number       1

loop_
  _space_group_symop_operation_xyz
  'x, y, z'

loop_
  _atom_site_type_symbol
  _atom_site_label
  _atom_site_symmetry_multiplicity
  _atom_site_fract_x
  _atom_site_fract_y
  _atom_site_fract_z
  _atom_site_occupancy
  Cd  Cd1       1.0  0.76257  0.64919  0.18570  1.0000
  Cd  Cd2       1.0  0.73743  0.14919  0.31429  1.0000
  Cd  Cd3       1.0  0.23743  0.35081  0.81429  1.0000
  Cd  Cd4       1.0  0.26257  0.85081  0.68571  1.0000
  H   H1        1.0  0.38550  0.90260  0.96711  1.0000
  H   H2        1.0  0.11450  0.40260  0.53289  1.0000
  H   H3        1.0  0.61451  0.09741  0.03289  1.0000
  H   H4        1.0  0.88550  0.59740  0.46711  1.0000
  H   H5        1.0  0.15020  0.85727  0.18273  1.0000
  H   H6        1.0  0.34979  0.35727  0.31727  1.0000
  H   H7        1.0  0.84980  0.14274  0.81727  1.0000
  H   H8        1.0  0.65020  0.64273  0.68273  1.0000
  H   H9        1.0  0.14559  0.93878  0.04502  1.0000
  H   H10       1.0  0.35441  0.43878  0.45498  1.0000
  H   H11       1.0  0.85442  0.06122  0.95498  1.0000
  H   H12       1.0  0.64559  0.56122  0.54502  1.0000
  H   H13       1.0  0.06982  0.71416  0.91904  1.0000
  H   H14       1.0  0.43018  0.21416  0.58096  1.0000
  H   H15       1.0  0.93018  0.28584  0.08096  1.0000
  H   H16       1.0  0.56982  0.78584  0.41904  1.0000
  H   H17       1.0  0.22269  0.59099  0.97759  1.0000
  H   H18       1.0  0.27731  0.09099  0.52241  1.0000
  H   H19       1.0  0.77731  0.40901  0.02241  1.0000
  H   H20       1.0  0.72269  0.90902  0.47759  1.0000
  H   H21       1.0  0.58126  0.86440  0.90668  1.0000
  H   H22       1.0  0.91874  0.36439  0.59332  1.0000
  H   H23       1.0  0.41875  0.13560  0.09332  1.0000
  H   H24       1.0  0.08126  0.63560  0.40668  1.0000
  H   H25       1.0  0.84696  0.83055  0.84670  1.0000
  H   H26       1.0  0.65304  0.33055  0.65329  1.0000
  H   H27       1.0  0.15304  0.16945  0.15330  1.0000
  H   H28       1.0  0.34696  0.66945  0.34671  1.0000
  H   H29       1.0  0.37311  0.44881  0.20718  1.0000
  H   H30       1.0  0.12689  0.94881  0.29282  1.0000
  H   H31       1.0  0.62689  0.55118  0.79282  1.0000
  H   H32       1.0  0.87310  0.05119  0.70718  1.0000
  H   H33       1.0  0.10331  0.52139  0.25243  1.0000
  H   H34       1.0  0.39669  0.02139  0.24757  1.0000
  H   H35       1.0  0.89669  0.47860  0.74757  1.0000
  H   H36       1.0  0.60330  0.97860  0.75243  1.0000
  H   H37       1.0  0.40511  0.74790  0.23737  1.0000
  H   H38       1.0  0.09489  0.24790  0.26263  1.0000
  H   H39       1.0  0.59489  0.25210  0.76263  1.0000
  H   H40       1.0  0.90510  0.75210  0.73737  1.0000
  H   H41       1.0  0.43070  0.48347  0.06679  1.0000
  H   H42       1.0  0.06930  0.98346  0.43321  1.0000
  H   H43       1.0  0.56930  0.51653  0.93321  1.0000
  H   H44       1.0  0.93069  0.01654  0.56679  1.0000
  C   C1        1.0  0.38632  0.86763  0.02682  1.0000
  C   C2        1.0  0.11367  0.36762  0.47317  1.0000
  C   C3        1.0  0.61368  0.13238  0.97318  1.0000
  C   C4        1.0  0.88632  0.63238  0.52683  1.0000
  C   C5        1.0  0.25514  0.84531  0.14745  1.0000
  C   C6        1.0  0.24486  0.34531  0.35255  1.0000
  C   C7        1.0  0.74486  0.15469  0.85255  1.0000
  C   C8        1.0  0.75513  0.65469  0.64745  1.0000
  C   C9        1.0  0.25185  0.88901  0.07068  1.0000
  C   C10       1.0  0.24815  0.38901  0.42931  1.0000
  C   C11       1.0  0.74815  0.11099  0.92932  1.0000
  C   C12       1.0  0.75185  0.61099  0.57068  1.0000
  C   C13       1.0  0.52088  0.80195  0.06053  1.0000
  C   C14       1.0  0.97912  0.30195  0.43947  1.0000
  C   C15       1.0  0.47912  0.19805  0.93947  1.0000
  C   C16       1.0  0.02088  0.69805  0.56053  1.0000
  C   C17       1.0  0.05545  0.61799  0.06975  1.0000
  C   C18       1.0  0.44455  0.11799  0.43025  1.0000
  C   C19       1.0  0.94455  0.38201  0.93025  1.0000
  C   C20       1.0  0.55545  0.88201  0.56975  1.0000
  C   C21       1.0  0.95473  0.73086  0.94577  1.0000
  C   C22       1.0  0.54526  0.23085  0.55423  1.0000
  C   C23       1.0  0.04527  0.26915  0.05423  1.0000
  C   C24       1.0  0.45474  0.76915  0.44577  1.0000
  C   C25       1.0  0.92953  0.68851  0.02138  1.0000
  C   C26       1.0  0.57047  0.18850  0.47862  1.0000
  C   C27       1.0  0.07047  0.31150  0.97863  1.0000
  C   C28       1.0  0.42953  0.81150  0.52138  1.0000
  C   C29       1.0  0.66714  0.77557  0.01630  1.0000
  C   C30       1.0  0.83287  0.27557  0.48370  1.0000
  C   C31       1.0  0.33286  0.22443  0.98370  1.0000
  C   C32       1.0  0.16714  0.72443  0.51630  1.0000
  C   C33       1.0  0.20030  0.57665  0.03918  1.0000
  C   C34       1.0  0.29970  0.07664  0.46081  1.0000
  C   C35       1.0  0.79970  0.42336  0.96082  1.0000
  C   C36       1.0  0.70030  0.92336  0.53919  1.0000
  C   C37       1.0  0.68116  0.81592  0.93908  1.0000
  C   C38       1.0  0.81883  0.31591  0.56092  1.0000
  C   C39       1.0  0.31885  0.18408  0.06092  1.0000
  C   C40       1.0  0.18116  0.68408  0.43908  1.0000
  C   C41       1.0  0.82812  0.79473  0.90480  1.0000
  C   C42       1.0  0.67188  0.29473  0.59520  1.0000
  C   C43       1.0  0.17188  0.20527  0.09520  1.0000
  C   C44       1.0  0.32812  0.70527  0.40480  1.0000
  C   C45       1.0  0.28460  0.49507  0.16674  1.0000
  C   C46       1.0  0.21540  0.99507  0.33326  1.0000
  C   C47       1.0  0.71539  0.50492  0.83326  1.0000
  C   C48       1.0  0.78460  0.00493  0.66674  1.0000
  C   C49       1.0  0.13607  0.53609  0.19226  1.0000
  C   C50       1.0  0.36393  0.03609  0.30773  1.0000
  C   C51       1.0  0.86393  0.46391  0.80773  1.0000
  C   C52       1.0  0.63607  0.96391  0.69227  1.0000
  C   C53       1.0  0.39492  0.78296  0.17749  1.0000
  C   C54       1.0  0.10509  0.28296  0.32251  1.0000
  C   C55       1.0  0.60508  0.21704  0.82251  1.0000
  C   C56       1.0  0.89491  0.71704  0.67749  1.0000
  C   C57       1.0  0.31590  0.51524  0.08851  1.0000
  C   C58       1.0  0.18410  0.01524  0.41148  1.0000
  C   C59       1.0  0.68410  0.48476  0.91148  1.0000
  C   C60       1.0  0.81589  0.98476  0.58852  1.0000
  N   N1        1.0  0.69102  0.54342  0.34054  1.0000
  N   N2        1.0  0.80898  0.04341  0.15946  1.0000
  N   N3        1.0  0.30898  0.45658  0.65946  1.0000
  N   N4        1.0  0.19102  0.95659  0.84055  1.0000
  N   N5        1.0  0.84082  0.86997  0.30696  1.0000
  N   N6        1.0  0.65918  0.36996  0.19304  1.0000
  N   N7        1.0  0.15918  0.13003  0.69304  1.0000
  N   N8        1.0  0.34082  0.63003  0.80696  1.0000
  N   N9        1.0  0.79352  0.93975  0.35299  1.0000
  N   N10       1.0  0.70649  0.43975  0.14700  1.0000
  N   N11       1.0  0.20648  0.06025  0.64701  1.0000
  N   N12       1.0  0.29351  0.56025  0.85300  1.0000
  N   N13       1.0  0.78892  0.71251  0.05459  1.0000
  N   N14       1.0  0.71107  0.21251  0.44541  1.0000
  N   N15       1.0  0.21108  0.28749  0.94541  1.0000
  N   N16       1.0  0.28892  0.78749  0.55459  1.0000
  N   N17       1.0  0.52383  0.76104  0.13526  1.0000
  N   N18       1.0  0.97617  0.26104  0.36473  1.0000
  N   N19       1.0  0.47617  0.23896  0.86474  1.0000
  N   N20       1.0  0.02382  0.73896  0.63527  1.0000
  N   N21       1.0  0.02494  0.59588  0.14510  1.0000
  N   N22       1.0  0.47506  0.09588  0.35489  1.0000
  N   N23       1.0  0.97506  0.40412  0.85490  1.0000
  N   N24       1.0  0.52494  0.90412  0.64511  1.0000
  N   N25       1.0  0.89479  0.80161  0.26214  1.0000
  N   N26       1.0  0.60521  0.30162  0.23786  1.0000
  N   N27       1.0  0.10521  0.19838  0.73786  1.0000
  N   N28       1.0  0.39479  0.69838  0.76214  1.0000
  O   O1        1.0  0.59191  0.59739  0.28863  1.0000
  O   O2        1.0  0.90809  0.09738  0.21137  1.0000
  O   O3        1.0  0.40809  0.40261  0.71137  1.0000
  O   O4        1.0  0.09191  0.90261  0.78863  1.0000
  O   O5        1.0  0.63580  0.50002  0.40073  1.0000
  O   O6        1.0  0.86421  0.00000  0.09928  1.0000
  O   O7        1.0  0.36420  0.49999  0.59927  1.0000
  O   O8        1.0  0.13580  0.99999  0.90073  1.0000
  O   O9        1.0  0.84268  0.53739  0.32814  1.0000
  O   O10       1.0  0.65732  0.03739  0.17185  1.0000
  O   O11       1.0  0.15732  0.46261  0.67185  1.0000
  O   O12       1.0  0.34268  0.96261  0.82815  1.0000
