data_image0
_chemical_formula_structural       Cd4H32C48N28O12
_chemical_formula_sum              "Cd4 H32 C48 N28 O12"
_cell_length_a       9.09251
_cell_length_b       12.3951
_cell_length_c       14.3126
_cell_angle_alpha    90
_cell_angle_beta     106.895
_cell_angle_gamma    90

_space_group_name_H-M_alt    "P 1"
_space_group_IT_number       1

loop_
  _space_group_symop_operation_xyz
  'x, y, z'

loop_
  _atom_site_type_symbol
  _atom_site_label
  _atom_site_symmetry_multiplicity
  _atom_site_fract_x
  _atom_site_fract_y
  _atom_site_fract_z
  _atom_site_occupancy
  Cd  Cd1       1.0  0.16873  0.45464  0.09624  1.0000
  Cd  Cd2       1.0  0.83127  0.95463  0.40377  1.0000
  Cd  Cd3       1.0  0.83126  0.54536  0.90375  1.0000
  Cd  Cd4       1.0  0.16874  0.04537  0.59625  1.0000
  H   H1        1.0  0.09047  0.68981  0.18176  1.0000
  H   H2        1.0  0.90954  0.18981  0.31824  1.0000
  H   H3        1.0  0.90953  0.31019  0.81823  1.0000
  H   H4        1.0  0.09047  0.81019  0.68178  1.0000
  H   H5        1.0  0.22629  0.85878  0.25455  1.0000
  H   H6        1.0  0.77372  0.35877  0.24545  1.0000
  H   H7        1.0  0.77370  0.14122  0.74544  1.0000
  H   H8        1.0  0.22630  0.64122  0.75456  1.0000
  H   H9        1.0  0.48869  0.89596  0.23455  1.0000
  H   H10       1.0  0.51132  0.39596  0.26545  1.0000
  H   H11       1.0  0.51131  0.10403  0.76545  1.0000
  H   H12       1.0  0.48869  0.60403  0.73455  1.0000
  H   H13       1.0  0.59320  0.77091  0.13353  1.0000
  H   H14       1.0  0.40680  0.27091  0.36647  1.0000
  H   H15       1.0  0.40680  0.22909  0.86647  1.0000
  H   H16       1.0  0.59320  0.72910  0.63353  1.0000
  H   H17       1.0  0.63430  0.20932  0.05011  1.0000
  H   H18       1.0  0.36569  0.70932  0.44989  1.0000
  H   H19       1.0  0.36570  0.79068  0.94989  1.0000
  H   H20       1.0  0.63430  0.29068  0.55011  1.0000
  H   H21       1.0  0.56590  0.03773  0.11821  1.0000
  H   H22       1.0  0.43409  0.53774  0.38179  1.0000
  H   H23       1.0  0.43410  0.96227  0.88179  1.0000
  H   H24       1.0  0.56590  0.46227  0.61821  1.0000
  H   H25       1.0  0.31257  0.02946  0.15923  1.0000
  H   H26       1.0  0.68742  0.52946  0.34077  1.0000
  H   H27       1.0  0.68743  0.97054  0.84077  1.0000
  H   H28       1.0  0.31257  0.47055  0.65923  1.0000
  H   H29       1.0  0.15082  0.19384  0.13699  1.0000
  H   H30       1.0  0.84918  0.69384  0.36301  1.0000
  H   H31       1.0  0.84918  0.80616  0.86301  1.0000
  H   H32       1.0  0.15082  0.30616  0.63699  1.0000
  C   C1        1.0  0.20246  0.71003  0.17322  1.0000
  C   C2        1.0  0.79755  0.21003  0.32678  1.0000
  C   C3        1.0  0.79753  0.28997  0.82676  1.0000
  C   C4        1.0  0.20247  0.78997  0.67324  1.0000
  C   C5        1.0  0.27862  0.80433  0.21357  1.0000
  C   C6        1.0  0.72139  0.30433  0.28643  1.0000
  C   C7        1.0  0.72138  0.19566  0.78642  1.0000
  C   C8        1.0  0.27862  0.69566  0.71358  1.0000
  C   C9        1.0  0.42204  0.82578  0.20096  1.0000
  C   C10       1.0  0.57796  0.32578  0.29904  1.0000
  C   C11       1.0  0.57795  0.17422  0.79904  1.0000
  C   C12       1.0  0.42205  0.67422  0.70096  1.0000
  C   C13       1.0  0.48202  0.75558  0.14523  1.0000
  C   C14       1.0  0.51799  0.25558  0.35477  1.0000
  C   C15       1.0  0.51799  0.24441  0.85476  1.0000
  C   C16       1.0  0.48201  0.74442  0.64524  1.0000
  C   C17       1.0  0.39661  0.66428  0.10531  1.0000
  C   C18       1.0  0.60340  0.16427  0.39469  1.0000
  C   C19       1.0  0.60339  0.33572  0.89468  1.0000
  C   C20       1.0  0.39661  0.83573  0.60532  1.0000
  C   C21       1.0  0.45137  0.58305  0.04681  1.0000
  C   C22       1.0  0.54863  0.08305  0.45319  1.0000
  C   C23       1.0  0.54863  0.41695  0.95318  1.0000
  C   C24       1.0  0.45137  0.91695  0.54682  1.0000
  C   C25       1.0  0.46482  0.39697  0.02092  1.0000
  C   C26       1.0  0.53518  0.89698  0.47908  1.0000
  C   C27       1.0  0.53519  0.60302  0.97907  1.0000
  C   C28       1.0  0.46482  0.10303  0.52093  1.0000
  C   C29       1.0  0.42606  0.29026  0.05463  1.0000
  C   C30       1.0  0.57393  0.79026  0.44537  1.0000
  C   C31       1.0  0.57393  0.70974  0.94536  1.0000
  C   C32       1.0  0.42607  0.20974  0.55464  1.0000
  C   C33       1.0  0.52568  0.20205  0.06717  1.0000
  C   C34       1.0  0.47432  0.70206  0.43283  1.0000
  C   C35       1.0  0.47432  0.79794  0.93284  1.0000
  C   C36       1.0  0.52568  0.29795  0.56716  1.0000
  C   C37       1.0  0.48696  0.10613  0.10508  1.0000
  C   C38       1.0  0.51304  0.60613  0.39493  1.0000
  C   C39       1.0  0.51304  0.89387  0.89493  1.0000
  C   C40       1.0  0.48696  0.39387  0.60507  1.0000
  C   C41       1.0  0.34891  0.10136  0.12852  1.0000
  C   C42       1.0  0.65108  0.60136  0.37148  1.0000
  C   C43       1.0  0.65109  0.89865  0.87148  1.0000
  C   C44       1.0  0.34891  0.39865  0.62852  1.0000
  C   C45       1.0  0.25686  0.19332  0.11604  1.0000
  C   C46       1.0  0.74313  0.69332  0.38396  1.0000
  C   C47       1.0  0.74313  0.80668  0.88396  1.0000
  C   C48       1.0  0.25686  0.30668  0.61604  1.0000
  N   N1        1.0  0.26146  0.64060  0.12199  1.0000
  N   N2        1.0  0.73854  0.14060  0.37801  1.0000
  N   N3        1.0  0.73853  0.35940  0.87800  1.0000
  N   N4        1.0  0.26147  0.85940  0.62201  1.0000
  N   N5        1.0  0.41791  0.48109  0.06343  1.0000
  N   N6        1.0  0.58209  0.98109  0.43657  1.0000
  N   N7        1.0  0.58209  0.51891  0.93656  1.0000
  N   N8        1.0  0.41791  0.01891  0.56344  1.0000
  N   N9        1.0  0.29505  0.28621  0.08128  1.0000
  N   N10       1.0  0.70495  0.78621  0.41872  1.0000
  N   N11       1.0  0.70495  0.71379  0.91871  1.0000
  N   N12       1.0  0.29505  0.21379  0.58129  1.0000
  N   N13       1.0  0.93054  0.53485  0.07478  1.0000
  N   N14       1.0  0.06947  0.03485  0.42522  1.0000
  N   N15       1.0  0.06946  0.46515  0.92521  1.0000
  N   N16       1.0  0.93054  0.96515  0.57479  1.0000
  N   N17       1.0  0.85744  0.53937  0.13262  1.0000
  N   N18       1.0  0.14256  0.03937  0.36738  1.0000
  N   N19       1.0  0.14256  0.46062  0.86737  1.0000
  N   N20       1.0  0.85743  0.96062  0.63264  1.0000
  N   N21       1.0  0.78548  0.54485  0.18796  1.0000
  N   N22       1.0  0.21452  0.04485  0.31204  1.0000
  N   N23       1.0  0.21453  0.45514  0.81203  1.0000
  N   N24       1.0  0.78548  0.95514  0.68797  1.0000
  N   N25       1.0  0.14373  0.36500  0.28102  1.0000
  N   N26       1.0  0.85627  0.86501  0.21898  1.0000
  N   N27       1.0  0.85627  0.63500  0.71897  1.0000
  N   N28       1.0  0.14373  0.13500  0.78103  1.0000
  O   O1        1.0  0.24121  0.43674  0.26894  1.0000
  O   O2        1.0  0.75879  0.93674  0.23106  1.0000
  O   O3        1.0  0.75879  0.56327  0.73105  1.0000
  O   O4        1.0  0.24121  0.06327  0.76895  1.0000
  O   O5        1.0  0.04211  0.33140  0.20543  1.0000
  O   O6        1.0  0.95789  0.83140  0.29457  1.0000
  O   O7        1.0  0.95789  0.66860  0.79456  1.0000
  O   O8        1.0  0.04211  0.16860  0.70544  1.0000
  O   O9        1.0  0.15338  0.33105  0.36437  1.0000
  O   O10       1.0  0.84662  0.83106  0.13562  1.0000
  O   O11       1.0  0.84664  0.66896  0.63562  1.0000
  O   O12       1.0  0.15337  0.16896  0.86438  1.0000
