data_image0
_chemical_formula_structural       Cd2H16C24N18
_chemical_formula_sum              "Cd2 H16 C24 N18"
_cell_length_a       7.98115
_cell_length_b       8.82664
_cell_length_c       10.1075
_cell_angle_alpha    75.7683
_cell_angle_beta     73.8878
_cell_angle_gamma    82.7674

_space_group_name_H-M_alt    "P 1"
_space_group_IT_number       1

loop_
  _space_group_symop_operation_xyz
  'x, y, z'

loop_
  _atom_site_type_symbol
  _atom_site_label
  _atom_site_symmetry_multiplicity
  _atom_site_fract_x
  _atom_site_fract_y
  _atom_site_fract_z
  _atom_site_occupancy
  Cd  Cd1       1.0  0.20711  0.87381  0.45874  1.0000
  Cd  Cd2       1.0  0.79288  0.12618  0.54126  1.0000
  H   H1        1.0  0.70509  0.96045  0.87004  1.0000
  H   H2        1.0  0.29491  0.03955  0.12997  1.0000
  H   H3        1.0  0.85998  0.22226  0.12047  1.0000
  H   H4        1.0  0.14002  0.77774  0.87953  1.0000
  H   H5        1.0  0.98340  0.41257  0.89839  1.0000
  H   H6        1.0  0.01660  0.58742  0.10161  1.0000
  H   H7        1.0  0.49743  0.77974  0.65216  1.0000
  H   H8        1.0  0.50257  0.22026  0.34784  1.0000
  H   H9        1.0  0.25042  0.26819  0.76627  1.0000
  H   H10       1.0  0.74958  0.73181  0.23374  1.0000
  H   H11       1.0  0.61279  0.56123  0.81690  1.0000
  H   H12       1.0  0.38721  0.43878  0.18310  1.0000
  H   H13       1.0  0.71040  0.99236  0.10708  1.0000
  H   H14       1.0  0.28960  0.00764  0.89292  1.0000
  H   H15       1.0  0.48606  0.29625  0.87530  1.0000
  H   H16       1.0  0.51394  0.70376  0.12470  1.0000
  C   C1        1.0  0.76898  0.05723  0.88064  1.0000
  C   C2        1.0  0.23102  0.94277  0.11936  1.0000
  C   C3        1.0  0.97342  0.39527  0.62844  1.0000
  C   C4        1.0  0.02658  0.60473  0.37156  1.0000
  C   C5        1.0  0.85349  0.20337  0.01964  1.0000
  C   C6        1.0  0.14651  0.79663  0.98037  1.0000
  C   C7        1.0  0.92592  0.30883  0.89500  1.0000
  C   C8        1.0  0.07408  0.69116  0.10500  1.0000
  C   C9        1.0  0.24448  0.51037  0.65682  1.0000
  C   C10       1.0  0.75552  0.48963  0.34318  1.0000
  C   C11       1.0  0.10923  0.50031  0.58380  1.0000
  C   C12       1.0  0.89077  0.49969  0.41620  1.0000
  C   C13       1.0  0.44336  0.66524  0.68149  1.0000
  C   C14       1.0  0.55664  0.33476  0.31851  1.0000
  C   C15       1.0  0.30558  0.38059  0.74576  1.0000
  C   C16       1.0  0.69442  0.61942  0.25424  1.0000
  C   C17       1.0  0.91706  0.28227  0.76621  1.0000
  C   C18       1.0  0.08294  0.71773  0.23379  1.0000
  C   C19       1.0  0.50845  0.54187  0.77356  1.0000
  C   C20       1.0  0.49155  0.45814  0.22644  1.0000
  C   C21       1.0  0.77321  0.07530  0.01273  1.0000
  C   C22       1.0  0.22679  0.92470  0.98727  1.0000
  C   C23       1.0  0.43804  0.39671  0.80567  1.0000
  C   C24       1.0  0.56196  0.60329  0.19433  1.0000
  N   N1        1.0  0.31443  0.65113  0.62462  1.0000
  N   N2        1.0  0.68557  0.34887  0.37538  1.0000
  N   N3        1.0  0.12714  0.60086  0.45861  1.0000
  N   N4        1.0  0.87286  0.39913  0.54139  1.0000
  N   N5        1.0  0.83879  0.15783  0.76069  1.0000
  N   N6        1.0  0.16121  0.84217  0.23931  1.0000
  N   N7        1.0  0.47411  0.94415  0.31630  1.0000
  N   N8        1.0  0.52589  0.05586  0.68370  1.0000
  N   N9        1.0  0.60086  0.94832  0.35598  1.0000
  N   N10       1.0  0.39912  0.05168  0.64401  1.0000
  N   N11       1.0  0.85772  0.68002  0.83376  1.0000
  N   N12       1.0  0.14228  0.31998  0.16624  1.0000
  N   N13       1.0  0.93216  0.86435  0.61517  1.0000
  N   N14       1.0  0.06784  0.13564  0.38483  1.0000
  N   N15       1.0  0.89533  0.77115  0.72564  1.0000
  N   N16       1.0  0.10467  0.22885  0.27435  1.0000
  N   N17       1.0  0.73239  0.95295  0.38592  1.0000
  N   N18       1.0  0.26761  0.04705  0.61407  1.0000
