data_image0
_chemical_formula_structural       Cu12H40C56N16Cl12
_chemical_formula_sum              "Cu12 H40 C56 N16 Cl12"
_cell_length_a       5.04562
_cell_length_b       16.5003
_cell_length_c       18.6778
_cell_angle_alpha    90
_cell_angle_beta     90
_cell_angle_gamma    90

_space_group_name_H-M_alt    "P 1"
_space_group_IT_number       1

loop_
  _space_group_symop_operation_xyz
  'x, y, z'

loop_
  _atom_site_type_symbol
  _atom_site_label
  _atom_site_symmetry_multiplicity
  _atom_site_fract_x
  _atom_site_fract_y
  _atom_site_fract_z
  _atom_site_occupancy
  Cu  Cu1       1.0  0.70553  0.06220  0.78839  1.0000
  Cu  Cu2       1.0  0.29447  0.56220  0.21161  1.0000
  Cu  Cu3       1.0  0.79447  0.06220  0.28839  1.0000
  Cu  Cu4       1.0  0.20553  0.56220  0.71161  1.0000
  Cu  Cu5       1.0  0.64692  0.02302  0.56700  1.0000
  Cu  Cu6       1.0  0.35309  0.52301  0.43300  1.0000
  Cu  Cu7       1.0  0.85309  0.02301  0.06700  1.0000
  Cu  Cu8       1.0  0.14692  0.52302  0.93300  1.0000
  Cu  Cu9       1.0  0.08120  0.10832  0.66438  1.0000
  Cu  Cu10      1.0  0.91880  0.60831  0.33562  1.0000
  Cu  Cu11      1.0  0.41880  0.10832  0.16438  1.0000
  Cu  Cu12      1.0  0.58120  0.60832  0.83562  1.0000
  H   H1        1.0  0.15204  0.93590  0.76946  1.0000
  H   H2        1.0  0.84795  0.43590  0.23054  1.0000
  H   H3        1.0  0.34795  0.93590  0.26946  1.0000
  H   H4        1.0  0.65204  0.43590  0.73054  1.0000
  H   H5        1.0  0.21113  0.79204  0.81174  1.0000
  H   H6        1.0  0.78887  0.29204  0.18826  1.0000
  H   H7        1.0  0.28887  0.79204  0.31174  1.0000
  H   H8        1.0  0.71113  0.29204  0.68826  1.0000
  H   H9        1.0  0.88899  0.73663  0.90122  1.0000
  H   H10       1.0  0.11101  0.23663  0.09879  1.0000
  H   H11       1.0  0.61100  0.73663  0.40121  1.0000
  H   H12       1.0  0.38899  0.23663  0.59878  1.0000
  H   H13       1.0  0.54479  0.82773  0.95134  1.0000
  H   H14       1.0  0.45521  0.32773  0.04866  1.0000
  H   H15       1.0  0.95521  0.82773  0.45134  1.0000
  H   H16       1.0  0.04479  0.32773  0.54866  1.0000
  H   H17       1.0  0.92975  0.14027  0.95880  1.0000
  H   H18       1.0  0.07025  0.64027  0.04120  1.0000
  H   H19       1.0  0.57026  0.14027  0.45880  1.0000
  H   H20       1.0  0.42974  0.64027  0.54120  1.0000
  H   H21       1.0  0.25837  0.16710  0.85890  1.0000
  H   H22       1.0  0.74163  0.66710  0.14110  1.0000
  H   H23       1.0  0.24163  0.16710  0.35890  1.0000
  H   H24       1.0  0.75837  0.66710  0.64110  1.0000
  H   H25       1.0  0.03367  0.85447  0.01280  1.0000
  H   H26       1.0  0.96633  0.35447  0.98720  1.0000
  H   H27       1.0  0.46633  0.85447  0.51280  1.0000
  H   H28       1.0  0.53367  0.35447  0.48720  1.0000
  H   H29       1.0  0.11909  0.75331  0.11162  1.0000
  H   H30       1.0  0.88091  0.25332  0.88838  1.0000
  H   H31       1.0  0.38091  0.75331  0.61162  1.0000
  H   H32       1.0  0.61909  0.25331  0.38838  1.0000
  H   H33       1.0  0.51511  0.77353  0.18984  1.0000
  H   H34       1.0  0.48489  0.27353  0.81016  1.0000
  H   H35       1.0  0.98490  0.77353  0.68984  1.0000
  H   H36       1.0  0.01511  0.27353  0.31016  1.0000
  H   H37       1.0  0.81305  0.89174  0.16628  1.0000
  H   H38       1.0  0.18696  0.39174  0.83373  1.0000
  H   H39       1.0  0.68696  0.89174  0.66627  1.0000
  H   H40       1.0  0.31305  0.39174  0.33372  1.0000
  C   C1        1.0  0.02426  0.90998  0.81069  1.0000
  C   C2        1.0  0.97574  0.40998  0.18931  1.0000
  C   C3        1.0  0.47574  0.90998  0.31069  1.0000
  C   C4        1.0  0.52426  0.40998  0.68931  1.0000
  C   C5        1.0  0.05552  0.83036  0.83389  1.0000
  C   C6        1.0  0.94448  0.33037  0.16611  1.0000
  C   C7        1.0  0.44447  0.83037  0.33389  1.0000
  C   C8        1.0  0.55552  0.33036  0.66611  1.0000
  C   C9        1.0  0.87802  0.79979  0.88430  1.0000
  C   C10       1.0  0.12198  0.29979  0.11570  1.0000
  C   C11       1.0  0.62198  0.79979  0.38430  1.0000
  C   C12       1.0  0.37802  0.29979  0.61570  1.0000
  C   C13       1.0  0.68730  0.85140  0.91305  1.0000
  C   C14       1.0  0.31270  0.35140  0.08695  1.0000
  C   C15       1.0  0.81271  0.85140  0.41305  1.0000
  C   C16       1.0  0.18730  0.35140  0.58695  1.0000
  C   C17       1.0  0.67688  0.93229  0.89057  1.0000
  C   C18       1.0  0.32312  0.43229  0.10943  1.0000
  C   C19       1.0  0.82313  0.93229  0.39056  1.0000
  C   C20       1.0  0.17688  0.43229  0.60944  1.0000
  C   C21       1.0  0.48628  0.99283  0.91805  1.0000
  C   C22       1.0  0.51372  0.49283  0.08195  1.0000
  C   C23       1.0  0.01371  0.99283  0.41805  1.0000
  C   C24       1.0  0.98629  0.49283  0.58195  1.0000
  C   C25       1.0  0.33238  0.98559  0.98089  1.0000
  C   C26       1.0  0.66762  0.48559  0.01911  1.0000
  C   C27       1.0  0.16762  0.98559  0.48089  1.0000
  C   C28       1.0  0.83238  0.48559  0.51911  1.0000
  C   C29       1.0  0.09658  0.10015  0.94808  1.0000
  C   C30       1.0  0.90342  0.60015  0.05193  1.0000
  C   C31       1.0  0.40343  0.10015  0.44807  1.0000
  C   C32       1.0  0.59658  0.60015  0.55192  1.0000
  C   C33       1.0  0.27324  0.11370  0.89268  1.0000
  C   C34       1.0  0.72676  0.61370  0.10732  1.0000
  C   C35       1.0  0.22676  0.11370  0.39268  1.0000
  C   C36       1.0  0.77324  0.61370  0.60732  1.0000
  C   C37       1.0  0.38025  0.92420  0.03791  1.0000
  C   C38       1.0  0.61975  0.42420  0.96209  1.0000
  C   C39       1.0  0.11975  0.92420  0.53791  1.0000
  C   C40       1.0  0.88025  0.42420  0.46209  1.0000
  C   C41       1.0  0.20344  0.86025  0.04823  1.0000
  C   C42       1.0  0.79656  0.36025  0.95177  1.0000
  C   C43       1.0  0.29656  0.86025  0.54823  1.0000
  C   C44       1.0  0.70344  0.36025  0.45177  1.0000
  C   C45       1.0  0.25207  0.80409  0.10220  1.0000
  C   C46       1.0  0.74794  0.30409  0.89780  1.0000
  C   C47       1.0  0.24793  0.80409  0.60219  1.0000
  C   C48       1.0  0.75206  0.30409  0.39780  1.0000
  C   C49       1.0  0.47377  0.81481  0.14575  1.0000
  C   C50       1.0  0.52623  0.31481  0.85425  1.0000
  C   C51       1.0  0.02623  0.81481  0.64575  1.0000
  C   C52       1.0  0.97377  0.31481  0.35425  1.0000
  C   C53       1.0  0.63964  0.88020  0.13303  1.0000
  C   C54       1.0  0.36036  0.38021  0.86697  1.0000
  C   C55       1.0  0.86037  0.88021  0.63303  1.0000
  C   C56       1.0  0.13964  0.38020  0.36697  1.0000
  N   N1        1.0  0.83728  0.95994  0.83708  1.0000
  N   N2        1.0  0.16272  0.45995  0.16292  1.0000
  N   N3        1.0  0.66272  0.95995  0.33708  1.0000
  N   N4        1.0  0.33728  0.45994  0.66292  1.0000
  N   N5        1.0  0.45868  0.05913  0.87559  1.0000
  N   N6        1.0  0.54132  0.55913  0.12441  1.0000
  N   N7        1.0  0.04132  0.05913  0.37559  1.0000
  N   N8        1.0  0.95868  0.55913  0.62441  1.0000
  N   N9        1.0  0.12554  0.03663  0.99274  1.0000
  N   N10       1.0  0.87447  0.53663  0.00726  1.0000
  N   N11       1.0  0.37447  0.03663  0.49274  1.0000
  N   N12       1.0  0.62553  0.53663  0.50726  1.0000
  N   N13       1.0  0.59792  0.93417  0.07963  1.0000
  N   N14       1.0  0.40208  0.43417  0.92037  1.0000
  N   N15       1.0  0.90209  0.93417  0.57962  1.0000
  N   N16       1.0  0.09792  0.43417  0.42037  1.0000
  Cl  Cl1       1.0  0.43071  0.02920  0.68567  1.0000
  Cl  Cl2       1.0  0.56929  0.52920  0.31432  1.0000
  Cl  Cl3       1.0  0.06929  0.02920  0.18568  1.0000
  Cl  Cl4       1.0  0.93071  0.52920  0.81432  1.0000
  Cl  Cl5       1.0  0.90938  0.17865  0.75902  1.0000
  Cl  Cl6       1.0  0.09062  0.67865  0.24098  1.0000
  Cl  Cl7       1.0  0.59062  0.17865  0.25902  1.0000
  Cl  Cl8       1.0  0.40938  0.67865  0.74098  1.0000
  Cl  Cl9       1.0  0.88023  0.14958  0.56410  1.0000
  Cl  Cl10      1.0  0.11976  0.64958  0.43590  1.0000
  Cl  Cl11      1.0  0.61976  0.14958  0.06410  1.0000
  Cl  Cl12      1.0  0.38024  0.64958  0.93590  1.0000
