data_image0
_chemical_formula_structural       Cu4H20C28Br4N8
_chemical_formula_sum              "Cu4 H20 C28 Br4 N8"
_cell_length_a       9.21332
_cell_length_b       9.93034
_cell_length_c       9.93045
_cell_angle_alpha    114.739
_cell_angle_beta     102.018
_cell_angle_gamma    102.017

_space_group_name_H-M_alt    "P 1"
_space_group_IT_number       1

loop_
  _space_group_symop_operation_xyz
  'x, y, z'

loop_
  _atom_site_type_symbol
  _atom_site_label
  _atom_site_symmetry_multiplicity
  _atom_site_fract_x
  _atom_site_fract_y
  _atom_site_fract_z
  _atom_site_occupancy
  Cu  Cu1       1.0  0.87546  0.81803  0.13466  1.0000
  Cu  Cu2       1.0  0.37546  0.13467  0.81803  1.0000
  Cu  Cu3       1.0  0.12454  0.18197  0.86533  1.0000
  Cu  Cu4       1.0  0.62454  0.86533  0.18197  1.0000
  H   H1        1.0  0.69082  0.55183  0.18826  1.0000
  H   H2        1.0  0.19082  0.18826  0.55183  1.0000
  H   H3        1.0  0.30918  0.44817  0.81174  1.0000
  H   H4        1.0  0.80918  0.81174  0.44817  1.0000
  H   H5        1.0  0.75956  0.34342  0.24183  1.0000
  H   H6        1.0  0.25956  0.24184  0.34342  1.0000
  H   H7        1.0  0.24044  0.65658  0.75816  1.0000
  H   H8        1.0  0.74044  0.75816  0.65658  1.0000
  H   H9        1.0  0.02738  0.32218  0.25298  1.0000
  H   H10       1.0  0.52738  0.25298  0.32218  1.0000
  H   H11       1.0  0.97262  0.67782  0.74702  1.0000
  H   H12       1.0  0.47262  0.74702  0.67782  1.0000
  H   H13       1.0  0.21753  0.51150  0.21542  1.0000
  H   H14       1.0  0.71753  0.21542  0.51150  1.0000
  H   H15       1.0  0.78247  0.48850  0.78458  1.0000
  H   H16       1.0  0.28247  0.78458  0.48850  1.0000
  H   H17       1.0  0.11553  0.98597  0.01889  1.0000
  H   H18       1.0  0.61553  0.01890  0.98597  1.0000
  H   H19       1.0  0.88448  0.01403  0.98111  1.0000
  H   H20       1.0  0.38448  0.98110  0.01403  1.0000
  C   C1        1.0  0.80922  0.54458  0.20437  1.0000
  C   C2        1.0  0.30922  0.20437  0.54458  1.0000
  C   C3        1.0  0.19078  0.45542  0.79563  1.0000
  C   C4        1.0  0.69078  0.79563  0.45542  1.0000
  C   C5        1.0  0.84694  0.42715  0.23073  1.0000
  C   C6        1.0  0.34694  0.23073  0.42715  1.0000
  C   C7        1.0  0.15306  0.57285  0.76927  1.0000
  C   C8        1.0  0.65306  0.76927  0.57285  1.0000
  C   C9        1.0  0.99714  0.41685  0.23852  1.0000
  C   C10       1.0  0.49714  0.23852  0.41685  1.0000
  C   C11       1.0  0.00286  0.58315  0.76148  1.0000
  C   C12       1.0  0.50286  0.76148  0.58315  1.0000
  C   C13       1.0  0.10412  0.52420  0.22104  1.0000
  C   C14       1.0  0.60412  0.22105  0.52421  1.0000
  C   C15       1.0  0.89588  0.47580  0.77895  1.0000
  C   C16       1.0  0.39588  0.77896  0.47580  1.0000
  C   C17       1.0  0.06227  0.64672  0.20688  1.0000
  C   C18       1.0  0.56227  0.20689  0.64672  1.0000
  C   C19       1.0  0.93773  0.35328  0.79311  1.0000
  C   C20       1.0  0.43773  0.79312  0.35329  1.0000
  C   C21       1.0  0.16692  0.76752  0.18949  1.0000
  C   C22       1.0  0.66692  0.18949  0.76752  1.0000
  C   C23       1.0  0.83308  0.23247  0.81051  1.0000
  C   C24       1.0  0.33308  0.81051  0.23248  1.0000
  C   C25       1.0  0.17341  0.92489  0.06976  1.0000
  C   C26       1.0  0.67341  0.06976  0.92489  1.0000
  C   C27       1.0  0.82659  0.07511  0.93024  1.0000
  C   C28       1.0  0.32659  0.93024  0.07511  1.0000
  Br  Br1       1.0  0.87897  0.08133  0.30795  1.0000
  Br  Br2       1.0  0.37896  0.30794  0.08132  1.0000
  Br  Br3       1.0  0.12103  0.91867  0.69206  1.0000
  Br  Br4       1.0  0.62103  0.69206  0.91867  1.0000
  N   N1        1.0  0.91539  0.65521  0.19764  1.0000
  N   N2        1.0  0.41539  0.19764  0.65521  1.0000
  N   N3        1.0  0.08461  0.34479  0.80236  1.0000
  N   N4        1.0  0.58461  0.80236  0.34479  1.0000
  N   N5        1.0  0.09191  0.83785  0.11944  1.0000
  N   N6        1.0  0.59191  0.11944  0.83785  1.0000
  N   N7        1.0  0.90808  0.16215  0.88056  1.0000
  N   N8        1.0  0.40809  0.88056  0.16216  1.0000
