data_image0
_chemical_formula_structural       Zn2H16C20N28
_chemical_formula_sum              "Zn2 H16 C20 N28"
_cell_length_a       8.22066
_cell_length_b       8.19502
_cell_length_c       11.8475
_cell_angle_alpha    109.985
_cell_angle_beta     90.9754
_cell_angle_gamma    98.8298

_space_group_name_H-M_alt    "P 1"
_space_group_IT_number       1

loop_
  _space_group_symop_operation_xyz
  'x, y, z'

loop_
  _atom_site_type_symbol
  _atom_site_label
  _atom_site_symmetry_multiplicity
  _atom_site_fract_x
  _atom_site_fract_y
  _atom_site_fract_z
  _atom_site_occupancy
  Zn  Zn1       1.0  0.29984  0.98402  0.51988  1.0000
  Zn  Zn2       1.0  0.70016  0.01598  0.48012  1.0000
  H   H1        1.0  0.33818  0.13947  0.79558  1.0000
  H   H2        1.0  0.66181  0.86053  0.20442  1.0000
  H   H3        1.0  0.35621  0.03789  0.96995  1.0000
  H   H4        1.0  0.64379  0.96211  0.03005  1.0000
  H   H5        1.0  0.29600  0.50390  0.71497  1.0000
  H   H6        1.0  0.70401  0.49609  0.28503  1.0000
  H   H7        1.0  0.28405  0.63130  0.55106  1.0000
  H   H8        1.0  0.71596  0.36870  0.44894  1.0000
  H   H9        1.0  0.28334  0.33700  0.49569  1.0000
  H   H10       1.0  0.71666  0.66300  0.50431  1.0000
  H   H11       1.0  0.17267  0.46017  0.34942  1.0000
  H   H12       1.0  0.82733  0.53983  0.65058  1.0000
  H   H13       1.0  0.10085  0.93213  0.08532  1.0000
  H   H14       1.0  0.89915  0.06787  0.91468  1.0000
  H   H15       1.0  0.20868  0.83259  0.24449  1.0000
  H   H16       1.0  0.79132  0.16741  0.75551  1.0000
  C   C1        1.0  0.33222  0.00033  0.78121  1.0000
  C   C2        1.0  0.66778  0.99967  0.21880  1.0000
  C   C3        1.0  0.34149  0.94345  0.87840  1.0000
  C   C4        1.0  0.65851  0.05655  0.12160  1.0000
  C   C5        1.0  0.32982  0.76257  0.85636  1.0000
  C   C6        1.0  0.67018  0.23743  0.14364  1.0000
  C   C7        1.0  0.30759  0.64580  0.73646  1.0000
  C   C8        1.0  0.69241  0.35420  0.26354  1.0000
  C   C9        1.0  0.30071  0.71580  0.64543  1.0000
  C   C10       1.0  0.69929  0.28420  0.35457  1.0000
  C   C11       1.0  0.24115  0.25285  0.40356  1.0000
  C   C12       1.0  0.75885  0.74715  0.59644  1.0000
  C   C13       1.0  0.18164  0.32079  0.32200  1.0000
  C   C14       1.0  0.81836  0.67921  0.67800  1.0000
  C   C15       1.0  0.13153  0.20428  0.20454  1.0000
  C   C16       1.0  0.86847  0.79572  0.79546  1.0000
  C   C17       1.0  0.14154  0.02582  0.17515  1.0000
  C   C18       1.0  0.85846  0.97418  0.82485  1.0000
  C   C19       1.0  0.20121  0.97076  0.26382  1.0000
  C   C20       1.0  0.79879  0.02925  0.73618  1.0000
  N   N1        1.0  0.52570  0.17621  0.57879  1.0000
  N   N2        1.0  0.47430  0.82379  0.42121  1.0000
  N   N3        1.0  0.55526  0.29454  0.67448  1.0000
  N   N4        1.0  0.44474  0.70546  0.32552  1.0000
  N   N5        1.0  0.58411  0.41067  0.76650  1.0000
  N   N6        1.0  0.41589  0.58933  0.23350  1.0000
  N   N7        1.0  0.15603  0.18013  0.63536  1.0000
  N   N8        1.0  0.84397  0.81987  0.36464  1.0000
  N   N9        1.0  0.03141  0.20642  0.59855  1.0000
  N   N10       1.0  0.96859  0.79358  0.40145  1.0000
  N   N11       1.0  0.90744  0.23657  0.56341  1.0000
  N   N12       1.0  0.09256  0.76343  0.43659  1.0000
  N   N13       1.0  0.31300  0.88943  0.66609  1.0000
  N   N14       1.0  0.68700  0.11057  0.33391  1.0000
  N   N15       1.0  0.33943  0.71155  0.95745  1.0000
  N   N16       1.0  0.66057  0.28845  0.04255  1.0000
  N   N17       1.0  0.32671  0.55364  0.94472  1.0000
  N   N18       1.0  0.67329  0.44636  0.05528  1.0000
  N   N19       1.0  0.31594  0.41557  0.94976  1.0000
  N   N20       1.0  0.68406  0.58443  0.05024  1.0000
  N   N21       1.0  0.24982  0.08112  0.37676  1.0000
  N   N22       1.0  0.75018  0.91888  0.62324  1.0000
  N   N23       1.0  0.07069  0.25462  0.11235  1.0000
  N   N24       1.0  0.92931  0.74538  0.88765  1.0000
  N   N25       1.0  0.06034  0.41036  0.13186  1.0000
  N   N26       1.0  0.93966  0.58964  0.86814  1.0000
  N   N27       1.0  0.04139  0.54717  0.13439  1.0000
  N   N28       1.0  0.95861  0.45283  0.86561  1.0000
