data_image0
_chemical_formula_structural       Nd2Mn4H30C42O26
_chemical_formula_sum              "Nd2 Mn4 H30 C42 O26"
_cell_length_a       6.90709
_cell_length_b       11.6779
_cell_length_c       15.007
_cell_angle_alpha    89.97
_cell_angle_beta     89.1464
_cell_angle_gamma    85.1419

_space_group_name_H-M_alt    "P 1"
_space_group_IT_number       1

loop_
  _space_group_symop_operation_xyz
  'x, y, z'

loop_
  _atom_site_type_symbol
  _atom_site_label
  _atom_site_symmetry_multiplicity
  _atom_site_fract_x
  _atom_site_fract_y
  _atom_site_fract_z
  _atom_site_occupancy
  Nd  Nd1       1.0  0.25596  0.06018  0.43556  1.0000
  Nd  Nd2       1.0  0.74406  0.93982  0.56444  1.0000
  Mn  Mn1       1.0  0.10413  0.24148  0.07938  1.0000
  Mn  Mn2       1.0  0.89587  0.75852  0.92062  1.0000
  Mn  Mn3       1.0  0.50788  0.36629  0.74032  1.0000
  Mn  Mn4       1.0  0.49211  0.63370  0.25968  1.0000
  H   H1        1.0  0.88643  0.19786  0.49564  1.0000
  H   H2        1.0  0.11358  0.80214  0.50436  1.0000
  H   H3        1.0  0.24901  0.00158  0.08735  1.0000
  H   H4        1.0  0.75099  0.99843  0.91266  1.0000
  H   H5        1.0  0.32940  0.11953  0.93828  1.0000
  H   H6        1.0  0.67059  0.88047  0.06172  1.0000
  H   H7        1.0  0.43798  0.32832  0.99017  1.0000
  H   H8        1.0  0.56201  0.67169  0.00983  1.0000
  H   H9        1.0  0.42356  0.33612  0.16894  1.0000
  H   H10       1.0  0.57645  0.66389  0.83106  1.0000
  H   H11       1.0  0.87944  0.29729  0.66149  1.0000
  H   H12       1.0  0.12056  0.70271  0.33851  1.0000
  H   H13       1.0  0.82699  0.51238  0.72920  1.0000
  H   H14       1.0  0.17301  0.48762  0.27081  1.0000
  H   H15       1.0  0.47297  0.60506  0.67902  1.0000
  H   H16       1.0  0.52703  0.39494  0.32098  1.0000
  H   H17       1.0  0.30735  0.44558  0.58011  1.0000
  H   H18       1.0  0.69266  0.55442  0.41988  1.0000
  H   H19       1.0  0.66348  0.00288  0.23810  1.0000
  H   H20       1.0  0.33653  0.99713  0.76191  1.0000
  H   H21       1.0  0.75149  0.13493  0.26901  1.0000
  H   H22       1.0  0.24851  0.86508  0.73100  1.0000
  H   H23       1.0  0.92158  0.01398  0.24698  1.0000
  H   H24       1.0  0.07842  0.98604  0.75302  1.0000
  H   H25       1.0  0.02475  0.37568  0.51458  1.0000
  H   H26       1.0  0.97526  0.62432  0.48542  1.0000
  H   H27       1.0  0.87256  0.37930  0.41819  1.0000
  H   H28       1.0  0.12745  0.62069  0.58181  1.0000
  H   H29       1.0  0.13003  0.35283  0.40567  1.0000
  H   H30       1.0  0.86998  0.64716  0.59433  1.0000
  C   C1        1.0  0.29974  0.12707  0.25478  1.0000
  C   C2        1.0  0.70027  0.87293  0.74522  1.0000
  C   C3        1.0  0.32625  0.15816  0.16001  1.0000
  C   C4        1.0  0.67376  0.84184  0.83999  1.0000
  C   C5        1.0  0.29603  0.08776  0.08432  1.0000
  C   C6        1.0  0.70399  0.91224  0.91568  1.0000
  C   C7        1.0  0.33924  0.15030  0.00609  1.0000
  C   C8        1.0  0.66076  0.84970  0.99391  1.0000
  C   C9        1.0  0.39656  0.25990  0.03335  1.0000
  C   C10       1.0  0.60343  0.74011  0.96665  1.0000
  C   C11       1.0  0.38855  0.26506  0.12763  1.0000
  C   C12       1.0  0.61145  0.73495  0.87237  1.0000
  C   C13       1.0  0.55594  0.22759  0.55522  1.0000
  C   C14       1.0  0.44407  0.77241  0.44477  1.0000
  C   C15       1.0  0.58427  0.33588  0.60331  1.0000
  C   C16       1.0  0.41574  0.66412  0.39669  1.0000
  C   C17       1.0  0.75361  0.35809  0.65240  1.0000
  C   C18       1.0  0.24639  0.64191  0.34761  1.0000
  C   C19       1.0  0.72486  0.47103  0.68839  1.0000
  C   C20       1.0  0.27514  0.52897  0.31162  1.0000
  C   C21       1.0  0.53633  0.51941  0.66207  1.0000
  C   C22       1.0  0.46368  0.48059  0.33792  1.0000
  C   C23       1.0  0.44955  0.43654  0.61027  1.0000
  C   C24       1.0  0.55046  0.56346  0.38973  1.0000
  C   C25       1.0  0.90884  0.15372  0.07049  1.0000
  C   C26       1.0  0.09116  0.84628  0.92952  1.0000
  C   C27       1.0  0.00986  0.33527  0.99364  1.0000
  C   C28       1.0  0.99012  0.66473  0.00636  1.0000
  C   C29       1.0  0.98592  0.32469  0.16600  1.0000
  C   C30       1.0  0.01407  0.67531  0.83400  1.0000
  C   C31       1.0  0.63297  0.26046  0.80873  1.0000
  C   C32       1.0  0.36703  0.73955  0.19126  1.0000
  C   C33       1.0  0.43528  0.44817  0.83636  1.0000
  C   C34       1.0  0.56470  0.55182  0.16363  1.0000
  C   C35       1.0  0.29325  0.29306  0.74383  1.0000
  C   C36       1.0  0.70675  0.70694  0.25617  1.0000
  C   C37       1.0  0.76614  0.00986  0.37114  1.0000
  C   C38       1.0  0.23387  0.99014  0.62885  1.0000
  C   C39       1.0  0.77785  0.04101  0.27484  1.0000
  C   C40       1.0  0.22216  0.95900  0.72516  1.0000
  C   C41       1.0  0.00497  0.33835  0.44841  1.0000
  C   C42       1.0  0.99503  0.66165  0.55159  1.0000
  O   O1        1.0  0.33022  0.20045  0.31534  1.0000
  O   O2        1.0  0.66979  0.79956  0.68466  1.0000
  O   O3        1.0  0.25037  0.02656  0.27394  1.0000
  O   O4        1.0  0.74962  0.97345  0.72605  1.0000
  O   O5        1.0  0.39650  0.21776  0.51720  1.0000
  O   O6        1.0  0.60350  0.78223  0.48280  1.0000
  O   O7        1.0  0.70250  0.15142  0.55500  1.0000
  O   O8        1.0  0.29751  0.84858  0.44500  1.0000
  O   O9        1.0  0.78446  0.09210  0.06527  1.0000
  O   O10       1.0  0.21555  0.90790  0.93473  1.0000
  O   O11       1.0  0.95173  0.39508  0.93589  1.0000
  O   O12       1.0  0.04822  0.60491  0.06411  1.0000
  O   O13       1.0  0.91168  0.37614  0.22626  1.0000
  O   O14       1.0  0.08830  0.62386  0.77374  1.0000
  O   O15       1.0  0.71555  0.19290  0.85474  1.0000
  O   O16       1.0  0.28444  0.80710  0.14527  1.0000
  O   O17       1.0  0.39063  0.50178  0.90036  1.0000
  O   O18       1.0  0.60934  0.49822  0.09964  1.0000
  O   O19       1.0  0.15344  0.24298  0.74505  1.0000
  O   O20       1.0  0.84655  0.75701  0.25494  1.0000
  O   O21       1.0  0.60050  0.00566  0.40989  1.0000
  O   O22       1.0  0.39951  0.99434  0.59011  1.0000
  O   O23       1.0  0.92004  0.98701  0.41672  1.0000
  O   O24       1.0  0.07996  0.01299  0.58328  1.0000
  O   O25       1.0  0.99392  0.21667  0.45411  1.0000
  O   O26       1.0  0.00609  0.78333  0.54589  1.0000
