data_image0
_chemical_formula_structural       Dy2Mn4H30C42O26
_chemical_formula_sum              "Dy2 Mn4 H30 C42 O26"
_cell_length_a       6.76616
_cell_length_b       11.6678
_cell_length_c       14.985
_cell_angle_alpha    89.2583
_cell_angle_beta     89.4049
_cell_angle_gamma    85.2838

_space_group_name_H-M_alt    "P 1"
_space_group_IT_number       1

loop_
  _space_group_symop_operation_xyz
  'x, y, z'

loop_
  _atom_site_type_symbol
  _atom_site_label
  _atom_site_symmetry_multiplicity
  _atom_site_fract_x
  _atom_site_fract_y
  _atom_site_fract_z
  _atom_site_occupancy
  Dy  Dy1       1.0  0.25682  0.05964  0.43823  1.0000
  Dy  Dy2       1.0  0.74314  0.94037  0.56176  1.0000
  Mn  Mn1       1.0  0.09808  0.24132  0.08408  1.0000
  Mn  Mn2       1.0  0.90200  0.75868  0.91591  1.0000
  Mn  Mn3       1.0  0.51744  0.36055  0.73880  1.0000
  Mn  Mn4       1.0  0.48251  0.63944  0.26120  1.0000
  H   H1        1.0  0.89034  0.18837  0.49547  1.0000
  H   H2        1.0  0.10961  0.81163  0.50453  1.0000
  H   H3        1.0  0.25062  0.00296  0.09430  1.0000
  H   H4        1.0  0.74951  0.99703  0.90568  1.0000
  H   H5        1.0  0.33486  0.12356  0.94566  1.0000
  H   H6        1.0  0.66530  0.87646  0.05434  1.0000
  H   H7        1.0  0.43885  0.33327  0.99819  1.0000
  H   H8        1.0  0.56125  0.66675  0.00183  1.0000
  H   H9        1.0  0.41761  0.33898  0.17698  1.0000
  H   H10       1.0  0.58242  0.66103  0.82304  1.0000
  H   H11       1.0  0.89048  0.28949  0.65722  1.0000
  H   H12       1.0  0.10948  0.71050  0.34278  1.0000
  H   H13       1.0  0.84464  0.50562  0.72206  1.0000
  H   H14       1.0  0.15532  0.49436  0.27796  1.0000
  H   H15       1.0  0.48132  0.59905  0.67397  1.0000
  H   H16       1.0  0.51864  0.40095  0.32604  1.0000
  H   H17       1.0  0.30400  0.43982  0.57944  1.0000
  H   H18       1.0  0.69596  0.56018  0.42056  1.0000
  H   H19       1.0  0.65208  0.01599  0.24161  1.0000
  H   H20       1.0  0.34791  0.98400  0.75838  1.0000
  H   H21       1.0  0.91859  0.01043  0.24997  1.0000
  H   H22       1.0  0.08140  0.98958  0.75004  1.0000
  H   H23       1.0  0.76892  0.13980  0.27339  1.0000
  H   H24       1.0  0.23104  0.86020  0.72660  1.0000
  H   H25       1.0  0.85859  0.37162  0.42551  1.0000
  H   H26       1.0  0.14135  0.62836  0.57450  1.0000
  H   H27       1.0  0.11526  0.34721  0.39568  1.0000
  H   H28       1.0  0.88468  0.65278  0.60432  1.0000
  H   H29       1.0  0.04522  0.36509  0.51046  1.0000
  H   H30       1.0  0.95471  0.63491  0.48955  1.0000
  C   C1        1.0  0.29639  0.12796  0.26283  1.0000
  C   C2        1.0  0.70362  0.87206  0.73716  1.0000
  C   C3        1.0  0.32361  0.15973  0.16775  1.0000
  C   C4        1.0  0.67646  0.84028  0.83225  1.0000
  C   C5        1.0  0.29722  0.08966  0.09175  1.0000
  C   C6        1.0  0.70289  0.91035  0.90825  1.0000
  C   C7        1.0  0.34218  0.15361  0.01362  1.0000
  C   C8        1.0  0.65792  0.84640  0.98638  1.0000
  C   C9        1.0  0.39659  0.26381  0.04115  1.0000
  C   C10       1.0  0.60352  0.73621  0.95886  1.0000
  C   C11       1.0  0.38484  0.26788  0.13551  1.0000
  C   C12       1.0  0.61522  0.73213  0.86450  1.0000
  C   C13       1.0  0.55513  0.21955  0.55599  1.0000
  C   C14       1.0  0.44480  0.78045  0.44400  1.0000
  C   C15       1.0  0.58676  0.32886  0.60138  1.0000
  C   C16       1.0  0.41321  0.67113  0.39863  1.0000
  C   C17       1.0  0.76281  0.35095  0.64832  1.0000
  C   C18       1.0  0.23714  0.64904  0.35167  1.0000
  C   C19       1.0  0.73744  0.46428  0.68284  1.0000
  C   C20       1.0  0.26249  0.53572  0.31717  1.0000
  C   C21       1.0  0.54408  0.51307  0.65771  1.0000
  C   C22       1.0  0.45588  0.48693  0.34230  1.0000
  C   C23       1.0  0.45099  0.43008  0.60815  1.0000
  C   C24       1.0  0.54899  0.56992  0.39185  1.0000
  C   C25       1.0  0.90427  0.14961  0.07279  1.0000
  C   C26       1.0  0.09585  0.85037  0.92719  1.0000
  C   C27       1.0  0.00274  0.33501  0.99690  1.0000
  C   C28       1.0  0.99727  0.66498  0.00309  1.0000
  C   C29       1.0  0.97249  0.32338  0.16893  1.0000
  C   C30       1.0  0.02758  0.67662  0.83105  1.0000
  C   C31       1.0  0.64776  0.25527  0.80787  1.0000
  C   C32       1.0  0.35221  0.74474  0.19213  1.0000
  C   C33       1.0  0.44925  0.44238  0.83470  1.0000
  C   C34       1.0  0.55069  0.55762  0.16530  1.0000
  C   C35       1.0  0.29897  0.28672  0.74618  1.0000
  C   C36       1.0  0.70103  0.71326  0.25382  1.0000
  C   C37       1.0  0.76272  0.01251  0.37465  1.0000
  C   C38       1.0  0.23724  0.98750  0.62535  1.0000
  C   C39       1.0  0.77712  0.04530  0.27838  1.0000
  C   C40       1.0  0.22286  0.95470  0.72162  1.0000
  C   C41       1.0  0.00323  0.33041  0.44609  1.0000
  C   C42       1.0  0.99671  0.66958  0.55391  1.0000
  O   O1        1.0  0.32620  0.20077  0.32337  1.0000
  O   O2        1.0  0.67378  0.79925  0.67663  1.0000
  O   O3        1.0  0.24823  0.02688  0.28324  1.0000
  O   O4        1.0  0.75173  0.97314  0.71676  1.0000
  O   O5        1.0  0.39110  0.20918  0.51889  1.0000
  O   O6        1.0  0.60886  0.79083  0.48111  1.0000
  O   O7        1.0  0.70445  0.14346  0.55725  1.0000
  O   O8        1.0  0.29550  0.85654  0.44275  1.0000
  O   O9        1.0  0.78335  0.08434  0.06559  1.0000
  O   O10       1.0  0.21677  0.91566  0.93440  1.0000
  O   O11       1.0  0.94388  0.39531  0.93859  1.0000
  O   O12       1.0  0.05609  0.60468  0.06141  1.0000
  O   O13       1.0  0.89454  0.37472  0.22814  1.0000
  O   O14       1.0  0.10552  0.62529  0.77183  1.0000
  O   O15       1.0  0.73311  0.18800  0.85460  1.0000
  O   O16       1.0  0.26688  0.81201  0.14541  1.0000
  O   O17       1.0  0.40725  0.49536  0.89885  1.0000
  O   O18       1.0  0.59272  0.50466  0.10114  1.0000
  O   O19       1.0  0.15702  0.23590  0.75042  1.0000
  O   O20       1.0  0.84297  0.76407  0.24959  1.0000
  O   O21       1.0  0.59382  0.01190  0.41378  1.0000
  O   O22       1.0  0.40616  0.98810  0.58622  1.0000
  O   O23       1.0  0.91818  0.98477  0.42085  1.0000
  O   O24       1.0  0.08179  0.01523  0.57916  1.0000
  O   O25       1.0  0.99507  0.20825  0.45166  1.0000
  O   O26       1.0  0.00488  0.79174  0.54835  1.0000
