data_image0
_chemical_formula_structural       K4H40C56S8N4O32
_chemical_formula_sum              "K4 H40 C56 S8 N4 O32"
_cell_length_a       7.21674
_cell_length_b       11.3234
_cell_length_c       19.258
_cell_angle_alpha    90
_cell_angle_beta     95.4815
_cell_angle_gamma    90

_space_group_name_H-M_alt    "P 1"
_space_group_IT_number       1

loop_
  _space_group_symop_operation_xyz
  'x, y, z'

loop_
  _atom_site_type_symbol
  _atom_site_label
  _atom_site_symmetry_multiplicity
  _atom_site_fract_x
  _atom_site_fract_y
  _atom_site_fract_z
  _atom_site_occupancy
  K   K1        1.0  0.32449  0.64133  0.48612  1.0000
  K   K2        1.0  0.82449  0.85867  0.48612  1.0000
  K   K3        1.0  0.67551  0.35867  0.51388  1.0000
  K   K4        1.0  0.17549  0.14133  0.51387  1.0000
  H   H1        1.0  0.15883  0.23001  0.69615  1.0000
  H   H2        1.0  0.65883  0.26999  0.69615  1.0000
  H   H3        1.0  0.84117  0.76999  0.30385  1.0000
  H   H4        1.0  0.34117  0.73001  0.30385  1.0000
  H   H5        1.0  0.31363  0.21178  0.81810  1.0000
  H   H6        1.0  0.81362  0.28822  0.81810  1.0000
  H   H7        1.0  0.68638  0.78822  0.18190  1.0000
  H   H8        1.0  0.18638  0.71178  0.18190  1.0000
  H   H9        1.0  0.58027  0.54688  0.79719  1.0000
  H   H10       1.0  0.08027  0.95312  0.79719  1.0000
  H   H11       1.0  0.41973  0.45312  0.20281  1.0000
  H   H12       1.0  0.91972  0.04688  0.20281  1.0000
  H   H13       1.0  0.43430  0.56397  0.67427  1.0000
  H   H14       1.0  0.93431  0.93603  0.67427  1.0000
  H   H15       1.0  0.56569  0.43603  0.32573  1.0000
  H   H16       1.0  0.06569  0.06397  0.32573  1.0000
  H   H17       1.0  0.88200  0.44895  0.74231  1.0000
  H   H18       1.0  0.38200  0.05105  0.74231  1.0000
  H   H19       1.0  0.11800  0.55105  0.25769  1.0000
  H   H20       1.0  0.61800  0.94895  0.25769  1.0000
  H   H21       1.0  0.01015  0.45966  0.86806  1.0000
  H   H22       1.0  0.51015  0.04034  0.86806  1.0000
  H   H23       1.0  0.98986  0.54035  0.13194  1.0000
  H   H24       1.0  0.48986  0.95966  0.13194  1.0000
  H   H25       1.0  0.27154  0.79089  0.82895  1.0000
  H   H26       1.0  0.77154  0.70911  0.82895  1.0000
  H   H27       1.0  0.72846  0.20911  0.17105  1.0000
  H   H28       1.0  0.22846  0.29089  0.17105  1.0000
  H   H29       1.0  0.14582  0.77880  0.70236  1.0000
  H   H30       1.0  0.64582  0.72119  0.70235  1.0000
  H   H31       1.0  0.85418  0.22120  0.29764  1.0000
  H   H32       1.0  0.35419  0.27881  0.29764  1.0000
  H   H33       1.0  0.57846  0.28169  0.97302  1.0000
  H   H34       1.0  0.07847  0.21831  0.97302  1.0000
  H   H35       1.0  0.42154  0.71831  0.02698  1.0000
  H   H36       1.0  0.92154  0.78169  0.02698  1.0000
  H   H37       1.0  0.26149  0.54138  0.01578  1.0000
  H   H38       1.0  0.76149  0.95862  0.01578  1.0000
  H   H39       1.0  0.73851  0.45862  0.98422  1.0000
  H   H40       1.0  0.23851  0.04138  0.98422  1.0000
  C   C1        1.0  0.28821  0.39801  0.67924  1.0000
  C   C2        1.0  0.78821  0.10199  0.67924  1.0000
  C   C3        1.0  0.71179  0.60199  0.32076  1.0000
  C   C4        1.0  0.21178  0.89801  0.32076  1.0000
  C   C5        1.0  0.25320  0.29802  0.71847  1.0000
  C   C6        1.0  0.75320  0.20198  0.71847  1.0000
  C   C7        1.0  0.74680  0.70198  0.28153  1.0000
  C   C8        1.0  0.24680  0.79802  0.28153  1.0000
  C   C9        1.0  0.33818  0.28849  0.78629  1.0000
  C   C10       1.0  0.83817  0.21151  0.78629  1.0000
  C   C11       1.0  0.66183  0.71151  0.21371  1.0000
  C   C12       1.0  0.16183  0.78849  0.21371  1.0000
  C   C13       1.0  0.45418  0.37881  0.81464  1.0000
  C   C14       1.0  0.95418  0.12119  0.81464  1.0000
  C   C15       1.0  0.54582  0.62120  0.18536  1.0000
  C   C16       1.0  0.04582  0.87880  0.18536  1.0000
  C   C17       1.0  0.48992  0.47763  0.77406  1.0000
  C   C18       1.0  0.98992  0.02237  0.77406  1.0000
  C   C19       1.0  0.51008  0.52237  0.22594  1.0000
  C   C20       1.0  0.01008  0.97763  0.22594  1.0000
  C   C21       1.0  0.40851  0.48728  0.70606  1.0000
  C   C22       1.0  0.90851  0.01272  0.70606  1.0000
  C   C23       1.0  0.59149  0.51272  0.29394  1.0000
  C   C24       1.0  0.09149  0.98728  0.29394  1.0000
  C   C25       1.0  0.54272  0.37401  0.88746  1.0000
  C   C26       1.0  0.04272  0.12599  0.88746  1.0000
  C   C27       1.0  0.45728  0.62599  0.11254  1.0000
  C   C28       1.0  0.95727  0.87401  0.11254  1.0000
  C   C29       1.0  0.00786  0.61324  0.71623  1.0000
  C   C30       1.0  0.50786  0.88675  0.71622  1.0000
  C   C31       1.0  0.99214  0.38675  0.28377  1.0000
  C   C32       1.0  0.49214  0.11325  0.28378  1.0000
  C   C33       1.0  0.96736  0.52310  0.76194  1.0000
  C   C34       1.0  0.46736  0.97690  0.76194  1.0000
  C   C35       1.0  0.03264  0.47690  0.23806  1.0000
  C   C36       1.0  0.53264  0.02310  0.23806  1.0000
  C   C37       1.0  0.03853  0.52929  0.83162  1.0000
  C   C38       1.0  0.53853  0.97071  0.83162  1.0000
  C   C39       1.0  0.96147  0.47072  0.16838  1.0000
  C   C40       1.0  0.46147  0.02928  0.16838  1.0000
  C   C41       1.0  0.14885  0.62583  0.85529  1.0000
  C   C42       1.0  0.64884  0.87417  0.85529  1.0000
  C   C43       1.0  0.85116  0.37417  0.14471  1.0000
  C   C44       1.0  0.35115  0.12583  0.14471  1.0000
  C   C45       1.0  0.18572  0.71679  0.80923  1.0000
  C   C46       1.0  0.68572  0.78321  0.80923  1.0000
  C   C47       1.0  0.81428  0.28321  0.19077  1.0000
  C   C48       1.0  0.31428  0.21679  0.19077  1.0000
  C   C49       1.0  0.11606  0.71044  0.73942  1.0000
  C   C50       1.0  0.61607  0.78956  0.73943  1.0000
  C   C51       1.0  0.88394  0.28956  0.26057  1.0000
  C   C52       1.0  0.38393  0.21044  0.26057  1.0000
  C   C53       1.0  0.23161  0.63041  0.92898  1.0000
  C   C54       1.0  0.73161  0.86959  0.92898  1.0000
  C   C55       1.0  0.76839  0.36959  0.07102  1.0000
  C   C56       1.0  0.26839  0.13041  0.07102  1.0000
  S   S1        1.0  0.17412  0.41693  0.59384  1.0000
  S   S2        1.0  0.67412  0.08307  0.59384  1.0000
  S   S3        1.0  0.82588  0.58307  0.40616  1.0000
  S   S4        1.0  0.32588  0.91693  0.40616  1.0000
  S   S5        1.0  0.92828  0.60051  0.62608  1.0000
  S   S6        1.0  0.42828  0.89949  0.62608  1.0000
  S   S7        1.0  0.07172  0.39949  0.37392  1.0000
  S   S8        1.0  0.57172  0.10051  0.37392  1.0000
  N   N1        1.0  0.10126  0.54934  0.58874  1.0000
  N   N2        1.0  0.60127  0.95066  0.58874  1.0000
  N   N3        1.0  0.89874  0.45066  0.41126  1.0000
  N   N4        1.0  0.39873  0.04934  0.41126  1.0000
  O   O1        1.0  0.31738  0.41013  0.54529  1.0000
  O   O2        1.0  0.81738  0.08987  0.54529  1.0000
  O   O3        1.0  0.68262  0.58987  0.45471  1.0000
  O   O4        1.0  0.18262  0.91013  0.45471  1.0000
  O   O5        1.0  0.02981  0.32620  0.58540  1.0000
  O   O6        1.0  0.52981  0.17380  0.58540  1.0000
  O   O7        1.0  0.97019  0.67380  0.41461  1.0000
  O   O8        1.0  0.47019  0.82620  0.41460  1.0000
  O   O9        1.0  0.89926  0.71993  0.60005  1.0000
  O   O10       1.0  0.39925  0.78008  0.60005  1.0000
  O   O11       1.0  0.10075  0.28008  0.39995  1.0000
  O   O12       1.0  0.60075  0.21992  0.39995  1.0000
  O   O13       1.0  0.76840  0.52139  0.62186  1.0000
  O   O14       1.0  0.26840  0.97861  0.62186  1.0000
  O   O15       1.0  0.23161  0.47861  0.37814  1.0000
  O   O16       1.0  0.73160  0.02139  0.37814  1.0000
  O   O17       1.0  0.64273  0.45766  0.91102  1.0000
  O   O18       1.0  0.14273  0.04234  0.91102  1.0000
  O   O19       1.0  0.35727  0.54234  0.08898  1.0000
  O   O20       1.0  0.85727  0.95766  0.08898  1.0000
  O   O21       1.0  0.50979  0.27792  0.92289  1.0000
  O   O22       1.0  0.00980  0.22208  0.92289  1.0000
  O   O23       1.0  0.49020  0.72208  0.07711  1.0000
  O   O24       1.0  0.99020  0.77792  0.07711  1.0000
  O   O25       1.0  0.32651  0.71634  0.95241  1.0000
  O   O26       1.0  0.82651  0.78366  0.95241  1.0000
  O   O27       1.0  0.67349  0.28366  0.04759  1.0000
  O   O28       1.0  0.17349  0.21634  0.04759  1.0000
  O   O29       1.0  0.19759  0.53565  0.96543  1.0000
  O   O30       1.0  0.69758  0.96435  0.96543  1.0000
  O   O31       1.0  0.80241  0.46435  0.03457  1.0000
  O   O32       1.0  0.30241  0.03565  0.03457  1.0000
