data_image0
_chemical_formula_structural       Rb4H40C56S8N4O32
_chemical_formula_sum              "Rb4 H40 C56 S8 N4 O32"
_cell_length_a       6.95467
_cell_length_b       11.8479
_cell_length_c       19.972
_cell_angle_alpha    103.034
_cell_angle_beta     90
_cell_angle_gamma    90

_space_group_name_H-M_alt    "P 1"
_space_group_IT_number       1

loop_
  _space_group_symop_operation_xyz
  'x, y, z'

loop_
  _atom_site_type_symbol
  _atom_site_label
  _atom_site_symmetry_multiplicity
  _atom_site_fract_x
  _atom_site_fract_y
  _atom_site_fract_z
  _atom_site_occupancy
  Rb  Rb1       1.0  0.07192  0.13778  0.50813  1.0000
  Rb  Rb2       1.0  0.57193  0.86222  0.49187  1.0000
  Rb  Rb3       1.0  0.33418  0.41301  0.49560  1.0000
  Rb  Rb4       1.0  0.83418  0.58698  0.50440  1.0000
  H   H1        1.0  0.67911  0.47084  0.33351  1.0000
  H   H2        1.0  0.17911  0.52916  0.66649  1.0000
  H   H3        1.0  0.69181  0.50163  0.21349  1.0000
  H   H4        1.0  0.19181  0.49837  0.78651  1.0000
  H   H5        1.0  0.98156  0.17452  0.14565  1.0000
  H   H6        1.0  0.48157  0.82548  0.85435  1.0000
  H   H7        1.0  0.97071  0.14415  0.26516  1.0000
  H   H8        1.0  0.47072  0.85585  0.73485  1.0000
  H   H9        1.0  0.35654  0.25268  0.30746  1.0000
  H   H10       1.0  0.85654  0.74732  0.69253  1.0000
  H   H11       1.0  0.33979  0.25706  0.18228  1.0000
  H   H12       1.0  0.83979  0.74294  0.81771  1.0000
  H   H13       1.0  0.62790  0.92826  0.12864  1.0000
  H   H14       1.0  0.12790  0.07174  0.87136  1.0000
  H   H15       1.0  0.66138  0.92833  0.25403  1.0000
  H   H16       1.0  0.16138  0.07167  0.74597  1.0000
  H   H17       1.0  0.93207  0.29490  0.00838  1.0000
  H   H18       1.0  0.43207  0.70510  0.99162  1.0000
  H   H19       1.0  0.55369  0.03041  0.98255  1.0000
  H   H20       1.0  0.05368  0.96959  0.01744  1.0000
  H   H21       1.0  0.37779  0.34688  0.72628  1.0000
  H   H22       1.0  0.87779  0.65312  0.27372  1.0000
  H   H23       1.0  0.37896  0.32796  0.84857  1.0000
  H   H24       1.0  0.87896  0.67204  0.15143  1.0000
  H   H25       1.0  0.66449  0.99845  0.78673  1.0000
  H   H26       1.0  0.16449  0.00155  0.21327  1.0000
  H   H27       1.0  0.66510  0.01798  0.66419  1.0000
  H   H28       1.0  0.16510  0.98202  0.33581  1.0000
  H   H29       1.0  0.68176  0.56275  0.73673  1.0000
  H   H30       1.0  0.18176  0.43725  0.26327  1.0000
  H   H31       1.0  0.72278  0.57412  0.86327  1.0000
  H   H32       1.0  0.22278  0.42588  0.13673  1.0000
  H   H33       1.0  0.01695  0.24700  0.81725  1.0000
  H   H34       1.0  0.51695  0.75300  0.18275  1.0000
  H   H35       1.0  0.98991  0.23839  0.69137  1.0000
  H   H36       1.0  0.48991  0.76161  0.30863  1.0000
  H   H37       1.0  0.43895  0.21562  0.99004  1.0000
  H   H38       1.0  0.93895  0.78438  0.00996  1.0000
  H   H39       1.0  0.80137  0.47708  0.01354  1.0000
  H   H40       1.0  0.30137  0.52292  0.98646  1.0000
  C   C1        1.0  0.82654  0.30611  0.30559  1.0000
  C   C2        1.0  0.32654  0.69389  0.69441  1.0000
  C   C3        1.0  0.74671  0.40715  0.29229  1.0000
  C   C4        1.0  0.24671  0.59285  0.70771  1.0000
  C   C5        1.0  0.75363  0.42407  0.22553  1.0000
  C   C6        1.0  0.25363  0.57593  0.77447  1.0000
  C   C7        1.0  0.83819  0.34089  0.17263  1.0000
  C   C8        1.0  0.33818  0.65911  0.82737  1.0000
  C   C9        1.0  0.91718  0.23963  0.18684  1.0000
  C   C10       1.0  0.41718  0.76037  0.81316  1.0000
  C   C11       1.0  0.91212  0.22266  0.25348  1.0000
  C   C12       1.0  0.41212  0.77734  0.74652  1.0000
  C   C13       1.0  0.51342  0.09118  0.28676  1.0000
  C   C14       1.0  0.01342  0.90882  0.71324  1.0000
  C   C15       1.0  0.41828  0.18333  0.26804  1.0000
  C   C16       1.0  0.91828  0.81667  0.73196  1.0000
  C   C17       1.0  0.40718  0.18504  0.19875  1.0000
  C   C18       1.0  0.90718  0.81496  0.80124  1.0000
  C   C19       1.0  0.48587  0.09445  0.14886  1.0000
  C   C20       1.0  0.98587  0.90555  0.85114  1.0000
  C   C21       1.0  0.57258  0.99971  0.16816  1.0000
  C   C22       1.0  0.07259  0.00029  0.83184  1.0000
  C   C23       1.0  0.58906  0.99891  0.23745  1.0000
  C   C24       1.0  0.08906  0.00109  0.76255  1.0000
  C   C25       1.0  0.84688  0.36159  0.10192  1.0000
  C   C26       1.0  0.34688  0.63841  0.89808  1.0000
  C   C27       1.0  0.48267  0.10446  0.07617  1.0000
  C   C28       1.0  0.98267  0.89554  0.92383  1.0000
  C   C29       1.0  0.52197  0.18399  0.68926  1.0000
  C   C30       1.0  0.02197  0.81600  0.31074  1.0000
  C   C31       1.0  0.44095  0.27140  0.74030  1.0000
  C   C32       1.0  0.94095  0.72860  0.25970  1.0000
  C   C33       1.0  0.44141  0.26037  0.80823  1.0000
  C   C34       1.0  0.94140  0.73963  0.19177  1.0000
  C   C35       1.0  0.52122  0.16106  0.82446  1.0000
  C   C36       1.0  0.02122  0.83894  0.17554  1.0000
  C   C37       1.0  0.60230  0.07422  0.77270  1.0000
  C   C38       1.0  0.10230  0.92578  0.22730  1.0000
  C   C39       1.0  0.60344  0.08515  0.70484  1.0000
  C   C40       1.0  0.10344  0.91485  0.29516  1.0000
  C   C41       1.0  0.83417  0.40087  0.70768  1.0000
  C   C42       1.0  0.33417  0.59914  0.29232  1.0000
  C   C43       1.0  0.75934  0.49574  0.75511  1.0000
  C   C44       1.0  0.25934  0.50426  0.24489  1.0000
  C   C45       1.0  0.77918  0.50081  0.82529  1.0000
  C   C46       1.0  0.27918  0.49919  0.17471  1.0000
  C   C47       1.0  0.86896  0.40962  0.84722  1.0000
  C   C48       1.0  0.36896  0.59038  0.15278  1.0000
  C   C49       1.0  0.94779  0.31658  0.79885  1.0000
  C   C50       1.0  0.44780  0.68342  0.20116  1.0000
  C   C51       1.0  0.93282  0.31204  0.72903  1.0000
  C   C52       1.0  0.43282  0.68796  0.27098  1.0000
  C   C53       1.0  0.51546  0.14437  0.89591  1.0000
  C   C54       1.0  0.01546  0.85563  0.10409  1.0000
  C   C55       1.0  0.87585  0.40330  0.92061  1.0000
  C   C56       1.0  0.37586  0.59670  0.07939  1.0000
  S   S1        1.0  0.82328  0.28352  0.39106  1.0000
  S   S2        1.0  0.32328  0.71648  0.60894  1.0000
  S   S3        1.0  0.55869  0.09707  0.37504  1.0000
  S   S4        1.0  0.05869  0.90292  0.62496  1.0000
  S   S5        1.0  0.52488  0.20147  0.60306  1.0000
  S   S6        1.0  0.02488  0.79853  0.39694  1.0000
  S   S7        1.0  0.79247  0.38546  0.61796  1.0000
  S   S8        1.0  0.29247  0.61454  0.38204  1.0000
  N   N1        1.0  0.77071  0.15136  0.38739  1.0000
  N   N2        1.0  0.27071  0.84864  0.61261  1.0000
  N   N3        1.0  0.73078  0.25324  0.59048  1.0000
  N   N4        1.0  0.23078  0.74676  0.40952  1.0000
  O   O1        1.0  0.02125  0.29665  0.41522  1.0000
  O   O2        1.0  0.52125  0.70335  0.58478  1.0000
  O   O3        1.0  0.68616  0.36742  0.42883  1.0000
  O   O4        1.0  0.18617  0.63258  0.57117  1.0000
  O   O5        1.0  0.57370  0.97803  0.38204  1.0000
  O   O6        1.0  0.07370  0.02197  0.61796  1.0000
  O   O7        1.0  0.40805  0.16804  0.41430  1.0000
  O   O8        1.0  0.90805  0.83196  0.58570  1.0000
  O   O9        1.0  0.79115  0.45450  0.08872  1.0000
  O   O10       1.0  0.29115  0.54550  0.91128  1.0000
  O   O11       1.0  0.92116  0.27465  0.05618  1.0000
  O   O12       1.0  0.42116  0.72535  0.94382  1.0000
  O   O13       1.0  0.42075  0.19449  0.06092  1.0000
  O   O14       1.0  0.92075  0.80550  0.93908  1.0000
  O   O15       1.0  0.55281  0.01476  0.03155  1.0000
  O   O16       1.0  0.05281  0.98524  0.96845  1.0000
  O   O17       1.0  0.51852  0.08643  0.55864  1.0000
  O   O18       1.0  0.01852  0.91357  0.44136  1.0000
  O   O19       1.0  0.36431  0.27812  0.59774  1.0000
  O   O20       1.0  0.86431  0.72188  0.40226  1.0000
  O   O21       1.0  0.97761  0.39676  0.58571  1.0000
  O   O22       1.0  0.47761  0.60324  0.41429  1.0000
  O   O23       1.0  0.64690  0.47038  0.61082  1.0000
  O   O24       1.0  0.14690  0.52962  0.38918  1.0000
  O   O25       1.0  0.56568  0.05057  0.90943  1.0000
  O   O26       1.0  0.06568  0.94943  0.09057  1.0000
  O   O27       1.0  0.45040  0.23424  0.94159  1.0000
  O   O28       1.0  0.95040  0.76576  0.05841  1.0000
  O   O29       1.0  0.94712  0.31668  0.93706  1.0000
  O   O30       1.0  0.44712  0.68333  0.06294  1.0000
  O   O31       1.0  0.79878  0.49164  0.96459  1.0000
  O   O32       1.0  0.29878  0.50836  0.03541  1.0000
