data_image0
_chemical_formula_structural       Cd4H32C40N32Cl8
_chemical_formula_sum              "Cd4 H32 C40 N32 Cl8"
_cell_length_a       6.9255
_cell_length_b       11.9207
_cell_length_c       16.8048
_cell_angle_alpha    89.9998
_cell_angle_beta     93.1797
_cell_angle_gamma    89.9993

_space_group_name_H-M_alt    "P 1"
_space_group_IT_number       1

loop_
  _space_group_symop_operation_xyz
  'x, y, z'

loop_
  _atom_site_type_symbol
  _atom_site_label
  _atom_site_symmetry_multiplicity
  _atom_site_fract_x
  _atom_site_fract_y
  _atom_site_fract_z
  _atom_site_occupancy
  Cd  Cd1       1.0  0.25437  0.56468  0.01512  1.0000
  Cd  Cd2       1.0  0.74562  0.06467  0.48488  1.0000
  Cd  Cd3       1.0  0.74562  0.43533  0.98489  1.0000
  Cd  Cd4       1.0  0.25438  0.93533  0.51511  1.0000
  H   H1        1.0  0.22669  0.01390  0.13862  1.0000
  H   H2        1.0  0.77331  0.51389  0.36138  1.0000
  H   H3        1.0  0.77331  0.98611  0.86138  1.0000
  H   H4        1.0  0.22668  0.48610  0.63862  1.0000
  H   H5        1.0  0.21697  0.09614  0.05261  1.0000
  H   H6        1.0  0.78303  0.59613  0.44739  1.0000
  H   H7        1.0  0.78304  0.90387  0.94739  1.0000
  H   H8        1.0  0.21696  0.40386  0.55261  1.0000
  H   H9        1.0  0.09355  0.52758  0.20213  1.0000
  H   H10       1.0  0.90642  0.02758  0.29787  1.0000
  H   H11       1.0  0.90643  0.47243  0.79787  1.0000
  H   H12       1.0  0.09358  0.97242  0.70214  1.0000
  H   H13       1.0  0.05439  0.64494  0.32731  1.0000
  H   H14       1.0  0.94560  0.14493  0.17269  1.0000
  H   H15       1.0  0.94560  0.35508  0.67269  1.0000
  H   H16       1.0  0.05441  0.85506  0.82732  1.0000
  H   H17       1.0  0.11611  0.85203  0.31780  1.0000
  H   H18       1.0  0.88388  0.35202  0.18220  1.0000
  H   H19       1.0  0.88388  0.14799  0.68221  1.0000
  H   H20       1.0  0.11612  0.64796  0.81780  1.0000
  H   H21       1.0  0.42386  0.10413  0.73087  1.0000
  H   H22       1.0  0.57616  0.60413  0.76912  1.0000
  H   H23       1.0  0.57616  0.89587  0.26913  1.0000
  H   H24       1.0  0.42385  0.39587  0.23087  1.0000
  H   H25       1.0  0.35018  0.29699  0.78683  1.0000
  H   H26       1.0  0.64983  0.79699  0.71316  1.0000
  H   H27       1.0  0.64982  0.70300  0.21316  1.0000
  H   H28       1.0  0.35019  0.20300  0.28684  1.0000
  H   H29       1.0  0.24662  0.30509  0.92891  1.0000
  H   H30       1.0  0.75337  0.80509  0.57108  1.0000
  H   H31       1.0  0.75338  0.69491  0.07108  1.0000
  H   H32       1.0  0.24665  0.19490  0.42892  1.0000
  C   C1        1.0  0.29736  0.93493  0.95960  1.0000
  C   C2        1.0  0.70264  0.43492  0.54039  1.0000
  C   C3        1.0  0.70263  0.06507  0.04040  1.0000
  C   C4        1.0  0.29737  0.56507  0.45960  1.0000
  C   C5        1.0  0.24059  0.82450  0.05942  1.0000
  C   C6        1.0  0.75941  0.32450  0.44058  1.0000
  C   C7        1.0  0.75941  0.17550  0.94059  1.0000
  C   C8        1.0  0.24060  0.67550  0.55941  1.0000
  C   C9        1.0  0.18759  0.77772  0.13500  1.0000
  C   C10       1.0  0.81242  0.27771  0.36500  1.0000
  C   C11       1.0  0.81242  0.22230  0.86500  1.0000
  C   C12       1.0  0.18758  0.72228  0.63500  1.0000
  C   C13       1.0  0.11412  0.61832  0.20348  1.0000
  C   C14       1.0  0.88586  0.11831  0.29652  1.0000
  C   C15       1.0  0.88587  0.38170  0.79653  1.0000
  C   C16       1.0  0.11415  0.88168  0.70349  1.0000
  C   C17       1.0  0.09161  0.68277  0.27141  1.0000
  C   C18       1.0  0.90839  0.18277  0.22858  1.0000
  C   C19       1.0  0.90838  0.31724  0.72859  1.0000
  C   C20       1.0  0.09162  0.81722  0.77142  1.0000
  C   C21       1.0  0.12535  0.79770  0.26588  1.0000
  C   C22       1.0  0.87464  0.29770  0.23412  1.0000
  C   C23       1.0  0.87464  0.20231  0.73413  1.0000
  C   C24       1.0  0.12536  0.70229  0.76587  1.0000
  C   C25       1.0  0.31086  0.03523  0.91010  1.0000
  C   C26       1.0  0.68914  0.53522  0.58989  1.0000
  C   C27       1.0  0.68914  0.96478  0.08989  1.0000
  C   C28       1.0  0.31087  0.46478  0.41010  1.0000
  C   C29       1.0  0.37864  0.11516  0.79174  1.0000
  C   C30       1.0  0.62139  0.61516  0.70826  1.0000
  C   C31       1.0  0.62137  0.88484  0.20826  1.0000
  C   C32       1.0  0.37862  0.38484  0.29174  1.0000
  C   C33       1.0  0.33637  0.22097  0.82191  1.0000
  C   C34       1.0  0.66363  0.72097  0.67808  1.0000
  C   C35       1.0  0.66363  0.77903  0.17809  1.0000
  C   C36       1.0  0.33638  0.27903  0.32192  1.0000
  C   C37       1.0  0.27986  0.22595  0.90012  1.0000
  C   C38       1.0  0.72013  0.72594  0.59987  1.0000
  C   C39       1.0  0.72013  0.77405  0.09988  1.0000
  C   C40       1.0  0.27988  0.27405  0.40013  1.0000
  N   N1        1.0  0.30181  0.76245  0.99926  1.0000
  N   N2        1.0  0.69819  0.26245  0.50074  1.0000
  N   N3        1.0  0.69818  0.23755  0.00075  1.0000
  N   N4        1.0  0.30181  0.73755  0.49925  1.0000
  N   N5        1.0  0.33643  0.82962  0.93744  1.0000
  N   N6        1.0  0.66357  0.32961  0.56256  1.0000
  N   N7        1.0  0.66355  0.17039  0.06256  1.0000
  N   N8        1.0  0.33643  0.67039  0.43744  1.0000
  N   N9        1.0  0.23872  0.93438  0.03690  1.0000
  N   N10       1.0  0.76128  0.43437  0.46310  1.0000
  N   N11       1.0  0.76128  0.06562  0.96310  1.0000
  N   N12       1.0  0.23872  0.56562  0.53690  1.0000
  N   N13       1.0  0.17375  0.02397  0.08090  1.0000
  N   N14       1.0  0.82625  0.52396  0.41910  1.0000
  N   N15       1.0  0.82625  0.97604  0.91910  1.0000
  N   N16       1.0  0.17374  0.47603  0.58090  1.0000
  N   N17       1.0  0.16338  0.66550  0.13524  1.0000
  N   N18       1.0  0.83662  0.16549  0.36476  1.0000
  N   N19       1.0  0.83662  0.33452  0.86476  1.0000
  N   N20       1.0  0.16338  0.83451  0.63525  1.0000
  N   N21       1.0  0.17146  0.84653  0.19740  1.0000
  N   N22       1.0  0.82854  0.34653  0.30260  1.0000
  N   N23       1.0  0.82854  0.15348  0.80261  1.0000
  N   N24       1.0  0.17146  0.65347  0.69739  1.0000
  N   N25       1.0  0.36904  0.02152  0.83571  1.0000
  N   N26       1.0  0.63096  0.52151  0.66429  1.0000
  N   N27       1.0  0.63096  0.97848  0.16429  1.0000
  N   N28       1.0  0.36904  0.47848  0.33571  1.0000
  N   N29       1.0  0.26437  0.13304  0.94427  1.0000
  N   N30       1.0  0.73562  0.63303  0.55572  1.0000
  N   N31       1.0  0.73562  0.86696  0.05573  1.0000
  N   N32       1.0  0.26438  0.36696  0.44427  1.0000
  Cl  Cl1       1.0  0.08666  0.38352  0.06148  1.0000
  Cl  Cl2       1.0  0.91334  0.88352  0.43852  1.0000
  Cl  Cl3       1.0  0.91333  0.61648  0.93853  1.0000
  Cl  Cl4       1.0  0.08665  0.11647  0.56148  1.0000
  Cl  Cl5       1.0  0.57135  0.50212  0.10711  1.0000
  Cl  Cl6       1.0  0.42864  0.00211  0.39289  1.0000
  Cl  Cl7       1.0  0.42863  0.49789  0.89290  1.0000
  Cl  Cl8       1.0  0.57137  0.99788  0.60710  1.0000
