data_image0
_chemical_formula_structural       Cd2H16C20N16Cl4
_chemical_formula_sum              "Cd2 H16 C20 N16 Cl4"
_cell_length_a       6.9806
_cell_length_b       8.57676
_cell_length_c       12.0507
_cell_angle_alpha    90.8977
_cell_angle_beta     83.5735
_cell_angle_gamma    83.1005

_space_group_name_H-M_alt    "P 1"
_space_group_IT_number       1

loop_
  _space_group_symop_operation_xyz
  'x, y, z'

loop_
  _atom_site_type_symbol
  _atom_site_label
  _atom_site_symmetry_multiplicity
  _atom_site_fract_x
  _atom_site_fract_y
  _atom_site_fract_z
  _atom_site_occupancy
  Cd  Cd1       1.0  0.24574  0.97188  0.05958  1.0000
  Cd  Cd2       1.0  0.75426  0.02812  0.94042  1.0000
  H   H1        1.0  0.19757  0.72707  0.49597  1.0000
  H   H2        1.0  0.80243  0.27293  0.50403  1.0000
  H   H3        1.0  0.22236  0.88568  0.58727  1.0000
  H   H4        1.0  0.77764  0.11433  0.41273  1.0000
  H   H5        1.0  0.13839  0.59405  0.02741  1.0000
  H   H6        1.0  0.86161  0.40595  0.97259  1.0000
  H   H7        1.0  0.10095  0.35365  0.14688  1.0000
  H   H8        1.0  0.89904  0.64634  0.85312  1.0000
  H   H9        1.0  0.12577  0.38678  0.35293  1.0000
  H   H10       1.0  0.87423  0.61322  0.64707  1.0000
  H   H11       1.0  0.41196  0.51507  0.59926  1.0000
  H   H12       1.0  0.58803  0.48494  0.40073  1.0000
  H   H13       1.0  0.34911  0.40020  0.79082  1.0000
  H   H14       1.0  0.65088  0.59981  0.20918  1.0000
  H   H15       1.0  0.26484  0.12116  0.79746  1.0000
  H   H16       1.0  0.73516  0.87885  0.20254  1.0000
  C   C1        1.0  0.28391  0.07924  0.42743  1.0000
  C   C2        1.0  0.71610  0.92076  0.57257  1.0000
  C   C3        1.0  0.22606  0.88935  0.31794  1.0000
  C   C4        1.0  0.77394  0.11064  0.68207  1.0000
  C   C5        1.0  0.18404  0.74074  0.27325  1.0000
  C   C6        1.0  0.81597  0.25925  0.72675  1.0000
  C   C7        1.0  0.14416  0.59685  0.11757  1.0000
  C   C8        1.0  0.85583  0.40315  0.88243  1.0000
  C   C9        1.0  0.12400  0.46601  0.18301  1.0000
  C   C10       1.0  0.87599  0.53399  0.81699  1.0000
  C   C11       1.0  0.13566  0.48479  0.29707  1.0000
  C   C12       1.0  0.86433  0.51522  0.70293  1.0000
  C   C13       1.0  0.30377  0.17075  0.52778  1.0000
  C   C14       1.0  0.69624  0.82925  0.47222  1.0000
  C   C15       1.0  0.36821  0.39727  0.60905  1.0000
  C   C16       1.0  0.63178  0.60274  0.39095  1.0000
  C   C17       1.0  0.33537  0.33453  0.71470  1.0000
  C   C18       1.0  0.66462  0.66547  0.28530  1.0000
  C   C19       1.0  0.28865  0.18107  0.71882  1.0000
  C   C20       1.0  0.71135  0.81894  0.28117  1.0000
  N   N1        1.0  0.27771  0.00838  0.25507  1.0000
  N   N2        1.0  0.72229  0.99161  0.74493  1.0000
  N   N3        1.0  0.31334  0.12590  0.32179  1.0000
  N   N4        1.0  0.68668  0.87410  0.67821  1.0000
  N   N5        1.0  0.23012  0.92953  0.42752  1.0000
  N   N6        1.0  0.76988  0.07047  0.57248  1.0000
  N   N7        1.0  0.16738  0.84423  0.51813  1.0000
  N   N8        1.0  0.83262  0.15577  0.48188  1.0000
  N   N9        1.0  0.17229  0.73491  0.16251  1.0000
  N   N10       1.0  0.82771  0.26508  0.83749  1.0000
  N   N11       1.0  0.16674  0.62165  0.34323  1.0000
  N   N12       1.0  0.83326  0.37834  0.65677  1.0000
  N   N13       1.0  0.35334  0.31682  0.51461  1.0000
  N   N14       1.0  0.64666  0.68318  0.48539  1.0000
  N   N15       1.0  0.27210  0.09881  0.62558  1.0000
  N   N16       1.0  0.72790  0.90119  0.37443  1.0000
  Cl  Cl1       1.0  0.10929  0.87124  0.88375  1.0000
  Cl  Cl2       1.0  0.89072  0.12876  0.11625  1.0000
  Cl  Cl3       1.0  0.41039  0.20825  0.98774  1.0000
  Cl  Cl4       1.0  0.58962  0.79175  0.01226  1.0000
