data_image0
_chemical_formula_structural       Cu4H44C48N8O14
_chemical_formula_sum              "Cu4 H44 C48 N8 O14"
_cell_length_a       8.55276
_cell_length_b       9.73527
_cell_length_c       15.534
_cell_angle_alpha    85.4314
_cell_angle_beta     78.3354
_cell_angle_gamma    74.1106

_space_group_name_H-M_alt    "P 1"
_space_group_IT_number       1

loop_
  _space_group_symop_operation_xyz
  'x, y, z'

loop_
  _atom_site_type_symbol
  _atom_site_label
  _atom_site_symmetry_multiplicity
  _atom_site_fract_x
  _atom_site_fract_y
  _atom_site_fract_z
  _atom_site_occupancy
  Cu  Cu1       1.0  0.83342  0.48391  0.47246  1.0000
  Cu  Cu2       1.0  0.16658  0.51609  0.52754  1.0000
  Cu  Cu3       1.0  0.08883  0.92392  0.93410  1.0000
  Cu  Cu4       1.0  0.91117  0.07608  0.06590  1.0000
  H   H1        1.0  0.12521  0.33110  0.33235  1.0000
  H   H2        1.0  0.87480  0.66891  0.66765  1.0000
  H   H3        1.0  0.16712  0.31421  0.16777  1.0000
  H   H4        1.0  0.83288  0.68579  0.83223  1.0000
  H   H5        1.0  0.94493  0.45980  0.09047  1.0000
  H   H6        1.0  0.05507  0.54019  0.90953  1.0000
  H   H7        1.0  0.69517  0.62524  0.17810  1.0000
  H   H8        1.0  0.30483  0.37476  0.82190  1.0000
  H   H9        1.0  0.26229  0.81924  0.60122  1.0000
  H   H10       1.0  0.73771  0.18077  0.39879  1.0000
  H   H11       1.0  0.08698  0.92825  0.74124  1.0000
  H   H12       1.0  0.91302  0.07176  0.25876  1.0000
  H   H13       1.0  0.61020  0.56612  0.75503  1.0000
  H   H14       1.0  0.38980  0.43388  0.24497  1.0000
  H   H15       1.0  0.41420  0.68070  0.89055  1.0000
  H   H16       1.0  0.58580  0.31931  0.10945  1.0000
  H   H17       1.0  0.30325  0.73747  0.41963  1.0000
  H   H18       1.0  0.69675  0.26252  0.58037  1.0000
  H   H19       1.0  0.10264  0.94629  0.36794  1.0000
  H   H20       1.0  0.89736  0.05370  0.63206  1.0000
  H   H21       1.0  0.19567  0.09903  0.24309  1.0000
  H   H22       1.0  0.80432  0.90097  0.75692  1.0000
  H   H23       1.0  0.49761  0.04882  0.17588  1.0000
  H   H24       1.0  0.50239  0.95118  0.82412  1.0000
  H   H25       1.0  0.69798  0.84746  0.22948  1.0000
  H   H26       1.0  0.30202  0.15254  0.77052  1.0000
  H   H27       1.0  0.18766  0.00484  0.52039  1.0000
  H   H28       1.0  0.81235  0.99515  0.47961  1.0000
  H   H29       1.0  0.19001  0.13459  0.59611  1.0000
  H   H30       1.0  0.80999  0.86541  0.40389  1.0000
  H   H31       1.0  0.30843  0.13063  0.48867  1.0000
  H   H32       1.0  0.69157  0.86936  0.51133  1.0000
  H   H33       1.0  0.28894  0.59684  0.13296  1.0000
  H   H34       1.0  0.71106  0.40316  0.86704  1.0000
  H   H35       1.0  0.13129  0.67658  0.22390  1.0000
  H   H36       1.0  0.86871  0.32341  0.77611  1.0000
  H   H37       1.0  0.30807  0.74164  0.19092  1.0000
  H   H38       1.0  0.69193  0.25836  0.80907  1.0000
  H   H39       1.0  0.68458  0.68771  0.98834  1.0000
  H   H40       1.0  0.31541  0.31230  0.01167  1.0000
  H   H41       1.0  0.55368  0.85423  0.95906  1.0000
  H   H42       1.0  0.44631  0.14578  0.04094  1.0000
  H   H43       1.0  0.55345  0.80837  0.07163  1.0000
  H   H44       1.0  0.44654  0.19164  0.92838  1.0000
  C   C1        1.0  0.03497  0.39522  0.29487  1.0000
  C   C2        1.0  0.96504  0.60478  0.70512  1.0000
  C   C3        1.0  0.05779  0.38730  0.20382  1.0000
  C   C4        1.0  0.94221  0.61270  0.79617  1.0000
  C   C5        1.0  0.93407  0.46960  0.16095  1.0000
  C   C6        1.0  0.06593  0.53040  0.83905  1.0000
  C   C7        1.0  0.79482  0.56095  0.20947  1.0000
  C   C8        1.0  0.20518  0.43906  0.79053  1.0000
  C   C9        1.0  0.78009  0.56596  0.30069  1.0000
  C   C10       1.0  0.21991  0.43404  0.69931  1.0000
  C   C11       1.0  0.63648  0.65430  0.35950  1.0000
  C   C12       1.0  0.36352  0.34569  0.64050  1.0000
  C   C13       1.0  0.56500  0.62471  0.58656  1.0000
  C   C14       1.0  0.43500  0.37529  0.41344  1.0000
  C   C15       1.0  0.45252  0.68732  0.66760  1.0000
  C   C16       1.0  0.54748  0.31269  0.33240  1.0000
  C   C17       1.0  0.30253  0.78886  0.66359  1.0000
  C   C18       1.0  0.69748  0.21115  0.33641  1.0000
  C   C19       1.0  0.20357  0.84698  0.74132  1.0000
  C   C20       1.0  0.79644  0.15303  0.25868  1.0000
  C   C21       1.0  0.49516  0.64642  0.75017  1.0000
  C   C22       1.0  0.50485  0.35358  0.24983  1.0000
  C   C23       1.0  0.38754  0.70933  0.82461  1.0000
  C   C24       1.0  0.61247  0.29067  0.17540  1.0000
  C   C25       1.0  0.51454  0.77466  0.32740  1.0000
  C   C26       1.0  0.48546  0.22533  0.67260  1.0000
  C   C27       1.0  0.34550  0.80535  0.36619  1.0000
  C   C28       1.0  0.65449  0.19464  0.63381  1.0000
  C   C29       1.0  0.23238  0.92179  0.33613  1.0000
  C   C30       1.0  0.76762  0.07821  0.66387  1.0000
  C   C31       1.0  0.28530  0.00941  0.26716  1.0000
  C   C32       1.0  0.71470  0.99059  0.73284  1.0000
  C   C33       1.0  0.45292  0.98132  0.22903  1.0000
  C   C34       1.0  0.54708  0.01867  0.77097  1.0000
  C   C35       1.0  0.56720  0.86519  0.25882  1.0000
  C   C36       1.0  0.43280  0.13481  0.74118  1.0000
  C   C37       1.0  0.04662  0.21704  0.49504  1.0000
  C   C38       1.0  0.95338  0.78295  0.50495  1.0000
  C   C39       1.0  0.19178  0.11455  0.52730  1.0000
  C   C40       1.0  0.80822  0.88545  0.47270  1.0000
  C   C41       1.0  0.13642  0.80446  0.10367  1.0000
  C   C42       1.0  0.86358  0.19553  0.89633  1.0000
  C   C43       1.0  0.22124  0.69649  0.16647  1.0000
  C   C44       1.0  0.77876  0.30351  0.83353  1.0000
  C   C45       1.0  0.76894  0.87329  0.00291  1.0000
  C   C46       1.0  0.23104  0.12672  0.99709  1.0000
  C   C47       1.0  0.63232  0.80008  0.00621  1.0000
  C   C48       1.0  0.36767  0.19992  0.99379  1.0000
  N   N1        1.0  0.89965  0.48027  0.34155  1.0000
  N   N2        1.0  0.10035  0.51973  0.65845  1.0000
  N   N3        1.0  0.63552  0.61511  0.44280  1.0000
  N   N4        1.0  0.36448  0.38489  0.55721  1.0000
  N   N5        1.0  0.52005  0.67876  0.51002  1.0000
  N   N6        1.0  0.47995  0.32124  0.48998  1.0000
  N   N7        1.0  0.24457  0.80886  0.82060  1.0000
  N   N8        1.0  0.75544  0.19114  0.17940  1.0000
  O   O1        1.0  0.69800  0.52712  0.59420  1.0000
  O   O2        1.0  0.30200  0.47288  0.40580  1.0000
  O   O3        1.0  0.02034  0.35165  0.51342  1.0000
  O   O4        1.0  0.97966  0.64834  0.48658  1.0000
  O   O5        1.0  0.95833  0.17630  0.45335  1.0000
  O   O6        1.0  0.04167  0.82369  0.54665  1.0000
  O   O7        1.0  0.74156  0.97098  0.05809  1.0000
  O   O8        1.0  0.25842  0.02903  0.94191  1.0000
  O   O9        1.0  0.89937  0.83260  0.94485  1.0000
  O   O10       1.0  0.10062  0.16740  0.05516  1.0000
  O   O11       1.0  0.18403  0.77974  0.02177  1.0000
  O   O12       1.0  0.81598  0.22024  0.97823  1.0000
  O   O13       1.0  0.02604  0.91292  0.13759  1.0000
  O   O14       1.0  0.97396  0.08707  0.86240  1.0000
