data_image0
_chemical_formula_structural       Tc2H12C8IO8
_chemical_formula_sum              "Tc2 H12 C8 I1 O8"
_cell_length_a       7.25755
_cell_length_b       7.2733
_cell_length_c       8.0669
_cell_angle_alpha    63.1982
_cell_angle_beta     80.2923
_cell_angle_gamma    67.9938

_space_group_name_H-M_alt    "P 1"
_space_group_IT_number       1

loop_
  _space_group_symop_operation_xyz
  'x, y, z'

loop_
  _atom_site_type_symbol
  _atom_site_label
  _atom_site_symmetry_multiplicity
  _atom_site_fract_x
  _atom_site_fract_y
  _atom_site_fract_z
  _atom_site_occupancy
  Tc  Tc1       1.0  0.86959  0.63193  0.00006  1.0000
  Tc  Tc2       1.0  0.13041  0.36808  0.99995  1.0000
  H   H1        1.0  0.18735  0.72214  0.38484  1.0000
  H   H2        1.0  0.81306  0.89271  0.38473  1.0000
  H   H3        1.0  0.81265  0.27785  0.61516  1.0000
  H   H4        1.0  0.18694  0.10729  0.61527  1.0000
  H   H5        1.0  0.41980  0.53531  0.35064  1.0000
  H   H6        1.0  0.58061  0.11387  0.35035  1.0000
  H   H7        1.0  0.58021  0.46469  0.64936  1.0000
  H   H8        1.0  0.41938  0.88613  0.64965  1.0000
  H   H9        1.0  0.25537  0.43488  0.53013  1.0000
  H   H10       1.0  0.74492  0.03467  0.53002  1.0000
  H   H11       1.0  0.74463  0.56512  0.46987  1.0000
  H   H12       1.0  0.25508  0.96533  0.46998  1.0000
  C   C1        1.0  0.16614  0.53348  0.25521  1.0000
  C   C2        1.0  0.83424  0.21109  0.25531  1.0000
  C   C3        1.0  0.83387  0.46651  0.74480  1.0000
  C   C4        1.0  0.16575  0.78891  0.74469  1.0000
  C   C5        1.0  0.26303  0.55901  0.38856  1.0000
  C   C6        1.0  0.73738  0.05215  0.38841  1.0000
  C   C7        1.0  0.73697  0.44099  0.61145  1.0000
  C   C8        1.0  0.26262  0.94784  0.61160  1.0000
  I   I1        1.0  0.50000  0.00001  1.00000  1.0000
  O   O1        1.0  0.98810  0.66015  0.19867  1.0000
  O   O2        1.0  0.01219  0.14108  0.19873  1.0000
  O   O3        1.0  0.01190  0.33985  0.80133  1.0000
  O   O4        1.0  0.98780  0.85892  0.80127  1.0000
  O   O5        1.0  0.26151  0.38391  0.19838  1.0000
  O   O6        1.0  0.73883  0.41751  0.19865  1.0000
  O   O7        1.0  0.73849  0.61609  0.80162  1.0000
  O   O8        1.0  0.26117  0.58249  0.80135  1.0000
