data_image0
_chemical_formula_structural       Cs2H42C36S2O20
_chemical_formula_sum              "Cs2 H42 C36 S2 O20"
_cell_length_a       7.47041
_cell_length_b       8.29023
_cell_length_c       16.992
_cell_angle_alpha    75.6915
_cell_angle_beta     81.7467
_cell_angle_gamma    82.5701

_space_group_name_H-M_alt    "P 1"
_space_group_IT_number       1

loop_
  _space_group_symop_operation_xyz
  'x, y, z'

loop_
  _atom_site_type_symbol
  _atom_site_label
  _atom_site_symmetry_multiplicity
  _atom_site_fract_x
  _atom_site_fract_y
  _atom_site_fract_z
  _atom_site_occupancy
  Cs  Cs1       1.0  0.70258  0.85109  0.06946  1.0000
  Cs  Cs2       1.0  0.29743  0.14891  0.93054  1.0000
  H   H1        1.0  0.33384  0.07499  0.27566  1.0000
  H   H2        1.0  0.66616  0.92501  0.72434  1.0000
  H   H3        1.0  0.43792  0.86501  0.29886  1.0000
  H   H4        1.0  0.56208  0.13499  0.70114  1.0000
  H   H5        1.0  0.38324  0.96140  0.19677  1.0000
  H   H6        1.0  0.61676  0.03860  0.80323  1.0000
  H   H7        1.0  0.51033  0.97045  0.38923  1.0000
  H   H8        1.0  0.48967  0.02955  0.61077  1.0000
  H   H9        1.0  0.66852  0.05629  0.48718  1.0000
  H   H10       1.0  0.33148  0.94371  0.51282  1.0000
  H   H11       1.0  0.04316  0.29523  0.28850  1.0000
  H   H12       1.0  0.95683  0.70477  0.71150  1.0000
  H   H13       1.0  0.80891  0.25024  0.69783  1.0000
  H   H14       1.0  0.19109  0.74976  0.30217  1.0000
  H   H15       1.0  0.00946  0.33283  0.78285  1.0000
  H   H16       1.0  0.99054  0.66718  0.21715  1.0000
  H   H17       1.0  0.42554  0.41192  0.57460  1.0000
  H   H18       1.0  0.57446  0.58809  0.42540  1.0000
  H   H19       1.0  0.22171  0.25427  0.37641  1.0000
  H   H20       1.0  0.77829  0.74573  0.62359  1.0000
  H   H21       1.0  0.45429  0.61892  0.65965  1.0000
  H   H22       1.0  0.54572  0.38108  0.34034  1.0000
  H   H23       1.0  0.58247  0.42041  0.66567  1.0000
  H   H24       1.0  0.41753  0.57959  0.33433  1.0000
  H   H25       1.0  0.48568  0.59281  0.80938  1.0000
  H   H26       1.0  0.51432  0.40719  0.19062  1.0000
  H   H27       1.0  0.70240  0.58891  0.75007  1.0000
  H   H28       1.0  0.29760  0.41109  0.24993  1.0000
  H   H29       1.0  0.62461  0.39996  0.81117  1.0000
  H   H30       1.0  0.37539  0.60003  0.18883  1.0000
  H   H31       1.0  0.09256  0.51899  0.09034  1.0000
  H   H32       1.0  0.90744  0.48101  0.90966  1.0000
  H   H33       1.0  0.13891  0.63280  0.00218  1.0000
  H   H34       1.0  0.86109  0.36720  0.99782  1.0000
  H   H35       1.0  0.65472  0.73039  0.89891  1.0000
  H   H36       1.0  0.34528  0.26961  0.10109  1.0000
  H   H37       1.0  0.44358  0.72048  0.91639  1.0000
  H   H38       1.0  0.55642  0.27952  0.08361  1.0000
  H   H39       1.0  0.22227  0.76875  0.08454  1.0000
  H   H40       1.0  0.77773  0.23125  0.91546  1.0000
  H   H41       1.0  0.17640  0.93346  0.11475  1.0000
  H   H42       1.0  0.82359  0.06654  0.88525  1.0000
  C   C1        1.0  0.42965  0.98168  0.25138  1.0000
  C   C2        1.0  0.57035  0.01832  0.74861  1.0000
  C   C3        1.0  0.68862  0.08189  0.28324  1.0000
  C   C4        1.0  0.31138  0.91811  0.71676  1.0000
  C   C5        1.0  0.62737  0.04186  0.36693  1.0000
  C   C6        1.0  0.37263  0.95814  0.63307  1.0000
  C   C7        1.0  0.71813  0.08858  0.42260  1.0000
  C   C8        1.0  0.28187  0.91142  0.57740  1.0000
  C   C9        1.0  0.87099  0.17919  0.39714  1.0000
  C   C10       1.0  0.12901  0.82081  0.60286  1.0000
  C   C11       1.0  0.93032  0.21953  0.31282  1.0000
  C   C12       1.0  0.06968  0.78047  0.68718  1.0000
  C   C13       1.0  0.84395  0.17047  0.25661  1.0000
  C   C14       1.0  0.15605  0.82954  0.74339  1.0000
  C   C15       1.0  0.96720  0.23005  0.45570  1.0000
  C   C16       1.0  0.03280  0.76995  0.54430  1.0000
  C   C17       1.0  0.88092  0.24350  0.53769  1.0000
  C   C18       1.0  0.11908  0.75650  0.46231  1.0000
  C   C19       1.0  0.99953  0.28738  0.58879  1.0000
  C   C20       1.0  0.00047  0.71262  0.41121  1.0000
  C   C21       1.0  0.94276  0.28801  0.67160  1.0000
  C   C22       1.0  0.05724  0.71199  0.32840  1.0000
  C   C23       1.0  0.05382  0.33312  0.71887  1.0000
  C   C24       1.0  0.94617  0.66688  0.28113  1.0000
  C   C25       1.0  0.22855  0.38091  0.68441  1.0000
  C   C26       1.0  0.77144  0.61909  0.31559  1.0000
  C   C27       1.0  0.29008  0.38187  0.60276  1.0000
  C   C28       1.0  0.70992  0.61813  0.39724  1.0000
  C   C29       1.0  0.17516  0.33156  0.55743  1.0000
  C   C30       1.0  0.82483  0.66844  0.44257  1.0000
  C   C31       1.0  0.14316  0.26674  0.43400  1.0000
  C   C32       1.0  0.85684  0.73326  0.56600  1.0000
  C   C33       1.0  0.49329  0.49927  0.70159  1.0000
  C   C34       1.0  0.50671  0.50073  0.29841  1.0000
  C   C35       1.0  0.58117  0.52156  0.77231  1.0000
  C   C36       1.0  0.41884  0.47844  0.22769  1.0000
  S   S1        1.0  0.92990  0.22367  0.15102  1.0000
  S   S2        1.0  0.07011  0.77633  0.84898  1.0000
  O   O1        1.0  0.09161  0.63669  0.05907  1.0000
  O   O2        1.0  0.90839  0.36331  0.94093  1.0000
  O   O3        1.0  0.54676  0.75508  0.93572  1.0000
  O   O4        1.0  0.45324  0.24492  0.06428  1.0000
  O   O5        1.0  0.28059  0.85770  0.09876  1.0000
  O   O6        1.0  0.71941  0.14230  0.90124  1.0000
  O   O7        1.0  0.60516  0.04259  0.22551  1.0000
  O   O8        1.0  0.39484  0.95741  0.77449  1.0000
  O   O9        1.0  0.71839  0.21984  0.56328  1.0000
  O   O10       1.0  0.28161  0.78016  0.43672  1.0000
  O   O11       1.0  0.24544  0.32209  0.47929  1.0000
  O   O12       1.0  0.75456  0.67791  0.52071  1.0000
  O   O13       1.0  0.32872  0.41964  0.73643  1.0000
  O   O14       1.0  0.67128  0.58037  0.26357  1.0000
  O   O15       1.0  0.09380  0.30915  0.14748  1.0000
  O   O16       1.0  0.90620  0.69085  0.85252  1.0000
  O   O17       1.0  0.78721  0.33568  0.10728  1.0000
  O   O18       1.0  0.21279  0.66431  0.89272  1.0000
  O   O19       1.0  0.97168  0.06581  0.12445  1.0000
  O   O20       1.0  0.02832  0.93418  0.87555  1.0000
