data_image0
_chemical_formula_structural       Cs2H26C34S2O18
_chemical_formula_sum              "Cs2 H26 C34 S2 O18"
_cell_length_a       6.28816
_cell_length_b       11.4526
_cell_length_c       12.8616
_cell_angle_alpha    92.9289
_cell_angle_beta     97.8746
_cell_angle_gamma    94.2643

_space_group_name_H-M_alt    "P 1"
_space_group_IT_number       1

loop_
  _space_group_symop_operation_xyz
  'x, y, z'

loop_
  _atom_site_type_symbol
  _atom_site_label
  _atom_site_symmetry_multiplicity
  _atom_site_fract_x
  _atom_site_fract_y
  _atom_site_fract_z
  _atom_site_occupancy
  Cs  Cs1       1.0  0.21696  0.85732  0.95782  1.0000
  Cs  Cs2       1.0  0.78304  0.14268  0.04217  1.0000
  H   H1        1.0  0.64376  0.54955  0.73353  1.0000
  H   H2        1.0  0.35624  0.45044  0.26647  1.0000
  H   H3        1.0  0.66080  0.56421  0.45577  1.0000
  H   H4        1.0  0.33920  0.43579  0.54423  1.0000
  H   H5        1.0  0.12367  0.72729  0.25897  1.0000
  H   H6        1.0  0.87633  0.27271  0.74103  1.0000
  H   H7        1.0  0.64863  0.94475  0.48949  1.0000
  H   H8        1.0  0.35136  0.05525  0.51051  1.0000
  H   H9        1.0  0.94120  0.03190  0.40300  1.0000
  H   H10       1.0  0.05879  0.96810  0.59700  1.0000
  H   H11       1.0  0.43922  0.71175  0.21407  1.0000
  H   H12       1.0  0.56077  0.28826  0.78593  1.0000
  H   H13       1.0  0.04296  0.56691  0.94277  1.0000
  H   H14       1.0  0.95703  0.43309  0.05723  1.0000
  H   H15       1.0  0.24944  0.58450  0.86001  1.0000
  H   H16       1.0  0.75056  0.41550  0.14000  1.0000
  H   H17       1.0  0.04473  0.46448  0.83277  1.0000
  H   H18       1.0  0.95527  0.53552  0.16723  1.0000
  H   H19       1.0  0.28130  0.07571  0.20322  1.0000
  H   H20       1.0  0.71871  0.92428  0.79679  1.0000
  H   H21       1.0  0.27044  0.00864  0.32575  1.0000
  H   H22       1.0  0.72955  0.99136  0.67425  1.0000
  H   H23       1.0  0.10983  0.12782  0.29255  1.0000
  H   H24       1.0  0.89017  0.87218  0.70745  1.0000
  H   H25       1.0  0.42030  0.77907  0.68913  1.0000
  H   H26       1.0  0.57969  0.22094  0.31086  1.0000
  C   C1        1.0  0.97736  0.65711  0.48351  1.0000
  C   C2        1.0  0.02264  0.34289  0.51649  1.0000
  C   C3        1.0  0.79560  0.59975  0.51373  1.0000
  C   C4        1.0  0.20441  0.40025  0.48627  1.0000
  C   C5        1.0  0.79253  0.59140  0.62137  1.0000
  C   C6        1.0  0.20748  0.40859  0.37863  1.0000
  C   C7        1.0  0.96642  0.63793  0.69715  1.0000
  C   C8        1.0  0.03358  0.36206  0.30285  1.0000
  C   C9        1.0  0.14717  0.69568  0.66500  1.0000
  C   C10       1.0  0.85283  0.30432  0.33500  1.0000
  C   C11       1.0  0.15501  0.70546  0.55546  1.0000
  C   C12       1.0  0.84499  0.29453  0.44453  1.0000
  C   C13       1.0  0.34054  0.76444  0.52046  1.0000
  C   C14       1.0  0.65946  0.23556  0.47953  1.0000
  C   C15       1.0  0.33449  0.77059  0.40737  1.0000
  C   C16       1.0  0.66550  0.22942  0.59263  1.0000
  C   C17       1.0  0.15146  0.72346  0.34433  1.0000
  C   C18       1.0  0.84853  0.27655  0.65567  1.0000
  C   C19       1.0  0.51541  0.82327  0.35889  1.0000
  C   C20       1.0  0.48459  0.17673  0.64111  1.0000
  C   C21       1.0  0.66353  0.91299  0.40998  1.0000
  C   C22       1.0  0.33646  0.08701  0.59002  1.0000
  C   C23       1.0  0.83017  0.96231  0.36083  1.0000
  C   C24       1.0  0.16982  0.03769  0.63917  1.0000
  C   C25       1.0  0.85388  0.92355  0.25831  1.0000
  C   C26       1.0  0.14611  0.07645  0.74169  1.0000
  C   C27       1.0  0.70714  0.83293  0.20599  1.0000
  C   C28       1.0  0.29285  0.16708  0.79400  1.0000
  C   C29       1.0  0.54335  0.78410  0.25651  1.0000
  C   C30       1.0  0.45665  0.21590  0.74348  1.0000
  C   C31       1.0  0.07952  0.55631  0.86221  1.0000
  C   C32       1.0  0.92048  0.44368  0.13779  1.0000
  C   C33       1.0  0.17718  0.04977  0.26121  1.0000
  C   C34       1.0  0.82283  0.95023  0.73879  1.0000
  S   S1        1.0  0.73571  0.77183  0.07772  1.0000
  S   S2        1.0  0.26430  0.22818  0.92228  1.0000
  O   O1        1.0  0.97992  0.66740  0.37778  1.0000
  O   O2        1.0  0.02007  0.33260  0.62221  1.0000
  O   O3        1.0  0.49898  0.80794  0.58716  1.0000
  O   O4        1.0  0.50102  0.19206  0.41284  1.0000
  O   O5        1.0  0.61731  0.53859  0.65626  1.0000
  O   O6        1.0  0.38269  0.46140  0.34374  1.0000
  O   O7        1.0  0.93836  0.63148  0.80140  1.0000
  O   O8        1.0  0.06165  0.36851  0.19860  1.0000
  O   O9        1.0  0.31168  0.74448  0.73609  1.0000
  O   O10       1.0  0.68831  0.25552  0.26390  1.0000
  O   O11       1.0  0.01235  0.96741  0.20494  1.0000
  O   O12       1.0  0.98766  0.03259  0.79507  1.0000
  O   O13       1.0  0.72903  0.87161  0.00843  1.0000
  O   O14       1.0  0.27097  0.12839  0.99157  1.0000
  O   O15       1.0  0.94675  0.72265  0.09048  1.0000
  O   O16       1.0  0.05327  0.27736  0.90953  1.0000
  O   O17       1.0  0.55226  0.68481  0.04909  1.0000
  O   O18       1.0  0.44775  0.31519  0.95091  1.0000
