data_image0
_chemical_formula_structural       Cs2H20C32S2O12F2
_chemical_formula_sum              "Cs2 H20 C32 S2 O12 F2"
_cell_length_a       6.2586
_cell_length_b       7.84777
_cell_length_c       16.2252
_cell_angle_alpha    86.9
_cell_angle_beta     90.6677
_cell_angle_gamma    95.7504

_space_group_name_H-M_alt    "P 1"
_space_group_IT_number       1

loop_
  _space_group_symop_operation_xyz
  'x, y, z'

loop_
  _atom_site_type_symbol
  _atom_site_label
  _atom_site_symmetry_multiplicity
  _atom_site_fract_x
  _atom_site_fract_y
  _atom_site_fract_z
  _atom_site_occupancy
  Cs  Cs1       1.0  0.74877  0.25343  0.02138  1.0000
  Cs  Cs2       1.0  0.25128  0.74662  0.97862  1.0000
  H   H1        1.0  0.81731  0.92530  0.90568  1.0000
  H   H2        1.0  0.18271  0.07474  0.09433  1.0000
  H   H3        1.0  0.89347  0.01536  0.80472  1.0000
  H   H4        1.0  0.10654  0.98466  0.19528  1.0000
  H   H5        1.0  0.69088  0.83561  0.81644  1.0000
  H   H6        1.0  0.30914  0.16441  0.18356  1.0000
  H   H7        1.0  0.65268  0.98483  0.69429  1.0000
  H   H8        1.0  0.34731  0.01515  0.30571  1.0000
  H   H9        1.0  0.42222  0.05325  0.57874  1.0000
  H   H10       1.0  0.57775  0.94672  0.42126  1.0000
  H   H11       1.0  0.05090  0.33029  0.73973  1.0000
  H   H12       1.0  0.94911  0.66973  0.26027  1.0000
  H   H13       1.0  0.13214  0.17580  0.32753  1.0000
  H   H14       1.0  0.86786  0.82420  0.67248  1.0000
  H   H15       1.0  0.54648  0.40031  0.26449  1.0000
  H   H16       1.0  0.45351  0.59969  0.73551  1.0000
  H   H17       1.0  0.48757  0.44306  0.41555  1.0000
  H   H18       1.0  0.51240  0.55691  0.58445  1.0000
  H   H19       1.0  0.83026  0.33645  0.65251  1.0000
  H   H20       1.0  0.16970  0.66351  0.34749  1.0000
  C   C1        1.0  0.76028  0.95504  0.84303  1.0000
  C   C2        1.0  0.23974  0.04499  0.15698  1.0000
  C   C3        1.0  0.48129  0.11195  0.78424  1.0000
  C   C4        1.0  0.51872  0.88806  0.21576  1.0000
  C   C5        1.0  0.51955  0.05927  0.70538  1.0000
  C   C6        1.0  0.48044  0.94072  0.29462  1.0000
  C   C7        1.0  0.38744  0.09846  0.63869  1.0000
  C   C8        1.0  0.61254  0.90151  0.36132  1.0000
  C   C9        1.0  0.21103  0.19309  0.64792  1.0000
  C   C10       1.0  0.78895  0.80690  0.35208  1.0000
  C   C11       1.0  0.17814  0.25033  0.72739  1.0000
  C   C12       1.0  0.82186  0.74968  0.27261  1.0000
  C   C13       1.0  0.30911  0.21278  0.79432  1.0000
  C   C14       1.0  0.69090  0.78724  0.20568  1.0000
  C   C15       1.0  0.06817  0.23431  0.57781  1.0000
  C   C16       1.0  0.93180  0.76566  0.42219  1.0000
  C   C17       1.0  0.11401  0.19863  0.49202  1.0000
  C   C18       1.0  0.88597  0.80135  0.50798  1.0000
  C   C19       1.0  0.95980  0.25708  0.43002  1.0000
  C   C20       1.0  0.04018  0.74290  0.56999  1.0000
  C   C21       1.0  0.99177  0.23525  0.34582  1.0000
  C   C22       1.0  0.00822  0.76474  0.65418  1.0000
  C   C23       1.0  0.84054  0.28476  0.28966  1.0000
  C   C24       1.0  0.15945  0.71524  0.71034  1.0000
  C   C25       1.0  0.65786  0.36004  0.31211  1.0000
  C   C26       1.0  0.34213  0.63995  0.68789  1.0000
  C   C27       1.0  0.62580  0.38367  0.39498  1.0000
  C   C28       1.0  0.37418  0.61631  0.60502  1.0000
  C   C29       1.0  0.77669  0.33124  0.45282  1.0000
  C   C30       1.0  0.22328  0.66873  0.54719  1.0000
  C   C31       1.0  0.88365  0.30835  0.59166  1.0000
  C   C32       1.0  0.11632  0.69161  0.40834  1.0000
  S   S1        1.0  0.26533  0.30577  0.89044  1.0000
  S   S2        1.0  0.73471  0.69427  0.10956  1.0000
  O   O1        1.0  0.06452  0.38705  0.88034  1.0000
  O   O2        1.0  0.93553  0.61300  0.11965  1.0000
  O   O3        1.0  0.25008  0.16432  0.95463  1.0000
  O   O4        1.0  0.74997  0.83574  0.04537  1.0000
  O   O5        1.0  0.45454  0.43049  0.90092  1.0000
  O   O6        1.0  0.54551  0.56955  0.09906  1.0000
  O   O7        1.0  0.59837  0.07001  0.85238  1.0000
  O   O8        1.0  0.40165  0.93001  0.14762  1.0000
  O   O9        1.0  0.26905  0.12449  0.46968  1.0000
  O   O10       1.0  0.73093  0.87549  0.53032  1.0000
  O   O11       1.0  0.74055  0.35629  0.53429  1.0000
  O   O12       1.0  0.25942  0.64367  0.46571  1.0000
  F   F1        1.0  0.86680  0.25541  0.20824  1.0000
  F   F2        1.0  0.13320  0.74461  0.79176  1.0000
