data_image0
_chemical_formula_structural       Rb2H26C34S2O18
_chemical_formula_sum              "Rb2 H26 C34 S2 O18"
_cell_length_a       6.03134
_cell_length_b       11.5172
_cell_length_c       12.6632
_cell_angle_alpha    91.0397
_cell_angle_beta     98.3647
_cell_angle_gamma    91.579

_space_group_name_H-M_alt    "P 1"
_space_group_IT_number       1

loop_
  _space_group_symop_operation_xyz
  'x, y, z'

loop_
  _atom_site_type_symbol
  _atom_site_label
  _atom_site_symmetry_multiplicity
  _atom_site_fract_x
  _atom_site_fract_y
  _atom_site_fract_z
  _atom_site_occupancy
  Rb  Rb1       1.0  0.27789  0.13732  0.03932  1.0000
  Rb  Rb2       1.0  0.72210  0.86269  0.96068  1.0000
  H   H1        1.0  0.92253  0.78652  0.70031  1.0000
  H   H2        1.0  0.07747  0.21347  0.29969  1.0000
  H   H3        1.0  0.94786  0.71439  0.21693  1.0000
  H   H4        1.0  0.05211  0.28562  0.78306  1.0000
  H   H5        1.0  0.15390  0.93652  0.49404  1.0000
  H   H6        1.0  0.84607  0.06349  0.50596  1.0000
  H   H7        1.0  0.44573  0.02719  0.40349  1.0000
  H   H8        1.0  0.55425  0.97281  0.59651  1.0000
  H   H9        1.0  0.78611  0.00811  0.32119  1.0000
  H   H10       1.0  0.21392  0.99189  0.67881  1.0000
  H   H11       1.0  0.60589  0.12710  0.28842  1.0000
  H   H12       1.0  0.39412  0.87290  0.71158  1.0000
  H   H13       1.0  0.78368  0.07899  0.19598  1.0000
  H   H14       1.0  0.21632  0.92102  0.80402  1.0000
  H   H15       1.0  0.62923  0.71567  0.26510  1.0000
  H   H16       1.0  0.37077  0.28433  0.73490  1.0000
  H   H17       1.0  0.16413  0.55832  0.47166  1.0000
  H   H18       1.0  0.83588  0.44166  0.52835  1.0000
  H   H19       1.0  0.59555  0.57439  0.96636  1.0000
  H   H20       1.0  0.40444  0.42561  0.03365  1.0000
  H   H21       1.0  0.79165  0.59807  0.87527  1.0000
  H   H22       1.0  0.20835  0.40193  0.12473  1.0000
  H   H23       1.0  0.60671  0.47132  0.85918  1.0000
  H   H24       1.0  0.39329  0.52868  0.14083  1.0000
  H   H25       1.0  0.15382  0.54441  0.75533  1.0000
  H   H26       1.0  0.84617  0.45559  0.24467  1.0000
  C   C1        1.0  0.21336  0.83601  0.20646  1.0000
  C   C2        1.0  0.78665  0.16400  0.79354  1.0000
  C   C3        1.0  0.05010  0.78501  0.25900  1.0000
  C   C4        1.0  0.94989  0.21499  0.74099  1.0000
  C   C5        1.0  0.02134  0.82050  0.36302  1.0000
  C   C6        1.0  0.97865  0.17951  0.63698  1.0000
  C   C7        1.0  0.16936  0.90794  0.41333  1.0000
  C   C8        1.0  0.83065  0.09207  0.58666  1.0000
  C   C9        1.0  0.33553  0.95922  0.36198  1.0000
  C   C10       1.0  0.66447  0.04078  0.63802  1.0000
  C   C11       1.0  0.35868  0.92485  0.25775  1.0000
  C   C12       1.0  0.64132  0.07516  0.74225  1.0000
  C   C13       1.0  0.68175  0.05115  0.25630  1.0000
  C   C14       1.0  0.31825  0.94885  0.74370  1.0000
  C   C15       1.0  0.65643  0.71622  0.35217  1.0000
  C   C16       1.0  0.34357  0.28377  0.64783  1.0000
  C   C17       1.0  0.83987  0.76718  0.41430  1.0000
  C   C18       1.0  0.16012  0.23282  0.58569  1.0000
  C   C19       1.0  0.84345  0.76563  0.52938  1.0000
  C   C20       1.0  0.15655  0.23436  0.47062  1.0000
  C   C21       1.0  0.65707  0.70722  0.56748  1.0000
  C   C22       1.0  0.34294  0.29276  0.43252  1.0000
  C   C23       1.0  0.47989  0.65503  0.49637  1.0000
  C   C24       1.0  0.52014  0.34496  0.50363  1.0000
  C   C25       1.0  0.29843  0.59674  0.52950  1.0000
  C   C26       1.0  0.70159  0.40323  0.47050  1.0000
  C   C27       1.0  0.29764  0.58973  0.63936  1.0000
  C   C28       1.0  0.70235  0.41027  0.36065  1.0000
  C   C29       1.0  0.47315  0.63890  0.71440  1.0000
  C   C30       1.0  0.52685  0.36109  0.28560  1.0000
  C   C31       1.0  0.65041  0.69982  0.67928  1.0000
  C   C32       1.0  0.34960  0.30017  0.32071  1.0000
  C   C33       1.0  0.62417  0.56331  0.88357  1.0000
  C   C34       1.0  0.37584  0.43669  0.11644  1.0000
  S   S1        1.0  0.24800  0.78040  0.07701  1.0000
  S   S2        1.0  0.75199  0.21961  0.92299  1.0000
  O   O1        1.0  0.23165  0.88191  0.00594  1.0000
  O   O2        1.0  0.76832  0.11810  0.99405  1.0000
  O   O3        1.0  0.47268  0.73113  0.09082  1.0000
  O   O4        1.0  0.52731  0.26889  0.90917  1.0000
  O   O5        1.0  0.06442  0.69512  0.04771  1.0000
  O   O6        1.0  0.93557  0.30489  0.95229  1.0000
  O   O7        1.0  0.51466  0.97118  0.20126  1.0000
  O   O8        1.0  0.48534  0.02882  0.79873  1.0000
  O   O9        1.0  0.00169  0.81194  0.59588  1.0000
  O   O10       1.0  0.99832  0.18806  0.40412  1.0000
  O   O11       1.0  0.48355  0.66142  0.38849  1.0000
  O   O12       1.0  0.51646  0.33857  0.61152  1.0000
  O   O13       1.0  0.81338  0.75282  0.74957  1.0000
  O   O14       1.0  0.18662  0.24718  0.25044  1.0000
  O   O15       1.0  0.45079  0.63008  0.82084  1.0000
  O   O16       1.0  0.54921  0.36991  0.17916  1.0000
  O   O17       1.0  0.12427  0.53449  0.67705  1.0000
  O   O18       1.0  0.87574  0.46550  0.32296  1.0000
