data_image0
_chemical_formula_structural       MnH14C10N4O10
_chemical_formula_sum              "Mn1 H14 C10 N4 O10"
_cell_length_a       4.77528
_cell_length_b       7.73594
_cell_length_c       10.5116
_cell_angle_alpha    105.326
_cell_angle_beta     99.7915
_cell_angle_gamma    105.503

_space_group_name_H-M_alt    "P 1"
_space_group_IT_number       1

loop_
  _space_group_symop_operation_xyz
  'x, y, z'

loop_
  _atom_site_type_symbol
  _atom_site_label
  _atom_site_symmetry_multiplicity
  _atom_site_fract_x
  _atom_site_fract_y
  _atom_site_fract_z
  _atom_site_occupancy
  Mn  Mn1       1.0  0.50000  0.50000  1.00000  1.0000
  H   H1        1.0  0.76417  0.12184  0.53301  1.0000
  H   H2        1.0  0.23582  0.87816  0.46699  1.0000
  H   H3        1.0  0.32209  0.44871  0.36725  1.0000
  H   H4        1.0  0.67789  0.55129  0.63274  1.0000
  H   H5        1.0  0.74089  0.40164  0.26309  1.0000
  H   H6        1.0  0.25910  0.59835  0.73691  1.0000
  H   H7        1.0  0.44899  0.07801  0.12912  1.0000
  H   H8        1.0  0.55102  0.92199  0.87088  1.0000
  H   H9        1.0  0.75765  0.99520  0.15826  1.0000
  H   H10       1.0  0.24235  0.00480  0.84174  1.0000
  H   H11       1.0  0.00877  0.77451  0.20545  1.0000
  H   H12       1.0  0.99122  0.22549  0.79455  1.0000
  H   H13       1.0  0.75978  0.69914  0.27909  1.0000
  H   H14       1.0  0.24023  0.30086  0.72092  1.0000
  C   C1        1.0  0.86973  0.30442  0.23816  1.0000
  C   C2        1.0  0.13027  0.69559  0.76184  1.0000
  C   C3        1.0  0.65795  0.10214  0.20308  1.0000
  C   C4        1.0  0.34206  0.89786  0.79691  1.0000
  C   C5        1.0  0.58692  0.06293  0.32820  1.0000
  C   C6        1.0  0.41308  0.93708  0.67180  1.0000
  C   C7        1.0  0.08722  0.28673  0.46161  1.0000
  C   C8        1.0  0.91277  0.71327  0.53840  1.0000
  C   C9        1.0  0.98017  0.33494  0.11448  1.0000
  C   C10       1.0  0.01987  0.66507  0.88553  1.0000
  N   N1        1.0  0.80698  0.15659  0.44766  1.0000
  N   N2        1.0  0.19302  0.84341  0.55234  1.0000
  N   N3        1.0  0.12010  0.34861  0.35595  1.0000
  N   N4        1.0  0.87990  0.65139  0.64404  1.0000
  O   O1        1.0  0.26187  0.37820  0.12684  1.0000
  O   O2        1.0  0.73813  0.62180  0.87316  1.0000
  O   O3        1.0  0.78228  0.31478  0.01009  1.0000
  O   O4        1.0  0.21773  0.68522  0.98990  1.0000
  O   O5        1.0  0.34694  0.94830  0.32737  1.0000
  O   O6        1.0  0.65305  0.05170  0.67263  1.0000
  O   O7        1.0  0.29100  0.33899  0.57020  1.0000
  O   O8        1.0  0.70900  0.66101  0.42981  1.0000
  O   O9        1.0  0.79259  0.70818  0.18991  1.0000
  O   O10       1.0  0.20741  0.29183  0.81010  1.0000
