data_image0
_chemical_formula_structural       Cu2H18C12N6Cl2O12
_chemical_formula_sum              "Cu2 H18 C12 N6 Cl2 O12"
_cell_length_a       7.49452
_cell_length_b       7.47966
_cell_length_c       9.5187
_cell_angle_alpha    85.1279
_cell_angle_beta     88.6862
_cell_angle_gamma    76.7458

_space_group_name_H-M_alt    "P 1"
_space_group_IT_number       1

loop_
  _space_group_symop_operation_xyz
  'x, y, z'

loop_
  _atom_site_type_symbol
  _atom_site_label
  _atom_site_symmetry_multiplicity
  _atom_site_fract_x
  _atom_site_fract_y
  _atom_site_fract_z
  _atom_site_occupancy
  Cu  Cu1       1.0  0.14914  0.23874  0.33650  1.0000
  Cu  Cu2       1.0  0.85087  0.76124  0.66345  1.0000
  H   H1        1.0  0.29745  0.94350  0.47209  1.0000
  H   H2        1.0  0.70252  0.05667  0.52793  1.0000
  H   H3        1.0  0.10465  0.92177  0.40327  1.0000
  H   H4        1.0  0.89529  0.07831  0.59673  1.0000
  H   H5        1.0  0.25953  0.39612  0.82421  1.0000
  H   H6        1.0  0.74046  0.60392  0.17579  1.0000
  H   H7        1.0  0.35130  0.70766  0.30968  1.0000
  H   H8        1.0  0.64871  0.29234  0.69041  1.0000
  H   H9        1.0  0.46186  0.88990  0.26192  1.0000
  H   H10       1.0  0.53814  0.11012  0.73810  1.0000
  H   H11       1.0  0.29531  0.78760  0.06067  1.0000
  H   H12       1.0  0.70470  0.21240  0.93938  1.0000
  H   H13       1.0  0.08675  0.87091  0.14921  1.0000
  H   H14       1.0  0.91330  0.12905  0.85080  1.0000
  H   H15       1.0  0.27362  0.05073  0.83100  1.0000
  H   H16       1.0  0.72638  0.94926  0.16902  1.0000
  H   H17       1.0  0.19492  0.51637  0.06907  1.0000
  H   H18       1.0  0.80507  0.48363  0.93099  1.0000
  C   C1        1.0  0.32786  0.85452  0.27273  1.0000
  C   C2        1.0  0.67214  0.14548  0.72722  1.0000
  C   C3        1.0  0.22732  0.89027  0.13203  1.0000
  C   C4        1.0  0.77267  0.10972  0.86795  1.0000
  C   C5        1.0  0.22427  0.07711  0.06208  1.0000
  C   C6        1.0  0.77573  0.92287  0.93794  1.0000
  C   C7        1.0  0.25242  0.12936  0.92270  1.0000
  C   C8        1.0  0.74757  0.87059  0.07734  1.0000
  C   C9        1.0  0.20645  0.37603  0.04377  1.0000
  C   C10       1.0  0.79354  0.62393  0.95627  1.0000
  C   C11       1.0  0.00594  0.57239  0.43964  1.0000
  C   C12       1.0  0.99411  0.42753  0.56025  1.0000
  N   N1        1.0  0.22290  0.96654  0.38056  1.0000
  N   N2        1.0  0.77705  0.03361  0.61943  1.0000
  N   N3        1.0  0.24047  0.31666  0.91407  1.0000
  N   N4        1.0  0.75952  0.68332  0.08595  1.0000
  N   N5        1.0  0.19454  0.23387  0.13557  1.0000
  N   N6        1.0  0.80546  0.76608  0.86445  1.0000
  Cl  Cl1       1.0  0.64726  0.30229  0.29435  1.0000
  Cl  Cl2       1.0  0.35274  0.69772  0.70566  1.0000
  O   O1        1.0  0.08037  0.51700  0.32600  1.0000
  O   O2        1.0  0.91966  0.48293  0.67389  1.0000
  O   O3        1.0  0.94004  0.73952  0.46253  1.0000
  O   O4        1.0  0.06004  0.26040  0.53738  1.0000
  O   O5        1.0  0.51329  0.23091  0.38386  1.0000
  O   O6        1.0  0.48671  0.76910  0.61615  1.0000
  O   O7        1.0  0.82133  0.16360  0.30048  1.0000
  O   O8        1.0  0.17866  0.83640  0.69951  1.0000
  O   O9        1.0  0.67531  0.47279  0.34730  1.0000
  O   O10       1.0  0.32470  0.52721  0.65271  1.0000
  O   O11       1.0  0.58336  0.34106  0.14956  1.0000
  O   O12       1.0  0.41661  0.65896  0.85045  1.0000
