data_image0
_chemical_formula_structural       Zn2H24C36S4N4O8
_chemical_formula_sum              "Zn2 H24 C36 S4 N4 O8"
_cell_length_a       9.63351
_cell_length_b       11.4647
_cell_length_c       11.5226
_cell_angle_alpha    67.7794
_cell_angle_beta     82.3065
_cell_angle_gamma    69.4956

_space_group_name_H-M_alt    "P 1"
_space_group_IT_number       1

loop_
  _space_group_symop_operation_xyz
  'x, y, z'

loop_
  _atom_site_type_symbol
  _atom_site_label
  _atom_site_symmetry_multiplicity
  _atom_site_fract_x
  _atom_site_fract_y
  _atom_site_fract_z
  _atom_site_occupancy
  Zn  Zn1       1.0  0.44769  0.20227  0.27796  1.0000
  Zn  Zn2       1.0  0.55230  0.79772  0.72204  1.0000
  H   H1        1.0  0.56195  0.91284  0.40297  1.0000
  H   H2        1.0  0.43805  0.08716  0.59703  1.0000
  H   H3        1.0  0.49130  0.71267  0.44121  1.0000
  H   H4        1.0  0.50870  0.28733  0.55880  1.0000
  H   H5        1.0  0.10053  0.97396  0.21520  1.0000
  H   H6        1.0  0.89947  0.02603  0.78480  1.0000
  H   H7        1.0  0.18488  0.16580  0.19144  1.0000
  H   H8        1.0  0.81512  0.83419  0.80855  1.0000
  H   H9        1.0  0.29995  0.83272  0.88124  1.0000
  H   H10       1.0  0.70005  0.16728  0.11877  1.0000
  H   H11       1.0  0.23397  0.75531  0.10880  1.0000
  H   H12       1.0  0.76603  0.24469  0.89120  1.0000
  H   H13       1.0  0.68046  0.47671  0.17968  1.0000
  H   H14       1.0  0.31955  0.52329  0.82032  1.0000
  H   H15       1.0  0.72888  0.57032  0.94778  1.0000
  H   H16       1.0  0.27112  0.42968  0.05222  1.0000
  H   H17       1.0  0.83571  0.88834  0.46921  1.0000
  H   H18       1.0  0.16428  0.11168  0.53079  1.0000
  H   H19       1.0  0.93024  0.24715  0.40452  1.0000
  H   H20       1.0  0.06976  0.75286  0.59547  1.0000
  H   H21       1.0  0.24333  0.33438  0.58696  1.0000
  H   H22       1.0  0.75667  0.66562  0.41304  1.0000
  H   H23       1.0  0.92958  0.53858  0.28518  1.0000
  H   H24       1.0  0.07042  0.46142  0.71482  1.0000
  C   C1        1.0  0.46184  0.92161  0.36158  1.0000
  C   C2        1.0  0.53816  0.07839  0.63841  1.0000
  C   C3        1.0  0.42253  0.81024  0.38161  1.0000
  C   C4        1.0  0.57747  0.18976  0.61840  1.0000
  C   C5        1.0  0.29188  0.82725  0.32765  1.0000
  C   C6        1.0  0.70812  0.17274  0.67235  1.0000
  C   C7        1.0  0.20429  0.95629  0.25705  1.0000
  C   C8        1.0  0.79571  0.04370  0.74295  1.0000
  C   C9        1.0  0.25068  0.06301  0.24292  1.0000
  C   C10       1.0  0.74932  0.93699  0.75707  1.0000
  C   C11       1.0  0.38102  0.75501  0.95110  1.0000
  C   C12       1.0  0.61897  0.24499  0.04890  1.0000
  C   C13       1.0  0.34501  0.71174  0.07710  1.0000
  C   C14       1.0  0.65499  0.28826  0.92291  1.0000
  C   C15       1.0  0.45361  0.61194  0.16285  1.0000
  C   C16       1.0  0.54640  0.38805  0.83715  1.0000
  C   C17       1.0  0.59440  0.55751  0.11669  1.0000
  C   C18       1.0  0.40560  0.44249  0.88331  1.0000
  C   C19       1.0  0.62121  0.60727  0.98880  1.0000
  C   C20       1.0  0.37880  0.39273  0.01120  1.0000
  C   C21       1.0  0.90902  0.93610  0.48256  1.0000
  C   C22       1.0  0.09097  0.06392  0.51743  1.0000
  C   C23       1.0  0.87006  0.07543  0.42931  1.0000
  C   C24       1.0  0.12994  0.92458  0.57068  1.0000
  C   C25       1.0  0.96203  0.13889  0.44680  1.0000
  C   C26       1.0  0.03797  0.86112  0.55319  1.0000
  C   C27       1.0  0.72701  0.15798  0.35932  1.0000
  C   C28       1.0  0.27298  0.84203  0.64068  1.0000
  C   C29       1.0  0.13636  0.40702  0.54981  1.0000
  C   C30       1.0  0.86364  0.59298  0.45018  1.0000
  C   C31       1.0  0.09622  0.42938  0.42855  1.0000
  C   C32       1.0  0.90378  0.57062  0.57145  1.0000
  C   C33       1.0  0.95897  0.52277  0.37937  1.0000
  C   C34       1.0  0.04103  0.47722  0.62063  1.0000
  C   C35       1.0  0.19979  0.35741  0.34971  1.0000
  C   C36       1.0  0.80021  0.64259  0.65029  1.0000
  S   S1        1.0  0.23077  0.69078  0.35098  1.0000
  S   S2        1.0  0.76924  0.30921  0.64903  1.0000
  S   S3        1.0  0.42405  0.55207  0.32645  1.0000
  S   S4        1.0  0.57596  0.44792  0.67355  1.0000
  N   N1        1.0  0.37814  0.04602  0.29268  1.0000
  N   N2        1.0  0.62186  0.95397  0.70732  1.0000
  N   N3        1.0  0.51713  0.70558  0.90680  1.0000
  N   N4        1.0  0.48287  0.29442  0.09321  1.0000
  O   O1        1.0  0.64934  0.09060  0.34675  1.0000
  O   O2        1.0  0.35066  0.90940  0.65324  1.0000
  O   O3        1.0  0.68792  0.28255  0.31912  1.0000
  O   O4        1.0  0.31207  0.71746  0.68088  1.0000
  O   O5        1.0  0.32772  0.27784  0.40006  1.0000
  O   O6        1.0  0.67228  0.72215  0.59995  1.0000
  O   O7        1.0  0.16294  0.37586  0.24217  1.0000
  O   O8        1.0  0.83706  0.62414  0.75783  1.0000
