data_image0
_chemical_formula_structural       Hg2H24C28Br4N4O8
_chemical_formula_sum              "Hg2 H24 C28 Br4 N4 O8"
_cell_length_a       4.91344
_cell_length_b       11.6623
_cell_length_c       15.3241
_cell_angle_alpha    103.859
_cell_angle_beta     90.0027
_cell_angle_gamma    102.16

_space_group_name_H-M_alt    "P 1"
_space_group_IT_number       1

loop_
  _space_group_symop_operation_xyz
  'x, y, z'

loop_
  _atom_site_type_symbol
  _atom_site_label
  _atom_site_symmetry_multiplicity
  _atom_site_fract_x
  _atom_site_fract_y
  _atom_site_fract_z
  _atom_site_occupancy
  Hg  Hg1       1.0  0.47391  0.00006  0.25004  1.0000
  Hg  Hg2       1.0  0.52609  0.99994  0.74996  1.0000
  H   H1        1.0  0.25684  0.56608  0.51486  1.0000
  H   H2        1.0  0.69070  0.43396  0.98514  1.0000
  H   H3        1.0  0.74316  0.43392  0.48514  1.0000
  H   H4        1.0  0.30930  0.56604  0.01486  1.0000
  H   H5        1.0  0.55316  0.60132  0.44940  1.0000
  H   H6        1.0  0.95181  0.39866  0.05057  1.0000
  H   H7        1.0  0.44684  0.39868  0.55060  1.0000
  H   H8        1.0  0.04819  0.60134  0.94943  1.0000
  H   H9        1.0  0.92185  0.24864  0.33717  1.0000
  H   H10       1.0  0.67327  0.75133  0.16278  1.0000
  H   H11       1.0  0.07815  0.75136  0.66283  1.0000
  H   H12       1.0  0.32673  0.24867  0.83722  1.0000
  H   H13       1.0  0.82496  0.04497  0.07332  1.0000
  H   H14       1.0  0.77980  0.95496  0.42663  1.0000
  H   H15       1.0  0.17505  0.95502  0.92668  1.0000
  H   H16       1.0  0.22020  0.04504  0.57337  1.0000
  H   H17       1.0  0.25368  0.17494  0.02962  1.0000
  H   H18       1.0  0.07859  0.82503  0.47037  1.0000
  H   H19       1.0  0.74632  0.82506  0.97038  1.0000
  H   H20       1.0  0.92141  0.17497  0.52963  1.0000
  H   H21       1.0  0.52727  0.34953  0.15040  1.0000
  H   H22       1.0  0.17777  0.65048  0.34960  1.0000
  H   H23       1.0  0.47273  0.65047  0.84960  1.0000
  H   H24       1.0  0.82223  0.34952  0.65040  1.0000
  C   C1        1.0  0.40936  0.41171  0.32341  1.0000
  C   C2        1.0  0.99782  0.58830  0.17659  1.0000
  C   C3        1.0  0.59063  0.58829  0.67659  1.0000
  C   C4        1.0  0.00218  0.41170  0.82341  1.0000
  C   C5        1.0  0.41565  0.52954  0.47362  1.0000
  C   C6        1.0  0.88605  0.47046  0.02638  1.0000
  C   C7        1.0  0.58435  0.47046  0.52638  1.0000
  C   C8        1.0  0.11394  0.52954  0.97362  1.0000
  C   C9        1.0  0.24397  0.31229  0.25200  1.0000
  C   C10       1.0  0.93187  0.68775  0.24797  1.0000
  C   C11       1.0  0.75603  0.68771  0.74800  1.0000
  C   C12       1.0  0.06813  0.31225  0.75203  1.0000
  C   C13       1.0  0.00257  0.23598  0.27008  1.0000
  C   C14       1.0  0.76671  0.76403  0.22987  1.0000
  C   C15       1.0  0.99742  0.76402  0.72992  1.0000
  C   C16       1.0  0.23329  0.23597  0.77013  1.0000
  C   C17       1.0  0.95012  0.12187  0.12226  1.0000
  C   C18       1.0  0.82818  0.87810  0.37770  1.0000
  C   C19       1.0  0.04988  0.87813  0.87774  1.0000
  C   C20       1.0  0.17182  0.12190  0.62230  1.0000
  C   C21       1.0  0.18772  0.19458  0.09853  1.0000
  C   C22       1.0  0.99306  0.80541  0.40146  1.0000
  C   C23       1.0  0.81229  0.80542  0.90147  1.0000
  C   C24       1.0  0.00695  0.19459  0.59854  1.0000
  C   C25       1.0  0.33847  0.29043  0.16465  1.0000
  C   C26       1.0  0.04818  0.70961  0.33532  1.0000
  C   C27       1.0  0.66153  0.70957  0.83535  1.0000
  C   C28       1.0  0.95182  0.29039  0.66468  1.0000
  Br  Br1       1.0  0.29594  0.87117  0.09402  1.0000
  Br  Br2       1.0  0.42689  0.12911  0.40621  1.0000
  Br  Br3       1.0  0.70406  0.12883  0.90598  1.0000
  Br  Br4       1.0  0.57311  0.87089  0.59379  1.0000
  N   N1        1.0  0.86151  0.14233  0.20643  1.0000
  N   N2        1.0  0.71924  0.85766  0.29352  1.0000
  N   N3        1.0  0.13849  0.85767  0.79357  1.0000
  N   N4        1.0  0.28076  0.14234  0.70648  1.0000
  O   O1        1.0  0.64978  0.46266  0.31632  1.0000
  O   O2        1.0  0.18706  0.53723  0.18371  1.0000
  O   O3        1.0  0.35022  0.53734  0.68368  1.0000
  O   O4        1.0  0.81294  0.46277  0.81629  1.0000
  O   O5        1.0  0.26363  0.43856  0.39840  1.0000
  O   O6        1.0  0.82515  0.56145  0.10161  1.0000
  O   O7        1.0  0.73637  0.56144  0.60160  1.0000
  O   O8        1.0  0.17485  0.43855  0.89839  1.0000
