data_image0
_chemical_formula_structural       Cu2H36C40N8O8F8
_chemical_formula_sum              "Cu2 H36 C40 N8 O8 F8"
_cell_length_a       9.36271
_cell_length_b       9.63675
_cell_length_c       11.9079
_cell_angle_alpha    90
_cell_angle_beta     95.9477
_cell_angle_gamma    90

_space_group_name_H-M_alt    "P 1"
_space_group_IT_number       1

loop_
  _space_group_symop_operation_xyz
  'x, y, z'

loop_
  _atom_site_type_symbol
  _atom_site_label
  _atom_site_symmetry_multiplicity
  _atom_site_fract_x
  _atom_site_fract_y
  _atom_site_fract_z
  _atom_site_occupancy
  Cu  Cu1       1.0  0.75000  0.60401  0.25000  1.0000
  Cu  Cu2       1.0  0.25000  0.39599  0.75000  1.0000
  H   H1        1.0  0.96023  0.30993  0.22981  1.0000
  H   H2        1.0  0.53978  0.30994  0.27019  1.0000
  H   H3        1.0  0.03978  0.69006  0.77019  1.0000
  H   H4        1.0  0.46022  0.69007  0.72981  1.0000
  H   H5        1.0  0.09494  0.30256  0.34616  1.0000
  H   H6        1.0  0.40506  0.30256  0.15384  1.0000
  H   H7        1.0  0.90506  0.69744  0.65384  1.0000
  H   H8        1.0  0.59494  0.69745  0.84616  1.0000
  H   H9        1.0  0.04186  0.46519  0.28368  1.0000
  H   H10       1.0  0.45815  0.46520  0.21632  1.0000
  H   H11       1.0  0.95815  0.53480  0.71632  1.0000
  H   H12       1.0  0.54185  0.53481  0.78368  1.0000
  H   H13       1.0  0.60947  0.51629  0.47466  1.0000
  H   H14       1.0  0.89054  0.51629  0.02534  1.0000
  H   H15       1.0  0.39054  0.48371  0.52534  1.0000
  H   H16       1.0  0.10946  0.48371  0.97466  1.0000
  H   H17       1.0  0.73656  0.30914  0.61283  1.0000
  H   H18       1.0  0.76345  0.30913  0.88718  1.0000
  H   H19       1.0  0.26344  0.69086  0.38717  1.0000
  H   H20       1.0  0.23656  0.69086  0.11283  1.0000
  H   H21       1.0  0.97901  0.19633  0.61978  1.0000
  H   H22       1.0  0.52100  0.19634  0.88022  1.0000
  H   H23       1.0  0.02099  0.80366  0.38022  1.0000
  H   H24       1.0  0.47901  0.80367  0.11978  1.0000
  H   H25       1.0  0.09110  0.22700  0.51290  1.0000
  H   H26       1.0  0.40890  0.22701  0.98709  1.0000
  H   H27       1.0  0.90890  0.77300  0.48710  1.0000
  H   H28       1.0  0.59110  0.77300  0.01290  1.0000
  H   H29       1.0  0.83688  0.02318  0.49749  1.0000
  H   H30       1.0  0.66312  0.02318  0.00252  1.0000
  H   H31       1.0  0.16312  0.97682  0.50252  1.0000
  H   H32       1.0  0.33688  0.97682  0.99749  1.0000
  H   H33       1.0  0.93978  0.05924  0.38480  1.0000
  H   H34       1.0  0.56022  0.05925  0.11520  1.0000
  H   H35       1.0  0.06022  0.94076  0.61520  1.0000
  H   H36       1.0  0.43977  0.94076  0.88480  1.0000
  C   C1        1.0  0.00348  0.36278  0.30780  1.0000
  C   C2        1.0  0.49653  0.36279  0.19220  1.0000
  C   C3        1.0  0.99652  0.63721  0.69220  1.0000
  C   C4        1.0  0.50347  0.63722  0.80780  1.0000
  C   C5        1.0  0.89129  0.37896  0.38620  1.0000
  C   C6        1.0  0.60871  0.37896  0.11380  1.0000
  C   C7        1.0  0.10871  0.62104  0.61380  1.0000
  C   C8        1.0  0.39129  0.62105  0.88620  1.0000
  C   C9        1.0  0.70249  0.45265  0.46462  1.0000
  C   C10       1.0  0.79751  0.45265  0.03538  1.0000
  C   C11       1.0  0.29751  0.54735  0.53538  1.0000
  C   C12       1.0  0.20249  0.54735  0.96462  1.0000
  C   C13       1.0  0.76484  0.35079  0.53346  1.0000
  C   C14       1.0  0.73517  0.35080  0.96654  1.0000
  C   C15       1.0  0.23517  0.64921  0.46654  1.0000
  C   C16       1.0  0.26483  0.64921  0.03346  1.0000
  C   C17       1.0  0.98193  0.19682  0.52799  1.0000
  C   C18       1.0  0.51807  0.19683  0.97201  1.0000
  C   C19       1.0  0.01807  0.80317  0.47201  1.0000
  C   C20       1.0  0.48193  0.80318  0.02799  1.0000
  C   C21       1.0  0.94457  0.05421  0.47746  1.0000
  C   C22       1.0  0.55543  0.05422  0.02254  1.0000
  C   C23       1.0  0.05543  0.94579  0.52254  1.0000
  C   C24       1.0  0.44456  0.94579  0.97746  1.0000
  C   C25       1.0  0.92627  0.77010  0.14492  1.0000
  C   C26       1.0  0.57373  0.77010  0.35508  1.0000
  C   C27       1.0  0.07373  0.22990  0.85508  1.0000
  C   C28       1.0  0.42627  0.22990  0.64492  1.0000
  C   C29       1.0  0.96640  0.88745  0.06991  1.0000
  C   C30       1.0  0.53360  0.88745  0.43009  1.0000
  C   C31       1.0  0.03360  0.11255  0.93009  1.0000
  C   C32       1.0  0.46640  0.11255  0.56991  1.0000
  C   C33       1.0  0.92223  0.88849  0.95435  1.0000
  C   C34       1.0  0.57777  0.88849  0.54565  1.0000
  C   C35       1.0  0.07777  0.11151  0.04565  1.0000
  C   C36       1.0  0.42223  0.11151  0.45435  1.0000
  C   C37       1.0  0.95494  0.99857  0.88585  1.0000
  C   C38       1.0  0.54506  0.99858  0.61415  1.0000
  C   C39       1.0  0.04506  0.00142  0.11414  1.0000
  C   C40       1.0  0.45494  0.00142  0.38585  1.0000
  N   N1        1.0  0.78149  0.46912  0.37379  1.0000
  N   N2        1.0  0.71852  0.46913  0.12621  1.0000
  N   N3        1.0  0.21851  0.53088  0.62621  1.0000
  N   N4        1.0  0.28148  0.53088  0.87379  1.0000
  N   N5        1.0  0.88343  0.30577  0.48330  1.0000
  N   N6        1.0  0.61658  0.30577  0.01670  1.0000
  N   N7        1.0  0.11658  0.69423  0.51670  1.0000
  N   N8        1.0  0.38342  0.69423  0.98330  1.0000
  O   O1        1.0  0.78976  0.75394  0.14311  1.0000
  O   O2        1.0  0.71023  0.75393  0.35691  1.0000
  O   O3        1.0  0.21023  0.24607  0.85690  1.0000
  O   O4        1.0  0.28976  0.24606  0.64310  1.0000
  O   O5        1.0  0.02183  0.70135  0.20066  1.0000
  O   O6        1.0  0.47817  0.70136  0.29933  1.0000
  O   O7        1.0  0.97817  0.29864  0.79933  1.0000
  O   O8        1.0  0.52183  0.29865  0.70066  1.0000
  F   F1        1.0  0.84659  0.77959  0.90636  1.0000
  F   F2        1.0  0.65341  0.77959  0.59364  1.0000
  F   F3        1.0  0.15342  0.22040  0.09364  1.0000
  F   F4        1.0  0.34658  0.22040  0.40636  1.0000
  F   F5        1.0  0.91166  0.99222  0.77362  1.0000
  F   F6        1.0  0.58834  0.99222  0.72637  1.0000
  F   F7        1.0  0.08835  0.00778  0.22637  1.0000
  F   F8        1.0  0.41166  0.00778  0.27363  1.0000
