data_image0
_chemical_formula_structural       Cd2H48C44N8O10F8
_chemical_formula_sum              "Cd2 H48 C44 N8 O10 F8"
_cell_length_a       8.89893
_cell_length_b       10.9244
_cell_length_c       12.49
_cell_angle_alpha    96.4425
_cell_angle_beta     91.3378
_cell_angle_gamma    97.759

_space_group_name_H-M_alt    "P 1"
_space_group_IT_number       1

loop_
  _space_group_symop_operation_xyz
  'x, y, z'

loop_
  _atom_site_type_symbol
  _atom_site_label
  _atom_site_symmetry_multiplicity
  _atom_site_fract_x
  _atom_site_fract_y
  _atom_site_fract_z
  _atom_site_occupancy
  Cd  Cd1       1.0  0.51752  0.24698  0.21344  1.0000
  Cd  Cd2       1.0  0.48248  0.75302  0.78656  1.0000
  H   H1        1.0  0.40783  0.97762  0.12908  1.0000
  H   H2        1.0  0.59217  0.02238  0.87092  1.0000
  H   H3        1.0  0.38414  0.16911  0.95300  1.0000
  H   H4        1.0  0.61586  0.83089  0.04699  1.0000
  H   H5        1.0  0.22095  0.32095  0.84209  1.0000
  H   H6        1.0  0.77905  0.67905  0.15791  1.0000
  H   H7        1.0  0.28225  0.53684  0.22099  1.0000
  H   H8        1.0  0.71775  0.46316  0.77901  1.0000
  H   H9        1.0  0.40987  0.62937  0.14540  1.0000
  H   H10       1.0  0.59013  0.37063  0.85460  1.0000
  H   H11       1.0  0.47845  0.52178  0.22510  1.0000
  H   H12       1.0  0.52155  0.47822  0.77490  1.0000
  H   H13       1.0  0.19615  0.54502  0.87313  1.0000
  H   H14       1.0  0.80385  0.45498  0.12687  1.0000
  H   H15       1.0  0.28819  0.63727  0.98692  1.0000
  H   H16       1.0  0.71181  0.36273  0.01308  1.0000
  H   H17       1.0  0.07473  0.57845  0.10213  1.0000
  H   H18       1.0  0.92527  0.42155  0.89787  1.0000
  H   H19       1.0  0.01132  0.63939  0.98721  1.0000
  H   H20       1.0  0.98868  0.36061  0.01279  1.0000
  H   H21       1.0  0.15939  0.03528  0.55396  1.0000
  H   H22       1.0  0.84061  0.96472  0.44604  1.0000
  H   H23       1.0  0.98861  0.03963  0.62171  1.0000
  H   H24       1.0  0.01139  0.96037  0.37829  1.0000
  H   H25       1.0  0.91270  0.19589  0.50485  1.0000
  H   H26       1.0  0.08730  0.80411  0.49515  1.0000
  H   H27       1.0  0.08077  0.24958  0.58550  1.0000
  H   H28       1.0  0.91923  0.75042  0.41450  1.0000
  H   H29       1.0  0.15715  0.22922  0.16475  1.0000
  H   H30       1.0  0.84285  0.77078  0.83525  1.0000
  H   H31       1.0  0.92345  0.17590  0.30234  1.0000
  H   H32       1.0  0.07654  0.82411  0.69766  1.0000
  H   H33       1.0  0.48824  0.28094  0.48229  1.0000
  H   H34       1.0  0.51176  0.71906  0.51771  1.0000
  H   H35       1.0  0.35823  0.19314  0.55976  1.0000
  H   H36       1.0  0.64177  0.80685  0.44024  1.0000
  H   H37       1.0  0.35419  0.35505  0.56122  1.0000
  H   H38       1.0  0.64581  0.64495  0.43879  1.0000
  H   H39       1.0  0.56761  0.02378  0.33419  1.0000
  H   H40       1.0  0.43239  0.97622  0.66581  1.0000
  H   H41       1.0  0.53579  0.88324  0.24551  1.0000
  H   H42       1.0  0.46421  0.11676  0.75449  1.0000
  H   H43       1.0  0.28997  0.99652  0.37763  1.0000
  H   H44       1.0  0.71004  0.00348  0.62237  1.0000
  H   H45       1.0  0.38152  0.87123  0.41478  1.0000
  H   H46       1.0  0.61849  0.12877  0.58522  1.0000
  H   H47       1.0  0.26275  0.85069  0.29562  1.0000
  H   H48       1.0  0.73725  0.14931  0.70438  1.0000
  C   C1        1.0  0.35584  0.26127  0.97670  1.0000
  C   C2        1.0  0.64416  0.73873  0.02330  1.0000
  C   C3        1.0  0.27669  0.33507  0.92138  1.0000
  C   C4        1.0  0.72331  0.66493  0.07862  1.0000
  C   C5        1.0  0.36007  0.43814  0.08018  1.0000
  C   C6        1.0  0.63993  0.56186  0.91982  1.0000
  C   C7        1.0  0.38387  0.53711  0.17281  1.0000
  C   C8        1.0  0.61613  0.46289  0.82719  1.0000
  C   C9        1.0  0.20904  0.55258  0.96120  1.0000
  C   C10       1.0  0.79096  0.44742  0.03880  1.0000
  C   C11       1.0  0.05691  0.55877  0.01408  1.0000
  C   C12       1.0  0.94309  0.44123  0.98592  1.0000
  C   C13       1.0  0.03987  0.04936  0.54327  1.0000
  C   C14       1.0  0.96013  0.95064  0.45673  1.0000
  C   C15       1.0  0.03143  0.18200  0.51793  1.0000
  C   C16       1.0  0.96857  0.81800  0.48207  1.0000
  C   C17       1.0  0.16143  0.22777  0.25136  1.0000
  C   C18       1.0  0.83857  0.77223  0.74865  1.0000
  C   C19       1.0  0.04482  0.19968  0.31802  1.0000
  C   C20       1.0  0.95518  0.80032  0.68198  1.0000
  C   C21       1.0  0.26388  0.24520  0.41433  1.0000
  C   C22       1.0  0.73612  0.75480  0.58567  1.0000
  C   C23       1.0  0.37162  0.26997  0.50942  1.0000
  C   C24       1.0  0.62838  0.73003  0.49058  1.0000
  C   C25       1.0  0.73318  0.12517  0.05225  1.0000
  C   C26       1.0  0.26682  0.87483  0.94775  1.0000
  C   C27       1.0  0.87028  0.06031  0.02488  1.0000
  C   C28       1.0  0.12972  0.93970  0.97512  1.0000
  C   C29       1.0  0.92204  0.97932  0.09169  1.0000
  C   C30       1.0  0.07796  0.02068  0.90831  1.0000
  C   C31       1.0  0.04845  0.92066  0.06745  1.0000
  C   C32       1.0  0.95155  0.07935  0.93255  1.0000
  C   C33       1.0  0.73646  0.37600  0.36452  1.0000
  C   C34       1.0  0.26353  0.62401  0.63548  1.0000
  C   C35       1.0  0.87055  0.44275  0.43418  1.0000
  C   C36       1.0  0.12945  0.55725  0.56582  1.0000
  C   C37       1.0  0.00023  0.50037  0.38962  1.0000
  C   C38       1.0  0.99977  0.49964  0.61038  1.0000
  C   C39       1.0  0.87348  0.44448  0.54613  1.0000
  C   C40       1.0  0.12652  0.55552  0.45387  1.0000
  C   C41       1.0  0.48123  0.96195  0.28184  1.0000
  C   C42       1.0  0.51877  0.03805  0.71816  1.0000
  C   C43       1.0  0.34597  0.91701  0.34628  1.0000
  C   C44       1.0  0.65403  0.08299  0.65372  1.0000
  N   N1        1.0  0.40764  0.32631  0.07497  1.0000
  N   N2        1.0  0.59237  0.67369  0.92503  1.0000
  N   N3        1.0  0.28090  0.44626  0.98710  1.0000
  N   N4        1.0  0.71910  0.55374  0.01290  1.0000
  N   N5        1.0  0.29689  0.25588  0.31144  1.0000
  N   N6        1.0  0.70311  0.74412  0.68857  1.0000
  N   N7        1.0  0.11086  0.21098  0.42076  1.0000
  N   N8        1.0  0.88914  0.78902  0.57924  1.0000
  O   O1        1.0  0.62574  0.11357  0.98282  1.0000
  O   O2        1.0  0.37426  0.88643  0.01718  1.0000
  O   O3        1.0  0.74076  0.18714  0.14494  1.0000
  O   O4        1.0  0.25924  0.81286  0.85506  1.0000
  O   O5        1.0  0.69206  0.26383  0.37809  1.0000
  O   O6        1.0  0.30794  0.73617  0.62191  1.0000
  O   O7        1.0  0.67928  0.43628  0.29653  1.0000
  O   O8        1.0  0.32072  0.56372  0.70347  1.0000
  O   O9        1.0  0.43821  0.03269  0.19855  1.0000
  O   O10       1.0  0.56179  0.96731  0.80145  1.0000
  F   F1        1.0  0.84667  0.95360  0.18165  1.0000
  F   F2        1.0  0.15333  0.04640  0.81835  1.0000
  F   F3        1.0  0.08980  0.84092  0.13510  1.0000
  F   F4        1.0  0.91020  0.15909  0.86490  1.0000
  F   F5        1.0  0.00643  0.50300  0.28144  1.0000
  F   F6        1.0  0.99358  0.49699  0.71856  1.0000
  F   F7        1.0  0.75118  0.39031  0.59468  1.0000
  F   F8        1.0  0.24882  0.60969  0.40532  1.0000
