data_image0
_chemical_formula_structural       CdH18C20N12O2
_chemical_formula_sum              "Cd1 H18 C20 N12 O2"
_cell_length_a       7.50284
_cell_length_b       8.22529
_cell_length_c       9.67527
_cell_angle_alpha    67.7485
_cell_angle_beta     78.9618
_cell_angle_gamma    64.2866

_space_group_name_H-M_alt    "P 1"
_space_group_IT_number       1

loop_
  _space_group_symop_operation_xyz
  'x, y, z'

loop_
  _atom_site_type_symbol
  _atom_site_label
  _atom_site_symmetry_multiplicity
  _atom_site_fract_x
  _atom_site_fract_y
  _atom_site_fract_z
  _atom_site_occupancy
  Cd  Cd1       1.0  0.00000  1.00000  1.00000  1.0000
  H   H1        1.0  0.88314  0.38607  0.02828  1.0000
  H   H2        1.0  0.11687  0.61393  0.97172  1.0000
  H   H3        1.0  0.11395  0.30675  0.04038  1.0000
  H   H4        1.0  0.88605  0.69325  0.95962  1.0000
  H   H5        1.0  0.32428  0.00557  0.17065  1.0000
  H   H6        1.0  0.67572  0.99443  0.82934  1.0000
  H   H7        1.0  0.37288  0.99737  0.42020  1.0000
  H   H8        1.0  0.62711  0.00263  0.57980  1.0000
  H   H9        1.0  0.61639  0.70896  0.59033  1.0000
  H   H10       1.0  0.38360  0.29104  0.40967  1.0000
  H   H11       1.0  0.76955  0.43235  0.25789  1.0000
  H   H12       1.0  0.23046  0.56765  0.74211  1.0000
  H   H13       1.0  0.75876  0.44425  0.74196  1.0000
  H   H14       1.0  0.24123  0.55575  0.25804  1.0000
  H   H15       1.0  0.18170  0.94747  0.65694  1.0000
  H   H16       1.0  0.81830  0.05253  0.34305  1.0000
  H   H17       1.0  0.01023  0.21739  0.38802  1.0000
  H   H18       1.0  0.98977  0.78262  0.61198  1.0000
  C   C1        1.0  0.43305  0.87911  0.24446  1.0000
  C   C2        1.0  0.56695  0.12089  0.75554  1.0000
  C   C3        1.0  0.45964  0.87334  0.38489  1.0000
  C   C4        1.0  0.54036  0.12666  0.61511  1.0000
  C   C5        1.0  0.59833  0.71182  0.48031  1.0000
  C   C6        1.0  0.40166  0.28819  0.51969  1.0000
  C   C7        1.0  0.71175  0.55318  0.43410  1.0000
  C   C8        1.0  0.28825  0.44683  0.56590  1.0000
  C   C9        1.0  0.68732  0.55695  0.29339  1.0000
  C   C10       1.0  0.31268  0.44305  0.70661  1.0000
  C   C11       1.0  0.54779  0.72091  0.19792  1.0000
  C   C12       1.0  0.45221  0.27909  0.80208  1.0000
  C   C13       1.0  0.52338  0.72230  0.05131  1.0000
  C   C14       1.0  0.47662  0.27769  0.94869  1.0000
  C   C15       1.0  0.85254  0.34419  0.68397  1.0000
  C   C16       1.0  0.14746  0.65581  0.31603  1.0000
  C   C17       1.0  0.06616  0.09025  0.63302  1.0000
  C   C18       1.0  0.93383  0.90976  0.36697  1.0000
  C   C19       1.0  0.98303  0.22269  0.50055  1.0000
  C   C20       1.0  0.01697  0.77731  0.49945  1.0000
  N   N1        1.0  0.67307  0.62623  0.97267  1.0000
  N   N2        1.0  0.32694  0.37377  0.02733  1.0000
  N   N3        1.0  0.59290  0.66094  0.84537  1.0000
  N   N4        1.0  0.40710  0.33905  0.15463  1.0000
  N   N5        1.0  0.40432  0.77149  0.84663  1.0000
  N   N6        1.0  0.59569  0.22851  0.15337  1.0000
  N   N7        1.0  0.35528  0.81471  0.97423  1.0000
  N   N8        1.0  0.64472  0.18529  0.02577  1.0000
  N   N9        1.0  0.98374  0.16754  0.74623  1.0000
  N   N10       1.0  0.01626  0.83246  0.25377  1.0000
  N   N11       1.0  0.84660  0.38410  0.53383  1.0000
  N   N12       1.0  0.15340  0.61590  0.46617  1.0000
  O   O1        1.0  0.00320  0.26524  0.05894  1.0000
  O   O2        1.0  0.99680  0.73476  0.94106  1.0000
