data_image0
_chemical_formula_structural       Cd2H36C40N24O4
_chemical_formula_sum              "Cd2 H36 C40 N24 O4"
_cell_length_a       7.39596
_cell_length_b       11.7534
_cell_length_c       13.039
_cell_angle_alpha    90
_cell_angle_beta     90
_cell_angle_gamma    92.9529

_space_group_name_H-M_alt    "P 1"
_space_group_IT_number       1

loop_
  _space_group_symop_operation_xyz
  'x, y, z'

loop_
  _atom_site_type_symbol
  _atom_site_label
  _atom_site_symmetry_multiplicity
  _atom_site_fract_x
  _atom_site_fract_y
  _atom_site_fract_z
  _atom_site_occupancy
  Cd  Cd1       1.0  1.00000  0.50000  0.00000  1.0000
  Cd  Cd2       1.0  0.50000  1.00000  0.50000  1.0000
  H   H1        1.0  0.57803  0.73760  0.97643  1.0000
  H   H2        1.0  0.92198  0.76240  0.47643  1.0000
  H   H3        1.0  0.42199  0.26241  0.02357  1.0000
  H   H4        1.0  0.07801  0.23759  0.52357  1.0000
  H   H5        1.0  0.72615  0.76252  0.14686  1.0000
  H   H6        1.0  0.77385  0.73748  0.64686  1.0000
  H   H7        1.0  0.27386  0.23749  0.85314  1.0000
  H   H8        1.0  0.22614  0.26252  0.35314  1.0000
  H   H9        1.0  0.87488  0.94707  0.19669  1.0000
  H   H10       1.0  0.62511  0.55293  0.69669  1.0000
  H   H11       1.0  0.12512  0.05294  0.80331  1.0000
  H   H12       1.0  0.37488  0.44707  0.30332  1.0000
  H   H13       1.0  0.99874  0.10983  0.23283  1.0000
  H   H14       1.0  0.50126  0.39017  0.73283  1.0000
  H   H15       1.0  0.00127  0.89017  0.76717  1.0000
  H   H16       1.0  0.49873  0.60983  0.26717  1.0000
  H   H17       1.0  0.08102  0.34116  0.22066  1.0000
  H   H18       1.0  0.41898  0.15885  0.72066  1.0000
  H   H19       1.0  0.91898  0.65885  0.77934  1.0000
  H   H20       1.0  0.58102  0.84115  0.27934  1.0000
  H   H21       1.0  0.84697  0.23401  0.94099  1.0000
  H   H22       1.0  0.65301  0.26599  0.44098  1.0000
  H   H23       1.0  0.15303  0.76600  0.05902  1.0000
  H   H24       1.0  0.34698  0.73400  0.55902  1.0000
  H   H25       1.0  0.74402  0.08168  0.89845  1.0000
  H   H26       1.0  0.75599  0.41831  0.39846  1.0000
  H   H27       1.0  0.25599  0.91832  0.10154  1.0000
  H   H28       1.0  0.24400  0.58169  0.60154  1.0000
  H   H29       1.0  0.71128  0.40899  0.88265  1.0000
  H   H30       1.0  0.78872  0.09101  0.38265  1.0000
  H   H31       1.0  0.28872  0.59101  0.11735  1.0000
  H   H32       1.0  0.21129  0.90899  0.61735  1.0000
  H   H33       1.0  0.59680  0.51293  0.91707  1.0000
  H   H34       1.0  0.90320  0.98707  0.41707  1.0000
  H   H35       1.0  0.40319  0.48708  0.08292  1.0000
  H   H36       1.0  0.09680  0.01292  0.58293  1.0000
  C   C1        1.0  0.64543  0.81880  0.99755  1.0000
  C   C2        1.0  0.85457  0.68119  0.49755  1.0000
  C   C3        1.0  0.35458  0.18120  0.00246  1.0000
  C   C4        1.0  0.14542  0.31880  0.50245  1.0000
  C   C5        1.0  0.81508  0.02901  0.05250  1.0000
  C   C6        1.0  0.68492  0.47099  0.55250  1.0000
  C   C7        1.0  0.18493  0.97099  0.94750  1.0000
  C   C8        1.0  0.31507  0.52901  0.44750  1.0000
  C   C9        1.0  0.65587  0.90881  0.92677  1.0000
  C   C10       1.0  0.84414  0.59119  0.42677  1.0000
  C   C11       1.0  0.34415  0.09119  0.07323  1.0000
  C   C12       1.0  0.15585  0.40881  0.57323  1.0000
  C   C13       1.0  0.72583  0.83384  0.09352  1.0000
  C   C14       1.0  0.77417  0.66616  0.59352  1.0000
  C   C15       1.0  0.27418  0.16617  0.90648  1.0000
  C   C16       1.0  0.22581  0.33384  0.40648  1.0000
  C   C17       1.0  0.81059  0.93810  0.12182  1.0000
  C   C18       1.0  0.68941  0.56190  0.62182  1.0000
  C   C19       1.0  0.18942  0.06190  0.87818  1.0000
  C   C20       1.0  0.31059  0.43810  0.37818  1.0000
  C   C21       1.0  0.97557  0.16965  0.17192  1.0000
  C   C22       1.0  0.52443  0.33035  0.67192  1.0000
  C   C23       1.0  0.02443  0.83036  0.82808  1.0000
  C   C24       1.0  0.47557  0.66965  0.32808  1.0000
  C   C25       1.0  0.02035  0.28373  0.16408  1.0000
  C   C26       1.0  0.47965  0.21626  0.66408  1.0000
  C   C27       1.0  0.97965  0.71628  0.83592  1.0000
  C   C28       1.0  0.52035  0.78373  0.33592  1.0000
  C   C29       1.0  0.58145  0.89709  0.82314  1.0000
  C   C30       1.0  0.91856  0.60291  0.32314  1.0000
  C   C31       1.0  0.41856  0.10291  0.17686  1.0000
  C   C32       1.0  0.08144  0.39709  0.67686  1.0000
  C   C33       1.0  0.89649  0.23204  0.01909  1.0000
  C   C34       1.0  0.60350  0.26796  0.51908  1.0000
  C   C35       1.0  0.10351  0.76796  0.98091  1.0000
  C   C36       1.0  0.39650  0.73204  0.48092  1.0000
  C   C37       1.0  0.73973  0.01356  0.95496  1.0000
  C   C38       1.0  0.76029  0.48644  0.45495  1.0000
  C   C39       1.0  0.26029  0.98644  0.04504  1.0000
  C   C40       1.0  0.23971  0.51356  0.54504  1.0000
  N   N1        1.0  0.89622  0.13716  0.07934  1.0000
  N   N2        1.0  0.60378  0.36284  0.57933  1.0000
  N   N3        1.0  0.10378  0.86284  0.92067  1.0000
  N   N4        1.0  0.39622  0.63716  0.42067  1.0000
  N   N5        1.0  0.64436  0.95971  0.74226  1.0000
  N   N6        1.0  0.85565  0.54028  0.24226  1.0000
  N   N7        1.0  0.35565  0.04028  0.25774  1.0000
  N   N8        1.0  0.14434  0.45972  0.75774  1.0000
  N   N9        1.0  0.97113  0.32132  0.06815  1.0000
  N   N10       1.0  0.52886  0.17868  0.56815  1.0000
  N   N11       1.0  0.02886  0.67869  0.93185  1.0000
  N   N12       1.0  0.47114  0.82131  0.43185  1.0000
  N   N13       1.0  0.43696  0.82803  0.79720  1.0000
  N   N14       1.0  0.06305  0.67197  0.29720  1.0000
  N   N15       1.0  0.56305  0.17197  0.20280  1.0000
  N   N16       1.0  0.93694  0.32803  0.70280  1.0000
  N   N17       1.0  0.40701  0.85019  0.69856  1.0000
  N   N18       1.0  0.09300  0.64981  0.19856  1.0000
  N   N19       1.0  0.59300  0.14981  0.30144  1.0000
  N   N20       1.0  0.90700  0.35019  0.80144  1.0000
  N   N21       1.0  0.53292  0.92817  0.66606  1.0000
  N   N22       1.0  0.96708  0.57183  0.16606  1.0000
  N   N23       1.0  0.46708  0.07183  0.33394  1.0000
  N   N24       1.0  0.03291  0.42817  0.83394  1.0000
  O   O1        1.0  0.66947  0.45226  0.94280  1.0000
  O   O2        1.0  0.83053  0.04774  0.44280  1.0000
  O   O3        1.0  0.33052  0.54774  0.05719  1.0000
  O   O4        1.0  0.16948  0.95225  0.55720  1.0000
