data_image0
_chemical_formula_structural       Cd4H36C40N24Cl4O4
_chemical_formula_sum              "Cd4 H36 C40 N24 Cl4 O4"
_cell_length_a       6.86693
_cell_length_b       13.1364
_cell_length_c       13.27
_cell_angle_alpha    90
_cell_angle_beta     100.644
_cell_angle_gamma    90

_space_group_name_H-M_alt    "P 1"
_space_group_IT_number       1

loop_
  _space_group_symop_operation_xyz
  'x, y, z'

loop_
  _atom_site_type_symbol
  _atom_site_label
  _atom_site_symmetry_multiplicity
  _atom_site_fract_x
  _atom_site_fract_y
  _atom_site_fract_z
  _atom_site_occupancy
  Cd  Cd1       1.0  0.19415  0.68389  0.22621  1.0000
  Cd  Cd2       1.0  0.30585  0.18389  0.77379  1.0000
  Cd  Cd3       1.0  0.80585  0.31611  0.77379  1.0000
  Cd  Cd4       1.0  0.69415  0.81611  0.22621  1.0000
  H   H1        1.0  0.84193  0.72900  0.06625  1.0000
  H   H2        1.0  0.65807  0.22900  0.93375  1.0000
  H   H3        1.0  0.15807  0.27100  0.93375  1.0000
  H   H4        1.0  0.34193  0.77100  0.06625  1.0000
  H   H5        1.0  0.80100  0.61577  0.10721  1.0000
  H   H6        1.0  0.69900  0.11577  0.89279  1.0000
  H   H7        1.0  0.19900  0.38423  0.89279  1.0000
  H   H8        1.0  0.30100  0.88423  0.10721  1.0000
  H   H9        1.0  0.12655  0.43362  0.17359  1.0000
  H   H10       1.0  0.37344  0.93362  0.82641  1.0000
  H   H11       1.0  0.87344  0.56638  0.82641  1.0000
  H   H12       1.0  0.62655  0.06638  0.17359  1.0000
  H   H13       1.0  0.15101  0.57582  0.45946  1.0000
  H   H14       1.0  0.34899  0.07582  0.54054  1.0000
  H   H15       1.0  0.84900  0.42418  0.54054  1.0000
  H   H16       1.0  0.65101  0.92418  0.45946  1.0000
  H   H17       1.0  0.15678  0.36717  0.49030  1.0000
  H   H18       1.0  0.34323  0.86717  0.50970  1.0000
  H   H19       1.0  0.84323  0.63283  0.50970  1.0000
  H   H20       1.0  0.65678  0.13283  0.49030  1.0000
  H   H21       1.0  0.08219  0.21193  0.45062  1.0000
  H   H22       1.0  0.41781  0.71194  0.54938  1.0000
  H   H23       1.0  0.91781  0.78807  0.54938  1.0000
  H   H24       1.0  0.58219  0.28807  0.45062  1.0000
  H   H25       1.0  0.08150  0.02875  0.40557  1.0000
  H   H26       1.0  0.41850  0.52875  0.59443  1.0000
  H   H27       1.0  0.91850  0.97125  0.59443  1.0000
  H   H28       1.0  0.58150  0.47125  0.40557  1.0000
  H   H29       1.0  0.13093  0.97340  0.23520  1.0000
  H   H30       1.0  0.36907  0.47340  0.76480  1.0000
  H   H31       1.0  0.86907  0.02660  0.76480  1.0000
  H   H32       1.0  0.63093  0.52660  0.23519  1.0000
  H   H33       1.0  0.18853  0.28594  0.14751  1.0000
  H   H34       1.0  0.31147  0.78594  0.85249  1.0000
  H   H35       1.0  0.81146  0.71406  0.85249  1.0000
  H   H36       1.0  0.68853  0.21406  0.14751  1.0000
  C   C1        1.0  0.12912  0.44370  0.25498  1.0000
  C   C2        1.0  0.37088  0.94370  0.74502  1.0000
  C   C3        1.0  0.87088  0.55630  0.74502  1.0000
  C   C4        1.0  0.62911  0.05630  0.25499  1.0000
  C   C5        1.0  0.14417  0.51449  0.40455  1.0000
  C   C6        1.0  0.35583  0.01449  0.59545  1.0000
  C   C7        1.0  0.85584  0.48551  0.59545  1.0000
  C   C8        1.0  0.64417  0.98551  0.40455  1.0000
  C   C9        1.0  0.14364  0.41135  0.42049  1.0000
  C   C10       1.0  0.35635  0.91135  0.57951  1.0000
  C   C11       1.0  0.85635  0.58865  0.57951  1.0000
  C   C12       1.0  0.64364  0.08865  0.42049  1.0000
  C   C13       1.0  0.13398  0.26122  0.30151  1.0000
  C   C14       1.0  0.36602  0.76122  0.69849  1.0000
  C   C15       1.0  0.86602  0.73878  0.69849  1.0000
  C   C16       1.0  0.63398  0.23878  0.30151  1.0000
  C   C17       1.0  0.10707  0.18890  0.37509  1.0000
  C   C18       1.0  0.39293  0.68890  0.62491  1.0000
  C   C19       1.0  0.89293  0.81109  0.62490  1.0000
  C   C20       1.0  0.60707  0.31110  0.37509  1.0000
  C   C21       1.0  0.10692  0.08574  0.34982  1.0000
  C   C22       1.0  0.39308  0.58574  0.65018  1.0000
  C   C23       1.0  0.89307  0.91426  0.65018  1.0000
  C   C24       1.0  0.60692  0.41426  0.34982  1.0000
  C   C25       1.0  0.13343  0.05419  0.25331  1.0000
  C   C26       1.0  0.36657  0.55419  0.74669  1.0000
  C   C27       1.0  0.86657  0.94581  0.74669  1.0000
  C   C28       1.0  0.63343  0.44581  0.25331  1.0000
  C   C29       1.0  0.16188  0.12689  0.17997  1.0000
  C   C30       1.0  0.33812  0.62689  0.82003  1.0000
  C   C31       1.0  0.83812  0.87311  0.82003  1.0000
  C   C32       1.0  0.66188  0.37311  0.17997  1.0000
  C   C33       1.0  0.16164  0.23056  0.20437  1.0000
  C   C34       1.0  0.33836  0.73056  0.79563  1.0000
  C   C35       1.0  0.83836  0.76944  0.79563  1.0000
  C   C36       1.0  0.66165  0.26944  0.20437  1.0000
  C   C37       1.0  0.19742  0.09541  0.07948  1.0000
  C   C38       1.0  0.30258  0.59541  0.92052  1.0000
  C   C39       1.0  0.80258  0.90459  0.92052  1.0000
  C   C40       1.0  0.69742  0.40459  0.07948  1.0000
  N   N1        1.0  0.13514  0.53328  0.30144  1.0000
  N   N2        1.0  0.36486  0.03328  0.69857  1.0000
  N   N3        1.0  0.86486  0.46672  0.69857  1.0000
  N   N4        1.0  0.63514  0.96672  0.30144  1.0000
  N   N5        1.0  0.13345  0.36684  0.32460  1.0000
  N   N6        1.0  0.36655  0.86684  0.67540  1.0000
  N   N7        1.0  0.86655  0.63316  0.67540  1.0000
  N   N8        1.0  0.63345  0.13316  0.32460  1.0000
  N   N9        1.0  0.19749  0.15831  0.99960  1.0000
  N   N10       1.0  0.30251  0.65832  0.00040  1.0000
  N   N11       1.0  0.80251  0.84169  0.00040  1.0000
  N   N12       1.0  0.69749  0.34169  0.99960  1.0000
  N   N13       1.0  0.24004  0.09874  0.92423  1.0000
  N   N14       1.0  0.25997  0.59874  0.07577  1.0000
  N   N15       1.0  0.75997  0.90126  0.07577  1.0000
  N   N16       1.0  0.74003  0.40126  0.92423  1.0000
  N   N17       1.0  0.26585  0.00356  0.95615  1.0000
  N   N18       1.0  0.23415  0.50357  0.04385  1.0000
  N   N19       1.0  0.73415  0.99643  0.04385  1.0000
  N   N20       1.0  0.76585  0.49643  0.95615  1.0000
  N   N21       1.0  0.23990  0.99936  0.05339  1.0000
  N   N22       1.0  0.26010  0.49936  0.94661  1.0000
  N   N23       1.0  0.76010  0.00064  0.94661  1.0000
  N   N24       1.0  0.73990  0.50064  0.05339  1.0000
  Cl  Cl1       1.0  0.05112  0.80615  0.34526  1.0000
  Cl  Cl2       1.0  0.44889  0.30616  0.65474  1.0000
  Cl  Cl3       1.0  0.94889  0.19385  0.65474  1.0000
  Cl  Cl4       1.0  0.55112  0.69385  0.34526  1.0000
  O   O1        1.0  0.85140  0.68666  0.13032  1.0000
  O   O2        1.0  0.64860  0.18666  0.86968  1.0000
  O   O3        1.0  0.14860  0.31334  0.86968  1.0000
  O   O4        1.0  0.35140  0.81334  0.13032  1.0000
