data_image0
_chemical_formula_structural       Cd3H42C60N36
_chemical_formula_sum              "Cd3 H42 C60 N36"
_cell_length_a       11.5831
_cell_length_b       11.6017
_cell_length_c       11.4124
_cell_angle_alpha    98.8414
_cell_angle_beta     98.8557
_cell_angle_gamma    99.0238

_space_group_name_H-M_alt    "P 1"
_space_group_IT_number       1

loop_
  _space_group_symop_operation_xyz
  'x, y, z'

loop_
  _atom_site_type_symbol
  _atom_site_label
  _atom_site_symmetry_multiplicity
  _atom_site_fract_x
  _atom_site_fract_y
  _atom_site_fract_z
  _atom_site_occupancy
  Cd  Cd1       1.0  1.00000  0.00000  1.00000  1.0000
  Cd  Cd2       1.0  0.24753  0.24986  0.24832  1.0000
  Cd  Cd3       1.0  0.75247  0.75014  0.75168  1.0000
  H   H1        1.0  0.34138  0.24314  0.54561  1.0000
  H   H2        1.0  0.54462  0.33944  0.24188  1.0000
  H   H3        1.0  0.24457  0.54559  0.33940  1.0000
  H   H4        1.0  0.65861  0.75686  0.45439  1.0000
  H   H5        1.0  0.45538  0.66056  0.75812  1.0000
  H   H6        1.0  0.75543  0.45441  0.66060  1.0000
  H   H7        1.0  0.51528  0.13448  0.26087  1.0000
  H   H8        1.0  0.26809  0.51849  0.13381  1.0000
  H   H9        1.0  0.13385  0.26834  0.51950  1.0000
  H   H10       1.0  0.48472  0.86552  0.73912  1.0000
  H   H11       1.0  0.73191  0.48152  0.86619  1.0000
  H   H12       1.0  0.86615  0.73166  0.48050  1.0000
  H   H13       1.0  0.63803  0.08995  0.47422  1.0000
  H   H14       1.0  0.47982  0.64016  0.09094  1.0000
  H   H15       1.0  0.08722  0.47883  0.63962  1.0000
  H   H16       1.0  0.36197  0.91005  0.52578  1.0000
  H   H17       1.0  0.52018  0.35984  0.90906  1.0000
  H   H18       1.0  0.91278  0.52117  0.36039  1.0000
  H   H19       1.0  0.71454  0.18849  0.67236  1.0000
  H   H20       1.0  0.67404  0.71389  0.19003  1.0000
  H   H21       1.0  0.18940  0.67197  0.71637  1.0000
  H   H22       1.0  0.28546  0.81151  0.32764  1.0000
  H   H23       1.0  0.32596  0.28611  0.80997  1.0000
  H   H24       1.0  0.81060  0.32802  0.28363  1.0000
  H   H25       1.0  0.76628  0.17014  0.88835  1.0000
  H   H26       1.0  0.88673  0.76584  0.17073  1.0000
  H   H27       1.0  0.17115  0.88411  0.77064  1.0000
  H   H28       1.0  0.23372  0.82986  0.11165  1.0000
  H   H29       1.0  0.11327  0.23416  0.82927  1.0000
  H   H30       1.0  0.82884  0.11589  0.22937  1.0000
  H   H31       1.0  0.60755  0.13079  0.00650  1.0000
  H   H32       1.0  0.00282  0.60770  0.13008  1.0000
  H   H33       1.0  0.13133  0.00147  0.61081  1.0000
  H   H34       1.0  0.39245  0.86921  0.99350  1.0000
  H   H35       1.0  0.99718  0.39230  0.86992  1.0000
  H   H36       1.0  0.86867  0.99853  0.38919  1.0000
  H   H37       1.0  0.34228  0.11194  0.69101  1.0000
  H   H38       1.0  0.69162  0.34223  0.11099  1.0000
  H   H39       1.0  0.11153  0.69240  0.33942  1.0000
  H   H40       1.0  0.65772  0.88805  0.30899  1.0000
  H   H41       1.0  0.30839  0.65777  0.88901  1.0000
  H   H42       1.0  0.88848  0.30761  0.66058  1.0000
  C   C1        1.0  0.40408  0.20796  0.49535  1.0000
  C   C2        1.0  0.49647  0.40332  0.20691  1.0000
  C   C3        1.0  0.20856  0.49707  0.40342  1.0000
  C   C4        1.0  0.59592  0.79203  0.50465  1.0000
  C   C5        1.0  0.50353  0.59668  0.79309  1.0000
  C   C6        1.0  0.79144  0.50293  0.59658  1.0000
  C   C7        1.0  0.49923  0.15294  0.35252  1.0000
  C   C8        1.0  0.35787  0.50111  0.15260  1.0000
  C   C9        1.0  0.15235  0.35801  0.50165  1.0000
  C   C10       1.0  0.50077  0.84706  0.64748  1.0000
  C   C11       1.0  0.64214  0.49889  0.84740  1.0000
  C   C12       1.0  0.84765  0.64200  0.49835  1.0000
  C   C13       1.0  0.55991  0.12937  0.45657  1.0000
  C   C14       1.0  0.46136  0.56142  0.12990  1.0000
  C   C15       1.0  0.12777  0.46080  0.56112  1.0000
  C   C16       1.0  0.44008  0.87063  0.54343  1.0000
  C   C17       1.0  0.53864  0.43858  0.87010  1.0000
  C   C18       1.0  0.87223  0.53920  0.43888  1.0000
  C   C19       1.0  0.52602  0.15318  0.66998  1.0000
  C   C20       1.0  0.67097  0.52553  0.15355  1.0000
  C   C21       1.0  0.15310  0.67037  0.52543  1.0000
  C   C22       1.0  0.47398  0.84682  0.33002  1.0000
  C   C23       1.0  0.32903  0.47447  0.84645  1.0000
  C   C24       1.0  0.84690  0.32963  0.47457  1.0000
  C   C25       1.0  0.64511  0.16813  0.72414  1.0000
  C   C26       1.0  0.72476  0.64454  0.16910  1.0000
  C   C27       1.0  0.16871  0.72330  0.64647  1.0000
  C   C28       1.0  0.35488  0.83187  0.27585  1.0000
  C   C29       1.0  0.27524  0.35546  0.83090  1.0000
  C   C30       1.0  0.83129  0.27670  0.35353  1.0000
  C   C31       1.0  0.67380  0.15814  0.84462  1.0000
  C   C32       1.0  0.84352  0.67342  0.15870  1.0000
  C   C33       1.0  0.15897  0.84173  0.67662  1.0000
  C   C34       1.0  0.32620  0.84186  0.15537  1.0000
  C   C35       1.0  0.15648  0.32658  0.84131  1.0000
  C   C36       1.0  0.84103  0.15827  0.32338  1.0000
  C   C37       1.0  0.58454  0.13686  0.91173  1.0000
  C   C38       1.0  0.90947  0.58447  0.13659  1.0000
  C   C39       1.0  0.13731  0.90831  0.58678  1.0000
  C   C40       1.0  0.41546  0.86314  0.08827  1.0000
  C   C41       1.0  0.09053  0.41553  0.86341  1.0000
  C   C42       1.0  0.86269  0.09169  0.41322  1.0000
  C   C43       1.0  0.46444  0.12200  0.85760  1.0000
  C   C44       1.0  0.85623  0.46438  0.12150  1.0000
  C   C45       1.0  0.12222  0.85587  0.46466  1.0000
  C   C46       1.0  0.53556  0.87800  0.14239  1.0000
  C   C47       1.0  0.14378  0.53562  0.87850  1.0000
  C   C48       1.0  0.87778  0.14413  0.53534  1.0000
  C   C49       1.0  0.43527  0.12791  0.73481  1.0000
  C   C50       1.0  0.73496  0.43512  0.12753  1.0000
  C   C51       1.0  0.12779  0.73493  0.43396  1.0000
  C   C52       1.0  0.56473  0.87209  0.26518  1.0000
  C   C53       1.0  0.26504  0.56488  0.87247  1.0000
  C   C54       1.0  0.87221  0.26507  0.56605  1.0000
  C   C55       1.0  0.37149  0.10689  0.93030  1.0000
  C   C56       1.0  0.92903  0.37246  0.10662  1.0000
  C   C57       1.0  0.10714  0.92949  0.37211  1.0000
  C   C58       1.0  0.62851  0.89311  0.06970  1.0000
  C   C59       1.0  0.07097  0.62755  0.89339  1.0000
  C   C60       1.0  0.89286  0.07051  0.62789  1.0000
  N   N1        1.0  0.40298  0.20256  0.37833  1.0000
  N   N2        1.0  0.38124  0.40334  0.20116  1.0000
  N   N3        1.0  0.20330  0.38215  0.40416  1.0000
  N   N4        1.0  0.59702  0.79744  0.62167  1.0000
  N   N5        1.0  0.61877  0.59666  0.79884  1.0000
  N   N6        1.0  0.79670  0.61785  0.59584  1.0000
  N   N7        1.0  0.49792  0.16373  0.54691  1.0000
  N   N8        1.0  0.54921  0.49780  0.16381  1.0000
  N   N9        1.0  0.16297  0.54886  0.49724  1.0000
  N   N10       1.0  0.50208  0.83627  0.45309  1.0000
  N   N11       1.0  0.45080  0.50220  0.83619  1.0000
  N   N12       1.0  0.83703  0.45114  0.50276  1.0000
  N   N13       1.0  0.25464  0.06432  0.88700  1.0000
  N   N14       1.0  0.88780  0.25561  0.06319  1.0000
  N   N15       1.0  0.06325  0.88928  0.25359  1.0000
  N   N16       1.0  0.74536  0.93568  0.11300  1.0000
  N   N17       1.0  0.11221  0.74439  0.93681  1.0000
  N   N18       1.0  0.93675  0.11072  0.74642  1.0000
  N   N19       1.0  0.20359  0.07342  0.98410  1.0000
  N   N20       1.0  0.98421  0.20591  0.07298  1.0000
  N   N21       1.0  0.07246  0.98637  0.20414  1.0000
  N   N22       1.0  0.79641  0.92658  0.01590  1.0000
  N   N23       1.0  0.01579  0.79410  0.92701  1.0000
  N   N24       1.0  0.92754  0.01363  0.79586  1.0000
  N   N25       1.0  0.28592  0.12039  0.08213  1.0000
  N   N26       1.0  0.08002  0.28914  0.12137  1.0000
  N   N27       1.0  0.12075  0.08156  0.28891  1.0000
  N   N28       1.0  0.71408  0.87961  0.91787  1.0000
  N   N29       1.0  0.91998  0.71086  0.87863  1.0000
  N   N30       1.0  0.87924  0.91844  0.71109  1.0000
  N   N31       1.0  0.39235  0.14222  0.05132  1.0000
  N   N32       1.0  0.04839  0.39469  0.14334  1.0000
  N   N33       1.0  0.14339  0.04874  0.39548  1.0000
  N   N34       1.0  0.60765  0.85778  0.94868  1.0000
  N   N35       1.0  0.95162  0.60531  0.85666  1.0000
  N   N36       1.0  0.85661  0.95126  0.60452  1.0000
