data_image0
_chemical_formula_structural       Cd4H28C40N24Cl4
_chemical_formula_sum              "Cd4 H28 C40 N24 Cl4"
_cell_length_a       7.17045
_cell_length_b       9.77232
_cell_length_c       16.2028
_cell_angle_alpha    104.742
_cell_angle_beta     90.0001
_cell_angle_gamma    89.9999

_space_group_name_H-M_alt    "P 1"
_space_group_IT_number       1

loop_
  _space_group_symop_operation_xyz
  'x, y, z'

loop_
  _atom_site_type_symbol
  _atom_site_label
  _atom_site_symmetry_multiplicity
  _atom_site_fract_x
  _atom_site_fract_y
  _atom_site_fract_z
  _atom_site_occupancy
  Cd  Cd1       1.0  0.84152  0.92643  0.07464  1.0000
  Cd  Cd2       1.0  0.34152  0.07357  0.42536  1.0000
  Cd  Cd3       1.0  0.15848  0.07356  0.92536  1.0000
  Cd  Cd4       1.0  0.65848  0.92644  0.57464  1.0000
  H   H1        1.0  0.96860  0.69840  0.88089  1.0000
  H   H2        1.0  0.46860  0.30160  0.61911  1.0000
  H   H3        1.0  0.03140  0.30160  0.11911  1.0000
  H   H4        1.0  0.53140  0.69841  0.38089  1.0000
  H   H5        1.0  0.66959  0.61289  0.08708  1.0000
  H   H6        1.0  0.16959  0.38710  0.41291  1.0000
  H   H7        1.0  0.33041  0.38710  0.91291  1.0000
  H   H8        1.0  0.83041  0.61290  0.58708  1.0000
  H   H9        1.0  0.70174  0.36282  0.95869  1.0000
  H   H10       1.0  0.20174  0.63718  0.54131  1.0000
  H   H11       1.0  0.29826  0.63718  0.04131  1.0000
  H   H12       1.0  0.79825  0.36282  0.45869  1.0000
  H   H13       1.0  0.91746  0.56431  0.74579  1.0000
  H   H14       1.0  0.41746  0.43569  0.75421  1.0000
  H   H15       1.0  0.08254  0.43569  0.25421  1.0000
  H   H16       1.0  0.58254  0.56431  0.24579  1.0000
  H   H17       1.0  0.99772  0.39014  0.61061  1.0000
  H   H18       1.0  0.49772  0.60986  0.88938  1.0000
  H   H19       1.0  0.00228  0.60986  0.38938  1.0000
  H   H20       1.0  0.50228  0.39014  0.11061  1.0000
  H   H21       1.0  0.02851  0.13452  0.60505  1.0000
  H   H22       1.0  0.52851  0.86548  0.89495  1.0000
  H   H23       1.0  0.97149  0.86548  0.39495  1.0000
  H   H24       1.0  0.47149  0.13452  0.10505  1.0000
  H   H25       1.0  0.87500  0.22429  0.87035  1.0000
  H   H26       1.0  0.37499  0.77571  0.62965  1.0000
  H   H27       1.0  0.12501  0.77571  0.12965  1.0000
  H   H28       1.0  0.62500  0.22430  0.37035  1.0000
  C   C1        1.0  0.89211  0.64290  0.92044  1.0000
  C   C2        1.0  0.39211  0.35710  0.57956  1.0000
  C   C3        1.0  0.10789  0.35710  0.07956  1.0000
  C   C4        1.0  0.60788  0.64290  0.42044  1.0000
  C   C5        1.0  0.73669  0.59186  0.02509  1.0000
  C   C6        1.0  0.23669  0.40814  0.47491  1.0000
  C   C7        1.0  0.26331  0.40814  0.97491  1.0000
  C   C8        1.0  0.76331  0.59186  0.52509  1.0000
  C   C9        1.0  0.75219  0.46864  0.96235  1.0000
  C   C10       1.0  0.25219  0.53135  0.53764  1.0000
  C   C11       1.0  0.24782  0.53136  0.03764  1.0000
  C   C12       1.0  0.74781  0.46865  0.46236  1.0000
  C   C13       1.0  0.89874  0.40513  0.81749  1.0000
  C   C14       1.0  0.39873  0.59487  0.68251  1.0000
  C   C15       1.0  0.10127  0.59487  0.18251  1.0000
  C   C16       1.0  0.60127  0.40513  0.31749  1.0000
  C   C17       1.0  0.93001  0.45259  0.74415  1.0000
  C   C18       1.0  0.43000  0.54741  0.75585  1.0000
  C   C19       1.0  0.07000  0.54741  0.25585  1.0000
  C   C20       1.0  0.57000  0.45259  0.24415  1.0000
  C   C21       1.0  0.97503  0.35400  0.66814  1.0000
  C   C22       1.0  0.47503  0.64600  0.83186  1.0000
  C   C23       1.0  0.02497  0.64600  0.33186  1.0000
  C   C24       1.0  0.52497  0.35400  0.16814  1.0000
  C   C25       1.0  0.98939  0.21023  0.66424  1.0000
  C   C26       1.0  0.48938  0.78977  0.83576  1.0000
  C   C27       1.0  0.01061  0.78977  0.33576  1.0000
  C   C28       1.0  0.51061  0.21023  0.16424  1.0000
  C   C29       1.0  0.95408  0.16346  0.73757  1.0000
  C   C30       1.0  0.45408  0.83654  0.76242  1.0000
  C   C31       1.0  0.04592  0.83654  0.26242  1.0000
  C   C32       1.0  0.54592  0.16346  0.23758  1.0000
  C   C33       1.0  0.90883  0.26151  0.81425  1.0000
  C   C34       1.0  0.40883  0.73849  0.68575  1.0000
  C   C35       1.0  0.09117  0.73849  0.18575  1.0000
  C   C36       1.0  0.59117  0.26152  0.31426  1.0000
  C   C37       1.0  0.95908  0.01323  0.73571  1.0000
  C   C38       1.0  0.45907  0.98677  0.76429  1.0000
  C   C39       1.0  0.04092  0.98677  0.26429  1.0000
  C   C40       1.0  0.54093  0.01323  0.23571  1.0000
  N   N1        1.0  0.82457  0.69931  0.99828  1.0000
  N   N2        1.0  0.32457  0.30069  0.50172  1.0000
  N   N3        1.0  0.17543  0.30068  0.00172  1.0000
  N   N4        1.0  0.67543  0.69932  0.49828  1.0000
  N   N5        1.0  0.85065  0.50204  0.89617  1.0000
  N   N6        1.0  0.35064  0.49797  0.60383  1.0000
  N   N7        1.0  0.14935  0.49797  0.10383  1.0000
  N   N8        1.0  0.64935  0.50204  0.39617  1.0000
  N   N9        1.0  0.01587  0.96081  0.80073  1.0000
  N   N10       1.0  0.51587  0.03919  0.69927  1.0000
  N   N11       1.0  0.98413  0.03919  0.19927  1.0000
  N   N12       1.0  0.48413  0.96081  0.30073  1.0000
  N   N13       1.0  0.99270  0.81939  0.77530  1.0000
  N   N14       1.0  0.49270  0.18061  0.72470  1.0000
  N   N15       1.0  0.00730  0.18061  0.22470  1.0000
  N   N16       1.0  0.50730  0.81939  0.27530  1.0000
  N   N17       1.0  0.92382  0.78649  0.69790  1.0000
  N   N18       1.0  0.42382  0.21351  0.80210  1.0000
  N   N19       1.0  0.07618  0.21351  0.30210  1.0000
  N   N20       1.0  0.57618  0.78649  0.19790  1.0000
  N   N21       1.0  0.90133  0.90587  0.67092  1.0000
  N   N22       1.0  0.40133  0.09413  0.82908  1.0000
  N   N23       1.0  0.09867  0.09413  0.32908  1.0000
  N   N24       1.0  0.59867  0.90587  0.17092  1.0000
  Cl  Cl1       1.0  0.77568  0.08976  0.98373  1.0000
  Cl  Cl2       1.0  0.27568  0.91024  0.51627  1.0000
  Cl  Cl3       1.0  0.22432  0.91024  0.01627  1.0000
  Cl  Cl4       1.0  0.72432  0.08976  0.48373  1.0000
