data_image0
_chemical_formula_structural       Cd4H28C40I4N24
_chemical_formula_sum              "Cd4 H28 C40 I4 N24"
_cell_length_a       7.46882
_cell_length_b       9.87003
_cell_length_c       17.0587
_cell_angle_alpha    106.598
_cell_angle_beta     90.0002
_cell_angle_gamma    89.9997

_space_group_name_H-M_alt    "P 1"
_space_group_IT_number       1

loop_
  _space_group_symop_operation_xyz
  'x, y, z'

loop_
  _atom_site_type_symbol
  _atom_site_label
  _atom_site_symmetry_multiplicity
  _atom_site_fract_x
  _atom_site_fract_y
  _atom_site_fract_z
  _atom_site_occupancy
  Cd  Cd1       1.0  0.18693  0.15221  0.08424  1.0000
  Cd  Cd2       1.0  0.68693  0.34778  0.41576  1.0000
  Cd  Cd3       1.0  0.81307  0.84779  0.91576  1.0000
  Cd  Cd4       1.0  0.31307  0.65221  0.58424  1.0000
  H   H1        1.0  0.95490  0.47612  0.62221  1.0000
  H   H2        1.0  0.45490  0.02388  0.87779  1.0000
  H   H3        1.0  0.04510  0.52386  0.37778  1.0000
  H   H4        1.0  0.54510  0.97613  0.12221  1.0000
  H   H5        1.0  0.98331  0.23199  0.63386  1.0000
  H   H6        1.0  0.48331  0.26801  0.86614  1.0000
  H   H7        1.0  0.01670  0.76800  0.36614  1.0000
  H   H8        1.0  0.51669  0.73200  0.13386  1.0000
  H   H9        1.0  0.07300  0.19000  0.76510  1.0000
  H   H10       1.0  0.57300  0.30999  0.73490  1.0000
  H   H11       1.0  0.92701  0.80999  0.23489  1.0000
  H   H12       1.0  0.42701  0.69001  0.26510  1.0000
  H   H13       1.0  0.11460  0.64118  0.87421  1.0000
  H   H14       1.0  0.61459  0.85882  0.62579  1.0000
  H   H15       1.0  0.88541  0.35882  0.12578  1.0000
  H   H16       1.0  0.38540  0.14118  0.37422  1.0000
  H   H17       1.0  0.02835  0.19451  0.90098  1.0000
  H   H18       1.0  0.52834  0.30550  0.59902  1.0000
  H   H19       1.0  0.97166  0.80548  0.09902  1.0000
  H   H20       1.0  0.47166  0.69451  0.40098  1.0000
  H   H21       1.0  0.31134  0.58350  0.95245  1.0000
  H   H22       1.0  0.81133  0.91650  0.54755  1.0000
  H   H23       1.0  0.68866  0.41650  0.04755  1.0000
  H   H24       1.0  0.18866  0.08350  0.45245  1.0000
  H   H25       1.0  0.34959  0.46808  0.08259  1.0000
  H   H26       1.0  0.84957  0.03192  0.41741  1.0000
  H   H27       1.0  0.65041  0.53192  0.91741  1.0000
  H   H28       1.0  0.15042  0.96808  0.58259  1.0000
  C   C1        1.0  0.02990  0.71969  0.74134  1.0000
  C   C2        1.0  0.52990  0.78031  0.75866  1.0000
  C   C3        1.0  0.97009  0.28030  0.25866  1.0000
  C   C4        1.0  0.47009  0.21970  0.24134  1.0000
  C   C5        1.0  0.03468  0.57458  0.74736  1.0000
  C   C6        1.0  0.53468  0.92542  0.75264  1.0000
  C   C7        1.0  0.96533  0.42541  0.25263  1.0000
  C   C8        1.0  0.46532  0.07459  0.24736  1.0000
  C   C9        1.0  0.99651  0.45864  0.67977  1.0000
  C   C10       1.0  0.49652  0.04136  0.82023  1.0000
  C   C11       1.0  0.00350  0.54135  0.32022  1.0000
  C   C12       1.0  0.50349  0.95865  0.17977  1.0000
  C   C13       1.0  0.00997  0.32182  0.68705  1.0000
  C   C14       1.0  0.50997  0.17818  0.81296  1.0000
  C   C15       1.0  0.99004  0.67816  0.31295  1.0000
  C   C16       1.0  0.49003  0.82183  0.18705  1.0000
  C   C17       1.0  0.06037  0.29762  0.76065  1.0000
  C   C18       1.0  0.56037  0.20238  0.73935  1.0000
  C   C19       1.0  0.93963  0.70237  0.23934  1.0000
  C   C20       1.0  0.43963  0.79763  0.26065  1.0000
  C   C21       1.0  0.09611  0.41399  0.82802  1.0000
  C   C22       1.0  0.59612  0.08601  0.67199  1.0000
  C   C23       1.0  0.90389  0.58600  0.17199  1.0000
  C   C24       1.0  0.40389  0.91399  0.32801  1.0000
  C   C25       1.0  0.08297  0.55145  0.82181  1.0000
  C   C26       1.0  0.58296  0.94855  0.67819  1.0000
  C   C27       1.0  0.91704  0.44854  0.17818  1.0000
  C   C28       1.0  0.41704  0.05146  0.32182  1.0000
  C   C29       1.0  0.11171  0.28298  0.93312  1.0000
  C   C30       1.0  0.61170  0.21702  0.56688  1.0000
  C   C31       1.0  0.88830  0.71701  0.06687  1.0000
  C   C32       1.0  0.38830  0.78299  0.43312  1.0000
  C   C33       1.0  0.25833  0.48731  0.96181  1.0000
  C   C34       1.0  0.75830  0.01269  0.53819  1.0000
  C   C35       1.0  0.74168  0.51269  0.03819  1.0000
  C   C36       1.0  0.24167  0.98731  0.46181  1.0000
  C   C37       1.0  0.27793  0.42922  0.02518  1.0000
  C   C38       1.0  0.77791  0.07078  0.47482  1.0000
  C   C39       1.0  0.72208  0.57077  0.97481  1.0000
  C   C40       1.0  0.22208  0.92923  0.52518  1.0000
  I   I1        1.0  0.25464  0.88709  0.98367  1.0000
  I   I2        1.0  0.75464  0.61290  0.51633  1.0000
  I   I3        1.0  0.74535  0.11290  0.01633  1.0000
  I   I4        1.0  0.24535  0.38709  0.48367  1.0000
  N   N1        1.0  0.97124  0.83341  0.80014  1.0000
  N   N2        1.0  0.47124  0.66659  0.69987  1.0000
  N   N3        1.0  0.02876  0.16658  0.19986  1.0000
  N   N4        1.0  0.52876  0.33342  0.30014  1.0000
  N   N5        1.0  0.99600  0.94713  0.77224  1.0000
  N   N6        1.0  0.49600  0.55287  0.72777  1.0000
  N   N7        1.0  0.00400  0.05286  0.22776  1.0000
  N   N8        1.0  0.50400  0.44714  0.27224  1.0000
  N   N9        1.0  0.06783  0.90488  0.69927  1.0000
  N   N10       1.0  0.56783  0.59512  0.80074  1.0000
  N   N11       1.0  0.93216  0.09511  0.30073  1.0000
  N   N12       1.0  0.43216  0.40489  0.19927  1.0000
  N   N13       1.0  0.09047  0.76269  0.67800  1.0000
  N   N14       1.0  0.59047  0.73731  0.82200  1.0000
  N   N15       1.0  0.90952  0.23730  0.32200  1.0000
  N   N16       1.0  0.40952  0.26270  0.17800  1.0000
  N   N17       1.0  0.15207  0.39426  0.90388  1.0000
  N   N18       1.0  0.65206  0.10575  0.59613  1.0000
  N   N19       1.0  0.84794  0.60574  0.09612  1.0000
  N   N20       1.0  0.34793  0.89426  0.40388  1.0000
  N   N21       1.0  0.18576  0.30224  0.00655  1.0000
  N   N22       1.0  0.68575  0.19776  0.49345  1.0000
  N   N23       1.0  0.81424  0.69776  0.99344  1.0000
  N   N24       1.0  0.31424  0.80224  0.50655  1.0000
