data_image0
_chemical_formula_structural       Mn2H56C56S4N12O4
_chemical_formula_sum              "Mn2 H56 C56 S4 N12 O4"
_cell_length_a       7.16002
_cell_length_b       12.0655
_cell_length_c       17.0994
_cell_angle_alpha    89.999
_cell_angle_beta     90.0004
_cell_angle_gamma    92.5295

_space_group_name_H-M_alt    "P 1"
_space_group_IT_number       1

loop_
  _space_group_symop_operation_xyz
  'x, y, z'

loop_
  _atom_site_type_symbol
  _atom_site_label
  _atom_site_symmetry_multiplicity
  _atom_site_fract_x
  _atom_site_fract_y
  _atom_site_fract_z
  _atom_site_occupancy
  Mn  Mn1       1.0  0.00002  1.00000  1.00000  1.0000
  Mn  Mn2       1.0  0.99999  0.50001  0.50000  1.0000
  H   H1        1.0  0.13526  0.91182  0.14483  1.0000
  H   H2        1.0  0.13524  0.41182  0.35518  1.0000
  H   H3        1.0  0.86476  0.08819  0.85517  1.0000
  H   H4        1.0  0.86475  0.58818  0.64483  1.0000
  H   H5        1.0  0.45599  0.29732  0.13630  1.0000
  H   H6        1.0  0.45600  0.79731  0.36371  1.0000
  H   H7        1.0  0.54401  0.70268  0.86370  1.0000
  H   H8        1.0  0.54399  0.20269  0.63629  1.0000
  H   H9        1.0  0.28232  0.11560  0.11939  1.0000
  H   H10       1.0  0.28230  0.61560  0.38061  1.0000
  H   H11       1.0  0.71771  0.88440  0.88060  1.0000
  H   H12       1.0  0.71768  0.38440  0.61939  1.0000
  H   H13       1.0  0.31895  0.36872  0.89455  1.0000
  H   H14       1.0  0.31892  0.86873  0.60545  1.0000
  H   H15       1.0  0.68107  0.63128  0.10545  1.0000
  H   H16       1.0  0.68106  0.13128  0.39455  1.0000
  H   H17       1.0  0.15967  0.18352  0.88845  1.0000
  H   H18       1.0  0.15962  0.68354  0.61155  1.0000
  H   H19       1.0  0.84037  0.81647  0.11154  1.0000
  H   H20       1.0  0.84035  0.31647  0.38845  1.0000
  H   H21       1.0  0.56027  0.47347  0.08451  1.0000
  H   H22       1.0  0.56028  0.97347  0.41549  1.0000
  H   H23       1.0  0.43973  0.52652  0.91549  1.0000
  H   H24       1.0  0.43971  0.02653  0.58451  1.0000
  H   H25       1.0  0.39665  0.82982  0.12644  1.0000
  H   H26       1.0  0.39662  0.32983  0.37356  1.0000
  H   H27       1.0  0.60336  0.17016  0.87356  1.0000
  H   H28       1.0  0.60336  0.67017  0.62645  1.0000
  H   H29       1.0  0.35075  0.81797  0.02350  1.0000
  H   H30       1.0  0.35071  0.31796  0.47651  1.0000
  H   H31       1.0  0.64927  0.18202  0.97651  1.0000
  H   H32       1.0  0.64927  0.68204  0.52350  1.0000
  H   H33       1.0  0.44781  0.94467  0.06295  1.0000
  H   H34       1.0  0.44779  0.44467  0.43706  1.0000
  H   H35       1.0  0.55222  0.05531  0.93706  1.0000
  H   H36       1.0  0.55219  0.55533  0.56294  1.0000
  H   H37       1.0  0.93900  0.76651  0.24270  1.0000
  H   H38       1.0  0.93898  0.26649  0.25731  1.0000
  H   H39       1.0  0.06100  0.23351  0.75731  1.0000
  H   H40       1.0  0.06101  0.73350  0.74269  1.0000
  H   H41       1.0  0.17806  0.10216  0.37949  1.0000
  H   H42       1.0  0.17803  0.60214  0.12050  1.0000
  H   H43       1.0  0.82195  0.89786  0.62050  1.0000
  H   H44       1.0  0.82195  0.39784  0.87950  1.0000
  H   H45       1.0  0.24699  0.06635  0.24026  1.0000
  H   H46       1.0  0.24693  0.56635  0.25975  1.0000
  H   H47       1.0  0.75304  0.93365  0.75974  1.0000
  H   H48       1.0  0.75304  0.43364  0.74025  1.0000
  H   H49       1.0  0.86189  0.78714  0.38296  1.0000
  H   H50       1.0  0.86189  0.28711  0.11704  1.0000
  H   H51       1.0  0.13810  0.21288  0.61704  1.0000
  H   H52       1.0  0.13811  0.71286  0.88296  1.0000
  H   H53       1.0  0.88706  0.88807  0.50184  1.0000
  H   H54       1.0  0.88705  0.38805  0.99816  1.0000
  H   H55       1.0  0.11293  0.11196  0.49816  1.0000
  H   H56       1.0  0.11294  0.61193  0.00184  1.0000
  C   C1        1.0  0.49513  0.45929  0.02735  1.0000
  C   C2        1.0  0.49513  0.95929  0.47265  1.0000
  C   C3        1.0  0.50487  0.54071  0.97265  1.0000
  C   C4        1.0  0.50487  0.04071  0.52735  1.0000
  C   C5        1.0  0.29342  0.17494  0.07137  1.0000
  C   C6        1.0  0.29341  0.67495  0.42863  1.0000
  C   C7        1.0  0.70660  0.82505  0.92862  1.0000
  C   C8        1.0  0.70658  0.32506  0.57137  1.0000
  C   C9        1.0  0.31493  0.31673  0.94671  1.0000
  C   C10       1.0  0.31490  0.81674  0.55329  1.0000
  C   C11       1.0  0.68510  0.68326  0.05328  1.0000
  C   C12       1.0  0.68509  0.18327  0.44671  1.0000
  C   C13       1.0  0.40002  0.35168  0.01742  1.0000
  C   C14       1.0  0.40002  0.85168  0.48258  1.0000
  C   C15       1.0  0.59999  0.64832  0.98258  1.0000
  C   C16       1.0  0.59997  0.14832  0.51742  1.0000
  C   C17       1.0  0.38965  0.27657  0.08042  1.0000
  C   C18       1.0  0.38964  0.77657  0.41958  1.0000
  C   C19       1.0  0.61036  0.72343  0.91958  1.0000
  C   C20       1.0  0.61035  0.22343  0.58042  1.0000
  C   C21       1.0  0.23683  0.92374  0.84634  1.0000
  C   C22       1.0  0.23684  0.42374  0.65366  1.0000
  C   C23       1.0  0.76319  0.07625  0.15365  1.0000
  C   C24       1.0  0.76313  0.57626  0.34634  1.0000
  C   C25       1.0  0.22448  0.21319  0.94263  1.0000
  C   C26       1.0  0.22443  0.71320  0.55737  1.0000
  C   C27       1.0  0.77555  0.78681  0.05737  1.0000
  C   C28       1.0  0.77554  0.28681  0.44263  1.0000
  C   C29       1.0  0.34927  0.87376  0.07416  1.0000
  C   C30       1.0  0.34924  0.37376  0.42584  1.0000
  C   C31       1.0  0.65075  0.12623  0.92584  1.0000
  C   C32       1.0  0.65075  0.62624  0.57416  1.0000
  C   C33       1.0  0.97101  0.95715  0.47694  1.0000
  C   C34       1.0  0.97100  0.45713  0.02306  1.0000
  C   C35       1.0  0.02899  0.04287  0.52305  1.0000
  C   C36       1.0  0.02899  0.54284  0.97695  1.0000
  C   C37       1.0  0.99013  0.84002  0.27489  1.0000
  C   C38       1.0  0.99011  0.34001  0.22512  1.0000
  C   C39       1.0  0.00987  0.15999  0.72511  1.0000
  C   C40       1.0  0.00988  0.65998  0.77488  1.0000
  C   C41       1.0  0.01250  0.94694  0.39427  1.0000
  C   C42       1.0  0.01249  0.44692  0.10572  1.0000
  C   C43       1.0  0.98750  0.05308  0.60572  1.0000
  C   C44       1.0  0.98750  0.55305  0.89428  1.0000
  C   C45       1.0  0.12140  0.02644  0.35202  1.0000
  C   C46       1.0  0.12138  0.52642  0.14798  1.0000
  C   C47       1.0  0.87860  0.97358  0.64798  1.0000
  C   C48       1.0  0.87861  0.47356  0.85202  1.0000
  C   C49       1.0  0.15956  0.00725  0.27387  1.0000
  C   C50       1.0  0.15953  0.50725  0.22613  1.0000
  C   C51       1.0  0.84046  0.99275  0.72613  1.0000
  C   C52       1.0  0.84046  0.49274  0.77386  1.0000
  C   C53       1.0  0.94528  0.85227  0.35338  1.0000
  C   C54       1.0  0.94527  0.35226  0.14662  1.0000
  C   C55       1.0  0.05472  0.14775  0.64662  1.0000
  C   C56       1.0  0.05472  0.64773  0.85338  1.0000
  S   S1        1.0  0.35928  0.90691  0.76796  1.0000
  S   S2        1.0  0.35932  0.40692  0.73203  1.0000
  S   S3        1.0  0.64075  0.09309  0.23202  1.0000
  S   S4        1.0  0.64067  0.59309  0.26797  1.0000
  N   N1        1.0  0.14634  0.93400  0.90410  1.0000
  N   N2        1.0  0.14634  0.43400  0.59590  1.0000
  N   N3        1.0  0.85370  0.06599  0.09589  1.0000
  N   N4        1.0  0.85364  0.56600  0.40410  1.0000
  N   N5        1.0  0.21053  0.14296  0.00399  1.0000
  N   N6        1.0  0.21049  0.64297  0.49601  1.0000
  N   N7        1.0  0.78951  0.85703  0.99600  1.0000
  N   N8        1.0  0.78948  0.35704  0.50399  1.0000
  N   N9        1.0  0.09676  0.91558  0.23556  1.0000
  N   N10       1.0  0.09673  0.41557  0.26445  1.0000
  N   N11       1.0  0.90325  0.08443  0.76444  1.0000
  N   N12       1.0  0.90326  0.58442  0.73556  1.0000
  O   O1        1.0  0.16340  0.90902  0.08550  1.0000
  O   O2        1.0  0.16338  0.40903  0.41450  1.0000
  O   O3        1.0  0.83662  0.09098  0.91450  1.0000
  O   O4        1.0  0.83661  0.59097  0.58550  1.0000
