data_image0
_chemical_formula_structural       Cu6H42C52N16Cl2O16
_chemical_formula_sum              "Cu6 H42 C52 N16 Cl2 O16"
_cell_length_a       10.0702
_cell_length_b       12.0761
_cell_length_c       14.39
_cell_angle_alpha    94.4616
_cell_angle_beta     101.942
_cell_angle_gamma    112.402

_space_group_name_H-M_alt    "P 1"
_space_group_IT_number       1

loop_
  _space_group_symop_operation_xyz
  'x, y, z'

loop_
  _atom_site_type_symbol
  _atom_site_label
  _atom_site_symmetry_multiplicity
  _atom_site_fract_x
  _atom_site_fract_y
  _atom_site_fract_z
  _atom_site_occupancy
  Cu  Cu1       1.0  0.42867  0.54969  0.44643  1.0000
  Cu  Cu2       1.0  0.57134  0.45031  0.55359  1.0000
  Cu  Cu3       1.0  0.04568  0.82323  0.13987  1.0000
  Cu  Cu4       1.0  0.95441  0.17666  0.86020  1.0000
  Cu  Cu5       1.0  0.83540  0.98130  0.22958  1.0000
  Cu  Cu6       1.0  0.16426  0.01870  0.77025  1.0000
  H   H1        1.0  0.94274  0.60662  0.27373  1.0000
  H   H2        1.0  0.05735  0.39358  0.72632  1.0000
  H   H3        1.0  0.09037  0.51620  0.38266  1.0000
  H   H4        1.0  0.90962  0.48391  0.61737  1.0000
  H   H5        1.0  0.47496  0.73965  0.31256  1.0000
  H   H6        1.0  0.52504  0.26031  0.68737  1.0000
  H   H7        1.0  0.50817  0.07658  0.17052  1.0000
  H   H8        1.0  0.49176  0.92340  0.82947  1.0000
  H   H9        1.0  0.58271  0.23500  0.06664  1.0000
  H   H10       1.0  0.41729  0.76491  0.93335  1.0000
  H   H11       1.0  0.79141  0.65146  0.00283  1.0000
  H   H12       1.0  0.20839  0.34871  0.99716  1.0000
  H   H13       1.0  0.71081  0.55457  0.82773  1.0000
  H   H14       1.0  0.28911  0.44539  0.17234  1.0000
  H   H15       1.0  0.67330  0.52043  0.19042  1.0000
  H   H16       1.0  0.32668  0.47960  0.80961  1.0000
  H   H17       1.0  0.53807  0.57481  0.13998  1.0000
  H   H18       1.0  0.46192  0.42529  0.86012  1.0000
  H   H19       1.0  0.59976  0.59402  0.26723  1.0000
  H   H20       1.0  0.40037  0.40611  0.73287  1.0000
  H   H21       1.0  0.41065  0.20436  0.90479  1.0000
  H   H22       1.0  0.58935  0.79565  0.09523  1.0000
  H   H23       1.0  0.87294  0.64910  0.72028  1.0000
  H   H24       1.0  0.12676  0.35100  0.27968  1.0000
  H   H25       1.0  0.27552  0.73133  0.56176  1.0000
  H   H26       1.0  0.72434  0.26847  0.43832  1.0000
  H   H27       1.0  0.36564  0.05986  0.46159  1.0000
  H   H28       1.0  0.63442  0.93986  0.53831  1.0000
  H   H29       1.0  0.28909  0.13974  0.59934  1.0000
  H   H30       1.0  0.71113  0.86018  0.40055  1.0000
  H   H31       1.0  0.88440  0.78605  0.40705  1.0000
  H   H32       1.0  0.11568  0.21386  0.59296  1.0000
  H   H33       1.0  0.98001  0.72139  0.49120  1.0000
  H   H34       1.0  0.02004  0.27854  0.50884  1.0000
  H   H35       1.0  0.92628  0.83644  0.53323  1.0000
  H   H36       1.0  0.07386  0.16353  0.46677  1.0000
  H   H37       1.0  0.43630  0.30691  0.19754  1.0000
  H   H38       1.0  0.56368  0.69315  0.80242  1.0000
  H   H39       1.0  0.40372  0.18703  0.26598  1.0000
  H   H40       1.0  0.59600  0.81302  0.73397  1.0000
  H   H41       1.0  0.59046  0.28287  0.26731  1.0000
  H   H42       1.0  0.40937  0.71700  0.73265  1.0000
  C   C1        1.0  0.06221  0.63734  0.28374  1.0000
  C   C2        1.0  0.93786  0.36280  0.71629  1.0000
  C   C3        1.0  0.14393  0.58790  0.34419  1.0000
  C   C4        1.0  0.85609  0.41221  0.65584  1.0000
  C   C5        1.0  0.35615  0.70984  0.30552  1.0000
  C   C6        1.0  0.64387  0.29015  0.69447  1.0000
  C   C7        1.0  0.27462  0.75914  0.24507  1.0000
  C   C8        1.0  0.72549  0.24089  0.75490  1.0000
  C   C9        1.0  0.34801  0.85273  0.18899  1.0000
  C   C10       1.0  0.65211  0.14724  0.81095  1.0000
  C   C11       1.0  0.29773  0.96846  0.06962  1.0000
  C   C12       1.0  0.70225  0.03144  0.93030  1.0000
  C   C13       1.0  0.43563  0.06939  0.10108  1.0000
  C   C14       1.0  0.56434  0.93055  0.89889  1.0000
  C   C15       1.0  0.47675  0.15603  0.04320  1.0000
  C   C16       1.0  0.52326  0.84389  0.95677  1.0000
  C   C17       1.0  0.07023  0.84494  0.93313  1.0000
  C   C18       1.0  0.92969  0.15508  0.06683  1.0000
  C   C19       1.0  0.85717  0.68866  0.95265  1.0000
  C   C20       1.0  0.14276  0.31145  0.04738  1.0000
  C   C21       1.0  0.81454  0.63450  0.85631  1.0000
  C   C22       1.0  0.18537  0.36551  0.14373  1.0000
  C   C23       1.0  0.75372  0.71566  0.19797  1.0000
  C   C24       1.0  0.24632  0.28442  0.80205  1.0000
  C   C25       1.0  0.63525  0.59331  0.20039  1.0000
  C   C26       1.0  0.36479  0.40676  0.79967  1.0000
  C   C27       1.0  0.38117  0.14004  0.95357  1.0000
  C   C28       1.0  0.61882  0.85989  0.04639  1.0000
  C   C29       1.0  0.20759  0.95587  0.97564  1.0000
  C   C30       1.0  0.79242  0.04407  0.02430  1.0000
  C   C31       1.0  0.90374  0.68641  0.79668  1.0000
  C   C32       1.0  0.09603  0.31363  0.20329  1.0000
  C   C33       1.0  0.03381  0.79257  0.83417  1.0000
  C   C34       1.0  0.96593  0.20748  0.16577  1.0000
  C   C35       1.0  0.15911  0.78547  0.71009  1.0000
  C   C36       1.0  0.84098  0.21461  0.29003  1.0000
  C   C37       1.0  0.22519  0.86319  0.64126  1.0000
  C   C38       1.0  0.77488  0.13678  0.35880  1.0000
  C   C39       1.0  0.27487  0.82173  0.56758  1.0000
  C   C40       1.0  0.72512  0.17813  0.43248  1.0000
  C   C41       1.0  0.32628  0.00253  0.51354  1.0000
  C   C42       1.0  0.67378  0.99725  0.48638  1.0000
  C   C43       1.0  0.28173  0.04712  0.58879  1.0000
  C   C44       1.0  0.71846  0.95279  0.41114  1.0000
  C   C45       1.0  0.74781  0.66185  0.48428  1.0000
  C   C46       1.0  0.25226  0.33815  0.51575  1.0000
  C   C47       1.0  0.89400  0.75672  0.47736  1.0000
  C   C48       1.0  0.10607  0.24324  0.52266  1.0000
  C   C49       1.0  0.48787  0.36256  0.35143  1.0000
  C   C50       1.0  0.51206  0.63747  0.64855  1.0000
  C   C51       1.0  0.47944  0.28036  0.26428  1.0000
  C   C52       1.0  0.52047  0.71968  0.73569  1.0000
  N   N1        1.0  0.29083  0.62405  0.35453  1.0000
  N   N2        1.0  0.70919  0.37598  0.64548  1.0000
  N   N3        1.0  0.12780  0.72228  0.23414  1.0000
  N   N4        1.0  0.87230  0.27782  0.76586  1.0000
  N   N5        1.0  0.25051  0.88202  0.12696  1.0000
  N   N6        1.0  0.74953  0.11786  0.87295  1.0000
  N   N7        1.0  0.98160  0.79001  0.99028  1.0000
  N   N8        1.0  0.01837  0.21005  0.00973  1.0000
  N   N9        1.0  0.25200  0.04244  0.92029  1.0000
  N   N10       1.0  0.74801  0.95754  0.07965  1.0000
  N   N11       1.0  0.12025  0.84785  0.77412  1.0000
  N   N12       1.0  0.87944  0.15221  0.22577  1.0000
  N   N13       1.0  0.22968  0.97632  0.65123  1.0000
  N   N14       1.0  0.77050  0.02368  0.34877  1.0000
  N   N15       1.0  0.32395  0.89047  0.50285  1.0000
  N   N16       1.0  0.67604  0.10929  0.49715  1.0000
  Cl  Cl1       1.0  0.09036  0.99738  0.25215  1.0000
  Cl  Cl2       1.0  0.90993  0.00282  0.74794  1.0000
  O   O1        1.0  0.62904  0.66971  0.43949  1.0000
  O   O2        1.0  0.37101  0.33012  0.56036  1.0000
  O   O3        1.0  0.43009  0.43923  0.33761  1.0000
  O   O4        1.0  0.56949  0.56059  0.66243  1.0000
  O   O5        1.0  0.55211  0.34839  0.43292  1.0000
  O   O6        1.0  0.44820  0.65182  0.56703  1.0000
  O   O7        1.0  0.75450  0.58200  0.53566  1.0000
  O   O8        1.0  0.24552  0.41814  0.46456  1.0000
  O   O9        1.0  0.48527  0.89137  0.20038  1.0000
  O   O10       1.0  0.51486  0.10862  0.79954  1.0000
  O   O11       1.0  0.84316  0.71527  0.14724  1.0000
  O   O12       1.0  0.15695  0.28474  0.85285  1.0000
  O   O13       1.0  0.75074  0.80854  0.24408  1.0000
  O   O14       1.0  0.24916  0.19152  0.75583  1.0000
  O   O15       1.0  0.14599  0.67780  0.70545  1.0000
  O   O16       1.0  0.85440  0.32235  0.29488  1.0000
