data_image0
_chemical_formula_structural       Zn4H12C8S2N16O8
_chemical_formula_sum              "Zn4 H12 C8 S2 N16 O8"
_cell_length_a       7.79908
_cell_length_b       9.64103
_cell_length_c       9.29719
_cell_angle_alpha    94.3634
_cell_angle_beta     110.829
_cell_angle_gamma    113.608

_space_group_name_H-M_alt    "P 1"
_space_group_IT_number       1

loop_
  _space_group_symop_operation_xyz
  'x, y, z'

loop_
  _atom_site_type_symbol
  _atom_site_label
  _atom_site_symmetry_multiplicity
  _atom_site_fract_x
  _atom_site_fract_y
  _atom_site_fract_z
  _atom_site_occupancy
  Zn  Zn1       1.0  0.32058  0.30573  0.99851  1.0000
  Zn  Zn2       1.0  0.67943  0.69427  0.00149  1.0000
  Zn  Zn3       1.0  0.53285  0.19020  0.47524  1.0000
  Zn  Zn4       1.0  0.46715  0.80980  0.52476  1.0000
  H   H1        1.0  0.94032  0.60883  0.75987  1.0000
  H   H2        1.0  0.05968  0.39117  0.24012  1.0000
  H   H3        1.0  0.77029  0.53461  0.56927  1.0000
  H   H4        1.0  0.22970  0.46539  0.43072  1.0000
  H   H5        1.0  0.10696  0.94606  0.88459  1.0000
  H   H6        1.0  0.89304  0.05394  0.11541  1.0000
  H   H7        1.0  0.87210  0.80296  0.75114  1.0000
  H   H8        1.0  0.12789  0.19703  0.24886  1.0000
  H   H9        1.0  0.25873  0.14781  0.66811  1.0000
  H   H10       1.0  0.74127  0.85219  0.33190  1.0000
  H   H11       1.0  0.98928  0.37666  0.75892  1.0000
  H   H12       1.0  0.01074  0.62334  0.24107  1.0000
  C   C1        1.0  0.63853  0.47390  0.71808  1.0000
  C   C2        1.0  0.36147  0.52611  0.28192  1.0000
  C   C3        1.0  0.38094  0.26705  0.70509  1.0000
  C   C4        1.0  0.61906  0.73295  0.29492  1.0000
  C   C5        1.0  0.90599  0.02523  0.77210  1.0000
  C   C6        1.0  0.09401  0.97476  0.22790  1.0000
  C   C7        1.0  0.92686  0.25068  0.74394  1.0000
  C   C8        1.0  0.07316  0.74932  0.25606  1.0000
  S   S1        1.0  0.66181  0.24505  0.21588  1.0000
  S   S2        1.0  0.33819  0.75495  0.78412  1.0000
  N   N1        1.0  0.44021  0.36992  0.83710  1.0000
  N   N2        1.0  0.55980  0.63009  0.16290  1.0000
  N   N3        1.0  0.60457  0.50403  0.84607  1.0000
  N   N4        1.0  0.39543  0.49597  0.15393  1.0000
  N   N5        1.0  0.49915  0.32616  0.62653  1.0000
  N   N6        1.0  0.50085  0.67384  0.37348  1.0000
  N   N7        1.0  0.78928  0.57732  0.68100  1.0000
  N   N8        1.0  0.21071  0.42267  0.31899  1.0000
  N   N9        1.0  0.03176  0.18225  0.83451  1.0000
  N   N10       1.0  0.96825  0.81775  0.16549  1.0000
  N   N11       1.0  0.74560  0.14545  0.63348  1.0000
  N   N12       1.0  0.25441  0.85455  0.36652  1.0000
  N   N13       1.0  0.72932  0.99971  0.65026  1.0000
  N   N14       1.0  0.27068  0.00029  0.34975  1.0000
  N   N15       1.0  0.95315  0.91345  0.82635  1.0000
  N   N16       1.0  0.04684  0.08655  0.17365  1.0000
  O   O1        1.0  0.43931  0.17123  0.09116  1.0000
  O   O2        1.0  0.56067  0.82876  0.90883  1.0000
  O   O3        1.0  0.66547  0.33220  0.36370  1.0000
  O   O4        1.0  0.33453  0.66781  0.63631  1.0000
  O   O5        1.0  0.72011  0.12168  0.25406  1.0000
  O   O6        1.0  0.27988  0.87831  0.74594  1.0000
  O   O7        1.0  0.79728  0.36300  0.16088  1.0000
  O   O8        1.0  0.20273  0.63700  0.83912  1.0000
