data_image0
_chemical_formula_structural       Cd2H18C26N2O8
_chemical_formula_sum              "Cd2 H18 C26 N2 O8"
_cell_length_a       7.91645
_cell_length_b       9.84183
_cell_length_c       9.84186
_cell_angle_alpha    60.2602
_cell_angle_beta     75.4806
_cell_angle_gamma    75.4806

_space_group_name_H-M_alt    "P 1"
_space_group_IT_number       1

loop_
  _space_group_symop_operation_xyz
  'x, y, z'

loop_
  _atom_site_type_symbol
  _atom_site_label
  _atom_site_symmetry_multiplicity
  _atom_site_fract_x
  _atom_site_fract_y
  _atom_site_fract_z
  _atom_site_occupancy
  Cd  Cd1       1.0  0.75000  0.47910  0.52090  1.0000
  Cd  Cd2       1.0  0.25000  0.52090  0.47910  1.0000
  H   H1        1.0  0.21392  0.67708  0.93839  1.0000
  H   H2        1.0  0.28609  0.06161  0.32292  1.0000
  H   H3        1.0  0.78608  0.32292  0.06161  1.0000
  H   H4        1.0  0.71392  0.93838  0.67709  1.0000
  H   H5        1.0  0.89924  0.31880  0.28099  1.0000
  H   H6        1.0  0.60076  0.71901  0.68120  1.0000
  H   H7        1.0  0.10076  0.68120  0.71901  1.0000
  H   H8        1.0  0.39924  0.28099  0.31880  1.0000
  H   H9        1.0  0.11909  0.19109  0.63044  1.0000
  H   H10       1.0  0.38091  0.36956  0.80891  1.0000
  H   H11       1.0  0.88091  0.80891  0.36956  1.0000
  H   H12       1.0  0.61909  0.63044  0.19109  1.0000
  H   H13       1.0  0.11737  0.93276  0.87842  1.0000
  H   H14       1.0  0.38263  0.12158  0.06724  1.0000
  H   H15       1.0  0.88263  0.06724  0.12158  1.0000
  H   H16       1.0  0.61737  0.87842  0.93276  1.0000
  H   H17       1.0  0.25000  0.89632  0.10368  1.0000
  H   H18       1.0  0.75000  0.10368  0.89632  1.0000
  C   C1        1.0  0.12045  0.50293  0.25261  1.0000
  C   C2        1.0  0.37955  0.74739  0.49707  1.0000
  C   C3        1.0  0.87954  0.49707  0.74739  1.0000
  C   C4        1.0  0.62045  0.25261  0.50293  1.0000
  C   C5        1.0  0.06102  0.49928  0.12205  1.0000
  C   C6        1.0  0.43898  0.87795  0.50072  1.0000
  C   C7        1.0  0.93897  0.50072  0.87795  1.0000
  C   C8        1.0  0.56102  0.12205  0.49928  1.0000
  C   C9        1.0  0.11938  0.60092  0.96373  1.0000
  C   C10       1.0  0.38062  0.03627  0.39908  1.0000
  C   C11       1.0  0.88062  0.39908  0.03627  1.0000
  C   C12       1.0  0.61938  0.96373  0.60092  1.0000
  C   C13       1.0  0.05783  0.60234  0.84249  1.0000
  C   C14       1.0  0.44217  0.15751  0.39766  1.0000
  C   C15       1.0  0.94217  0.39766  0.15751  1.0000
  C   C16       1.0  0.55783  0.84249  0.60234  1.0000
  C   C17       1.0  0.17746  0.16916  0.73008  1.0000
  C   C18       1.0  0.32254  0.26992  0.83084  1.0000
  C   C19       1.0  0.82254  0.83084  0.26992  1.0000
  C   C20       1.0  0.67746  0.73008  0.16916  1.0000
  C   C21       1.0  0.17709  0.02617  0.86847  1.0000
  C   C22       1.0  0.32291  0.13153  0.97383  1.0000
  C   C23       1.0  0.82291  0.97384  0.13153  1.0000
  C   C24       1.0  0.67709  0.86847  0.02617  1.0000
  C   C25       1.0  0.25000  0.00667  0.99333  1.0000
  C   C26       1.0  0.75000  0.99333  0.00667  1.0000
  N   N1        1.0  0.25000  0.28855  0.71145  1.0000
  N   N2        1.0  0.75000  0.71145  0.28855  1.0000
  O   O1        1.0  0.23380  0.59134  0.21826  1.0000
  O   O2        1.0  0.26621  0.78174  0.40866  1.0000
  O   O3        1.0  0.76620  0.40866  0.78174  1.0000
  O   O4        1.0  0.73379  0.21826  0.59134  1.0000
  O   O5        1.0  0.94426  0.58321  0.60353  1.0000
  O   O6        1.0  0.55574  0.39647  0.41679  1.0000
  O   O7        1.0  0.05574  0.41679  0.39647  1.0000
  O   O8        1.0  0.44426  0.60353  0.58321  1.0000
