data_image0
_chemical_formula_structural       Cd4H40C40S4N8O20
_chemical_formula_sum              "Cd4 H40 C40 S4 N8 O20"
_cell_length_a       7.04343
_cell_length_b       11.6248
_cell_length_c       14.9717
_cell_angle_alpha    90
_cell_angle_beta     97.3384
_cell_angle_gamma    90

_space_group_name_H-M_alt    "P 1"
_space_group_IT_number       1

loop_
  _space_group_symop_operation_xyz
  'x, y, z'

loop_
  _atom_site_type_symbol
  _atom_site_label
  _atom_site_symmetry_multiplicity
  _atom_site_fract_x
  _atom_site_fract_y
  _atom_site_fract_z
  _atom_site_occupancy
  Cd  Cd1       1.0  0.34638  0.74026  0.63637  1.0000
  Cd  Cd2       1.0  0.15362  0.24025  0.36364  1.0000
  Cd  Cd3       1.0  0.65362  0.25974  0.36364  1.0000
  Cd  Cd4       1.0  0.84638  0.75974  0.63636  1.0000
  H   H1        1.0  0.93980  0.39760  0.52884  1.0000
  H   H2        1.0  0.56020  0.89761  0.47116  1.0000
  H   H3        1.0  0.06020  0.60239  0.47116  1.0000
  H   H4        1.0  0.43980  0.10240  0.52884  1.0000
  H   H5        1.0  0.20142  0.13993  0.77961  1.0000
  H   H6        1.0  0.29858  0.63993  0.22039  1.0000
  H   H7        1.0  0.79858  0.86007  0.22039  1.0000
  H   H8        1.0  0.70142  0.36007  0.77961  1.0000
  H   H9        1.0  0.06724  0.05570  0.63173  1.0000
  H   H10       1.0  0.43275  0.55570  0.36827  1.0000
  H   H11       1.0  0.93276  0.94430  0.36827  1.0000
  H   H12       1.0  0.56724  0.44430  0.63173  1.0000
  H   H13       1.0  0.49333  0.54508  0.78698  1.0000
  H   H14       1.0  0.00667  0.04508  0.21303  1.0000
  H   H15       1.0  0.50667  0.45492  0.21303  1.0000
  H   H16       1.0  0.99334  0.95492  0.78697  1.0000
  H   H17       1.0  0.58996  0.44004  0.90601  1.0000
  H   H18       1.0  0.91004  0.94004  0.09399  1.0000
  H   H19       1.0  0.41004  0.55996  0.09399  1.0000
  H   H20       1.0  0.08996  0.05996  0.90601  1.0000
  H   H21       1.0  0.71776  0.51109  0.00131  1.0000
  H   H22       1.0  0.78225  0.01109  0.99869  1.0000
  H   H23       1.0  0.28225  0.48891  0.99869  1.0000
  H   H24       1.0  0.21775  0.98891  0.00131  1.0000
  H   H25       1.0  0.84593  0.43790  0.92272  1.0000
  H   H26       1.0  0.65408  0.93791  0.07728  1.0000
  H   H27       1.0  0.15407  0.56210  0.07728  1.0000
  H   H28       1.0  0.34592  0.06210  0.92272  1.0000
  H   H29       1.0  0.00838  0.65145  0.88850  1.0000
  H   H30       1.0  0.49163  0.15145  0.11150  1.0000
  H   H31       1.0  0.99162  0.34855  0.11150  1.0000
  H   H32       1.0  0.50838  0.84855  0.88850  1.0000
  H   H33       1.0  0.88110  0.68830  0.98133  1.0000
  H   H34       1.0  0.61890  0.18830  0.01867  1.0000
  H   H35       1.0  0.11890  0.31170  0.01866  1.0000
  H   H36       1.0  0.38110  0.81170  0.98133  1.0000
  H   H37       1.0  0.83153  0.76213  0.87578  1.0000
  H   H38       1.0  0.66848  0.26213  0.12422  1.0000
  H   H39       1.0  0.16847  0.23787  0.12422  1.0000
  H   H40       1.0  0.33153  0.73787  0.87578  1.0000
  C   C1        1.0  0.99516  0.22104  0.57036  1.0000
  C   C2        1.0  0.50484  0.72104  0.42964  1.0000
  C   C3        1.0  0.00484  0.77895  0.42964  1.0000
  C   C4        1.0  0.49515  0.27896  0.57036  1.0000
  C   C5        1.0  0.99614  0.34083  0.58392  1.0000
  C   C6        1.0  0.50386  0.84083  0.41608  1.0000
  C   C7        1.0  0.00386  0.65917  0.41608  1.0000
  C   C8        1.0  0.49614  0.15917  0.58392  1.0000
  C   C9        1.0  0.06908  0.38872  0.66655  1.0000
  C   C10       1.0  0.43092  0.88872  0.33345  1.0000
  C   C11       1.0  0.93092  0.61128  0.33345  1.0000
  C   C12       1.0  0.56908  0.11128  0.66655  1.0000
  C   C13       1.0  0.14148  0.31400  0.73671  1.0000
  C   C14       1.0  0.35852  0.81400  0.26329  1.0000
  C   C15       1.0  0.85852  0.68599  0.26329  1.0000
  C   C16       1.0  0.64148  0.18600  0.73671  1.0000
  C   C17       1.0  0.14125  0.19453  0.72430  1.0000
  C   C18       1.0  0.35875  0.69453  0.27571  1.0000
  C   C19       1.0  0.85875  0.80547  0.27571  1.0000
  C   C20       1.0  0.64125  0.30547  0.72429  1.0000
  C   C21       1.0  0.06722  0.14829  0.64234  1.0000
  C   C22       1.0  0.43278  0.64829  0.35766  1.0000
  C   C23       1.0  0.93278  0.85171  0.35766  1.0000
  C   C24       1.0  0.56721  0.35171  0.64234  1.0000
  C   C25       1.0  0.07881  0.51854  0.67242  1.0000
  C   C26       1.0  0.42119  0.01854  0.32758  1.0000
  C   C27       1.0  0.92119  0.48145  0.32758  1.0000
  C   C28       1.0  0.57882  0.98146  0.67242  1.0000
  C   C29       1.0  0.60204  0.61260  0.80289  1.0000
  C   C30       1.0  0.89796  0.11260  0.19711  1.0000
  C   C31       1.0  0.39796  0.38740  0.19711  1.0000
  C   C32       1.0  0.10204  0.88740  0.80289  1.0000
  C   C33       1.0  0.71847  0.49002  0.92988  1.0000
  C   C34       1.0  0.78153  0.99002  0.07012  1.0000
  C   C35       1.0  0.28153  0.50998  0.07012  1.0000
  C   C36       1.0  0.21847  0.00998  0.92988  1.0000
  C   C37       1.0  0.87048  0.67948  0.90794  1.0000
  C   C38       1.0  0.62952  0.17949  0.09206  1.0000
  C   C39       1.0  0.12952  0.32051  0.09206  1.0000
  C   C40       1.0  0.37048  0.82052  0.90794  1.0000
  S   S1        1.0  0.91806  0.15343  0.46789  1.0000
  S   S2        1.0  0.58194  0.65343  0.53211  1.0000
  S   S3        1.0  0.08194  0.84657  0.53211  1.0000
  S   S4        1.0  0.41806  0.34657  0.46789  1.0000
  N   N1        1.0  0.21712  0.35851  0.82363  1.0000
  N   N2        1.0  0.28288  0.85851  0.17637  1.0000
  N   N3        1.0  0.78288  0.64149  0.17637  1.0000
  N   N4        1.0  0.71712  0.14149  0.82363  1.0000
  N   N5        1.0  0.72199  0.59587  0.87792  1.0000
  N   N6        1.0  0.77802  0.09587  0.12208  1.0000
  N   N7        1.0  0.27801  0.40413  0.12208  1.0000
  N   N8        1.0  0.22199  0.90413  0.87792  1.0000
  O   O1        1.0  0.18188  0.46096  0.84185  1.0000
  O   O2        1.0  0.31811  0.96096  0.15815  1.0000
  O   O3        1.0  0.81811  0.53904  0.15815  1.0000
  O   O4        1.0  0.68189  0.03905  0.84185  1.0000
  O   O5        1.0  0.31586  0.29392  0.87823  1.0000
  O   O6        1.0  0.18415  0.79392  0.12177  1.0000
  O   O7        1.0  0.68414  0.70608  0.12177  1.0000
  O   O8        1.0  0.81586  0.20608  0.87823  1.0000
  O   O9        1.0  0.92222  0.57073  0.67495  1.0000
  O   O10       1.0  0.57778  0.07073  0.32505  1.0000
  O   O11       1.0  0.07778  0.42927  0.32505  1.0000
  O   O12       1.0  0.42222  0.92927  0.67495  1.0000
  O   O13       1.0  0.24316  0.56097  0.66717  1.0000
  O   O14       1.0  0.25684  0.06097  0.33283  1.0000
  O   O15       1.0  0.75683  0.43903  0.33283  1.0000
  O   O16       1.0  0.74317  0.93903  0.66717  1.0000
  O   O17       1.0  0.60424  0.70038  0.75320  1.0000
  O   O18       1.0  0.89576  0.20038  0.24680  1.0000
  O   O19       1.0  0.39576  0.29962  0.24680  1.0000
  O   O20       1.0  0.10424  0.79962  0.75320  1.0000
