data_image0
_chemical_formula_structural       Cu4H52C60N20O4
_chemical_formula_sum              "Cu4 H52 C60 N20 O4"
_cell_length_a       7.86888
_cell_length_b       12.6356
_cell_length_c       14.5426
_cell_angle_alpha    109.201
_cell_angle_beta     105.279
_cell_angle_gamma    90.1492

_space_group_name_H-M_alt    "P 1"
_space_group_IT_number       1

loop_
  _space_group_symop_operation_xyz
  'x, y, z'

loop_
  _atom_site_type_symbol
  _atom_site_label
  _atom_site_symmetry_multiplicity
  _atom_site_fract_x
  _atom_site_fract_y
  _atom_site_fract_z
  _atom_site_occupancy
  Cu  Cu1       1.0  0.55197  0.17047  0.80183  1.0000
  Cu  Cu2       1.0  0.74977  0.32975  0.19747  1.0000
  Cu  Cu3       1.0  0.44804  0.82954  0.19817  1.0000
  Cu  Cu4       1.0  0.25022  0.67025  0.80253  1.0000
  H   H1        1.0  0.27807  0.08766  0.88465  1.0000
  H   H2        1.0  0.39434  0.41195  0.11649  1.0000
  H   H3        1.0  0.72194  0.91234  0.11536  1.0000
  H   H4        1.0  0.60568  0.58806  0.88350  1.0000
  H   H5        1.0  0.37003  0.96720  0.90898  1.0000
  H   H6        1.0  0.46173  0.53275  0.09200  1.0000
  H   H7        1.0  0.63000  0.03279  0.09102  1.0000
  H   H8        1.0  0.53828  0.46726  0.90800  1.0000
  H   H9        1.0  0.42771  0.89784  0.74458  1.0000
  H   H10       1.0  0.68200  0.60224  0.25573  1.0000
  H   H11       1.0  0.57230  0.10217  0.25542  1.0000
  H   H12       1.0  0.31801  0.39777  0.74427  1.0000
  H   H13       1.0  0.20366  0.92682  0.72368  1.0000
  H   H14       1.0  0.47925  0.57255  0.27760  1.0000
  H   H15       1.0  0.79635  0.07319  0.27633  1.0000
  H   H16       1.0  0.52075  0.42746  0.72240  1.0000
  H   H17       1.0  0.22383  0.94335  0.57372  1.0000
  H   H18       1.0  0.64938  0.55649  0.42718  1.0000
  H   H19       1.0  0.77620  0.05664  0.42628  1.0000
  H   H20       1.0  0.35059  0.44350  0.57281  1.0000
  H   H21       1.0  0.61503  0.30650  0.56745  1.0000
  H   H22       1.0  0.04522  0.19336  0.43009  1.0000
  H   H23       1.0  0.38496  0.69351  0.43256  1.0000
  H   H24       1.0  0.95474  0.80664  0.56992  1.0000
  H   H25       1.0  0.47214  0.23876  0.38214  1.0000
  H   H26       1.0  0.08912  0.26144  0.61595  1.0000
  H   H27       1.0  0.52787  0.76124  0.61787  1.0000
  H   H28       1.0  0.91086  0.73857  0.38405  1.0000
  H   H29       1.0  0.25697  0.11358  0.23426  1.0000
  H   H30       1.0  0.02367  0.38695  0.76512  1.0000
  H   H31       1.0  0.74304  0.88641  0.76574  1.0000
  H   H32       1.0  0.97632  0.61306  0.23488  1.0000
  H   H33       1.0  0.03175  0.94703  0.15009  1.0000
  H   H34       1.0  0.88429  0.55380  0.85111  1.0000
  H   H35       1.0  0.96827  0.05296  0.84991  1.0000
  H   H36       1.0  0.11568  0.44621  0.14889  1.0000
  H   H37       1.0  0.95031  0.84482  0.25629  1.0000
  H   H38       1.0  0.69700  0.65614  0.74618  1.0000
  H   H39       1.0  0.04971  0.15517  0.74371  1.0000
  H   H40       1.0  0.30295  0.34385  0.25381  1.0000
  H   H41       1.0  0.09060  0.90393  0.43743  1.0000
  H   H42       1.0  0.65479  0.59675  0.56458  1.0000
  H   H43       1.0  0.90940  0.09607  0.56258  1.0000
  H   H44       1.0  0.34518  0.40324  0.43541  1.0000
  H   H45       1.0  0.65083  0.04276  0.90837  1.0000
  H   H46       1.0  0.74227  0.45765  0.09068  1.0000
  H   H47       1.0  0.34917  0.95725  0.09163  1.0000
  H   H48       1.0  0.25775  0.54237  0.90931  1.0000
  H   H49       1.0  0.56966  0.14904  0.97926  1.0000
  H   H50       1.0  0.59139  0.35109  0.02063  1.0000
  H   H51       1.0  0.43034  0.85096  0.02075  1.0000
  H   H52       1.0  0.40863  0.64893  0.97936  1.0000
  C   C1        1.0  0.37612  0.02764  0.87003  1.0000
  C   C2        1.0  0.50650  0.47225  0.13067  1.0000
  C   C3        1.0  0.62388  0.97236  0.12997  1.0000
  C   C4        1.0  0.49351  0.52776  0.86932  1.0000
  C   C5        1.0  0.34048  0.96610  0.75730  1.0000
  C   C6        1.0  0.58255  0.53369  0.24334  1.0000
  C   C7        1.0  0.65953  0.03391  0.24270  1.0000
  C   C8        1.0  0.41745  0.46632  0.75666  1.0000
  C   C9        1.0  0.31261  0.02139  0.61296  1.0000
  C   C10       1.0  0.69900  0.47857  0.38743  1.0000
  C   C11       1.0  0.68739  0.97861  0.38705  1.0000
  C   C12       1.0  0.30099  0.52143  0.61257  1.0000
  C   C13       1.0  0.34730  0.08330  0.55268  1.0000
  C   C14       1.0  0.79412  0.41686  0.44728  1.0000
  C   C15       1.0  0.65267  0.91671  0.44733  1.0000
  C   C16       1.0  0.20588  0.58314  0.55272  1.0000
  C   C17       1.0  0.47312  0.18045  0.59702  1.0000
  C   C18       1.0  0.87489  0.31963  0.40203  1.0000
  C   C19       1.0  0.52688  0.81955  0.40297  1.0000
  C   C20       1.0  0.12508  0.68037  0.59797  1.0000
  C   C21       1.0  0.51501  0.23466  0.53186  1.0000
  C   C22       1.0  0.98163  0.26535  0.46650  1.0000
  C   C23       1.0  0.48499  0.76534  0.46815  1.0000
  C   C24       1.0  0.01835  0.73465  0.53351  1.0000
  C   C25       1.0  0.43610  0.19636  0.42977  1.0000
  C   C26       1.0  0.00560  0.30384  0.56886  1.0000
  C   C27       1.0  0.56390  0.80365  0.57023  1.0000
  C   C28       1.0  0.99440  0.69617  0.43115  1.0000
  C   C29       1.0  0.30661  0.10154  0.38302  1.0000
  C   C30       1.0  0.92379  0.39883  0.61660  1.0000
  C   C31       1.0  0.69337  0.89847  0.61698  1.0000
  C   C32       1.0  0.07622  0.60119  0.38340  1.0000
  C   C33       1.0  0.22196  0.06565  0.27786  1.0000
  C   C34       1.0  0.94509  0.43490  0.72209  1.0000
  C   C35       1.0  0.77804  0.93435  0.72214  1.0000
  C   C36       1.0  0.05491  0.56511  0.27792  1.0000
  C   C37       1.0  0.09630  0.97374  0.23140  1.0000
  C   C38       1.0  0.86703  0.52705  0.76957  1.0000
  C   C39       1.0  0.90371  0.02625  0.76861  1.0000
  C   C40       1.0  0.13295  0.47296  0.23043  1.0000
  C   C41       1.0  0.05155  0.91622  0.29118  1.0000
  C   C42       1.0  0.76261  0.58457  0.71047  1.0000
  C   C43       1.0  0.94846  0.08377  0.70882  1.0000
  C   C44       1.0  0.23736  0.41543  0.28952  1.0000
  C   C45       1.0  0.13089  0.95065  0.39457  1.0000
  C   C46       1.0  0.73778  0.54996  0.60679  1.0000
  C   C47       1.0  0.86910  0.04935  0.60543  1.0000
  C   C48       1.0  0.26220  0.45005  0.39321  1.0000
  C   C49       1.0  0.26152  0.04383  0.44447  1.0000
  C   C50       1.0  0.81743  0.45657  0.55583  1.0000
  C   C51       1.0  0.73846  0.95618  0.55553  1.0000
  C   C52       1.0  0.18257  0.54344  0.44417  1.0000
  C   C53       1.0  0.90537  0.31539  0.91352  1.0000
  C   C54       1.0  0.99164  0.18418  0.08518  1.0000
  C   C55       1.0  0.09467  0.68460  0.08649  1.0000
  C   C56       1.0  0.00837  0.81579  0.91483  1.0000
  C   C57       1.0  0.19945  0.32418  0.91438  1.0000
  C   C58       1.0  0.28518  0.17511  0.08516  1.0000
  C   C59       1.0  0.80057  0.67581  0.08562  1.0000
  C   C60       1.0  0.71481  0.82487  0.91484  1.0000
  N   N1        1.0  0.55033  0.09399  0.90674  1.0000
  N   N2        1.0  0.64391  0.40624  0.09301  1.0000
  N   N3        1.0  0.44966  0.90601  0.09326  1.0000
  N   N4        1.0  0.35610  0.59377  0.90698  1.0000
  N   N5        1.0  0.37946  0.04609  0.71034  1.0000
  N   N6        1.0  0.66829  0.45376  0.28988  1.0000
  N   N7        1.0  0.62053  0.95393  0.28967  1.0000
  N   N8        1.0  0.33172  0.54625  0.71011  1.0000
  N   N9        1.0  0.06573  0.36245  0.94743  1.0000
  N   N10       1.0  0.11899  0.13664  0.05205  1.0000
  N   N11       1.0  0.93434  0.63752  0.05259  1.0000
  N   N12       1.0  0.88099  0.86332  0.94796  1.0000
  N   N13       1.0  0.75505  0.28127  0.89071  1.0000
  N   N14       1.0  0.86366  0.21889  0.10742  1.0000
  N   N15       1.0  0.24499  0.71872  0.10928  1.0000
  N   N16       1.0  0.13634  0.78111  0.89259  1.0000
  N   N17       1.0  0.33030  0.29913  0.89034  1.0000
  N   N18       1.0  0.43958  0.20041  0.10947  1.0000
  N   N19       1.0  0.66974  0.70088  0.10962  1.0000
  N   N20       1.0  0.56039  0.79958  0.89052  1.0000
  O   O1        1.0  0.55676  0.22495  0.69282  1.0000
  O   O2        1.0  0.86230  0.27505  0.30591  1.0000
  O   O3        1.0  0.44326  0.77504  0.30718  1.0000
  O   O4        1.0  0.13764  0.72493  0.69409  1.0000
