data_image0
_chemical_formula_structural       Ni2H16C20N28
_chemical_formula_sum              "Ni2 H16 C20 N28"
_cell_length_a       8.10703
_cell_length_b       8.14434
_cell_length_c       11.7929
_cell_angle_alpha    109.786
_cell_angle_beta     90.807
_cell_angle_gamma    98.1287

_space_group_name_H-M_alt    "P 1"
_space_group_IT_number       1

loop_
  _space_group_symop_operation_xyz
  'x, y, z'

loop_
  _atom_site_type_symbol
  _atom_site_label
  _atom_site_symmetry_multiplicity
  _atom_site_fract_x
  _atom_site_fract_y
  _atom_site_fract_z
  _atom_site_occupancy
  Ni  Ni1       1.0  0.29911  0.48771  0.51743  1.0000
  Ni  Ni2       1.0  0.70090  0.51229  0.48257  1.0000
  H   H1        1.0  0.33672  0.64622  0.78891  1.0000
  H   H2        1.0  0.66327  0.35378  0.21109  1.0000
  H   H3        1.0  0.35724  0.54500  0.96417  1.0000
  H   H4        1.0  0.64275  0.45499  0.03584  1.0000
  H   H5        1.0  0.29954  0.00917  0.71051  1.0000
  H   H6        1.0  0.70047  0.99083  0.28949  1.0000
  H   H7        1.0  0.28652  0.13628  0.54547  1.0000
  H   H8        1.0  0.71350  0.86373  0.45453  1.0000
  H   H9        1.0  0.29485  0.83920  0.49413  1.0000
  H   H10       1.0  0.70515  0.16081  0.50587  1.0000
  H   H11       1.0  0.18026  0.96189  0.34717  1.0000
  H   H12       1.0  0.81974  0.03811  0.65283  1.0000
  H   H13       1.0  0.10778  0.43134  0.08556  1.0000
  H   H14       1.0  0.89221  0.56867  0.91445  1.0000
  H   H15       1.0  0.21944  0.33197  0.24499  1.0000
  H   H16       1.0  0.78055  0.66804  0.75501  1.0000
  C   C1        1.0  0.33225  0.50666  0.77475  1.0000
  C   C2        1.0  0.66775  0.49334  0.22525  1.0000
  C   C3        1.0  0.34251  0.44990  0.87265  1.0000
  C   C4        1.0  0.65749  0.55009  0.12735  1.0000
  C   C5        1.0  0.33228  0.26869  0.85157  1.0000
  C   C6        1.0  0.66772  0.73131  0.14843  1.0000
  C   C7        1.0  0.31021  0.15146  0.73166  1.0000
  C   C8        1.0  0.68980  0.84854  0.26833  1.0000
  C   C9        1.0  0.30281  0.22138  0.63979  1.0000
  C   C10       1.0  0.69720  0.77862  0.36021  1.0000
  C   C11       1.0  0.25156  0.75418  0.40248  1.0000
  C   C12       1.0  0.74844  0.24583  0.59752  1.0000
  C   C13       1.0  0.18925  0.82177  0.32051  1.0000
  C   C14       1.0  0.81074  0.17823  0.67949  1.0000
  C   C15       1.0  0.13687  0.70453  0.20369  1.0000
  C   C16       1.0  0.86312  0.29547  0.79631  1.0000
  C   C17       1.0  0.14913  0.52567  0.17505  1.0000
  C   C18       1.0  0.85086  0.47433  0.82495  1.0000
  C   C19       1.0  0.21132  0.47070  0.26404  1.0000
  C   C20       1.0  0.78868  0.52930  0.73596  1.0000
  N   N1        1.0  0.47656  0.32885  0.42650  1.0000
  N   N2        1.0  0.52344  0.67115  0.57350  1.0000
  N   N3        1.0  0.44704  0.21388  0.32917  1.0000
  N   N4        1.0  0.55297  0.78612  0.67083  1.0000
  N   N5        1.0  0.41745  0.10034  0.23553  1.0000
  N   N6        1.0  0.58255  0.89966  0.76447  1.0000
  N   N7        1.0  0.31395  0.39550  0.65946  1.0000
  N   N8        1.0  0.68605  0.60450  0.34054  1.0000
  N   N9        1.0  0.34280  0.21832  0.95365  1.0000
  N   N10       1.0  0.65720  0.78168  0.04635  1.0000
  N   N11       1.0  0.32917  0.06059  0.94315  1.0000
  N   N12       1.0  0.67083  0.93940  0.05685  1.0000
  N   N13       1.0  0.31740  0.92287  0.95031  1.0000
  N   N14       1.0  0.68260  0.07712  0.04969  1.0000
  N   N15       1.0  0.26022  0.58139  0.37695  1.0000
  N   N16       1.0  0.73978  0.41861  0.62305  1.0000
  N   N17       1.0  0.07113  0.75506  0.11202  1.0000
  N   N18       1.0  0.92887  0.24494  0.88798  1.0000
  N   N19       1.0  0.05832  0.91150  0.13257  1.0000
  N   N20       1.0  0.94168  0.08851  0.86742  1.0000
  N   N21       1.0  0.03704  0.04979  0.13732  1.0000
  N   N22       1.0  0.96297  0.95021  0.86267  1.0000
  N   N23       1.0  0.10423  0.28205  0.43832  1.0000
  N   N24       1.0  0.89578  0.71796  0.56168  1.0000
  N   N25       1.0  0.83933  0.32748  0.37651  1.0000
  N   N26       1.0  0.16068  0.67252  0.62349  1.0000
  N   N27       1.0  0.97222  0.30789  0.40887  1.0000
  N   N28       1.0  0.02778  0.69211  0.59114  1.0000
