data_image0
_chemical_formula_structural       Co2H16C20N28
_chemical_formula_sum              "Co2 H16 C20 N28"
_cell_length_a       8.14586
_cell_length_b       8.08537
_cell_length_c       11.7949
_cell_angle_alpha    109.422
_cell_angle_beta     91.6088
_cell_angle_gamma    99.3652

_space_group_name_H-M_alt    "P 1"
_space_group_IT_number       1

loop_
  _space_group_symop_operation_xyz
  'x, y, z'

loop_
  _atom_site_type_symbol
  _atom_site_label
  _atom_site_symmetry_multiplicity
  _atom_site_fract_x
  _atom_site_fract_y
  _atom_site_fract_z
  _atom_site_occupancy
  Co  Co1       1.0  0.80210  0.99181  0.01902  1.0000
  Co  Co2       1.0  0.19789  0.00819  0.98098  1.0000
  H   H1        1.0  0.72891  0.82676  0.75388  1.0000
  H   H2        1.0  0.27109  0.17324  0.24612  1.0000
  H   H3        1.0  0.62384  0.92270  0.59066  1.0000
  H   H4        1.0  0.37617  0.07730  0.40934  1.0000
  H   H5        1.0  0.68331  0.45666  0.85125  1.0000
  H   H6        1.0  0.31668  0.54334  0.14875  1.0000
  H   H7        1.0  0.79233  0.33874  0.00256  1.0000
  H   H8        1.0  0.20764  0.66126  0.99745  1.0000
  H   H9        1.0  0.83794  0.15937  0.28395  1.0000
  H   H10       1.0  0.16206  0.84064  0.71605  1.0000
  H   H11       1.0  0.85329  0.05884  0.45933  1.0000
  H   H12       1.0  0.14673  0.94116  0.54067  1.0000
  H   H13       1.0  0.80237  0.51905  0.20851  1.0000
  H   H14       1.0  0.19763  0.48095  0.79149  1.0000
  H   H15       1.0  0.79603  0.64527  0.04219  1.0000
  H   H16       1.0  0.20395  0.35473  0.95782  1.0000
  C   C1        1.0  0.71908  0.96540  0.77200  1.0000
  C   C2        1.0  0.28092  0.03461  0.22801  1.0000
  C   C3        1.0  0.65999  0.01880  0.68099  1.0000
  C   C4        1.0  0.34000  0.98120  0.31901  1.0000
  C   C5        1.0  0.64438  0.19720  0.70786  1.0000
  C   C6        1.0  0.35562  0.80280  0.29214  1.0000
  C   C7        1.0  0.69311  0.31629  0.82560  1.0000
  C   C8        1.0  0.30688  0.68370  0.17440  1.0000
  C   C9        1.0  0.75275  0.25155  0.91034  1.0000
  C   C10       1.0  0.24723  0.74845  0.08966  1.0000
  C   C11       1.0  0.83465  0.01931  0.27020  1.0000
  C   C12       1.0  0.16535  0.98069  0.72980  1.0000
  C   C13       1.0  0.84141  0.96229  0.36840  1.0000
  C   C14       1.0  0.15859  0.03771  0.63160  1.0000
  C   C15       1.0  0.83121  0.78010  0.34858  1.0000
  C   C16       1.0  0.16880  0.21990  0.65142  1.0000
  C   C17       1.0  0.81296  0.66225  0.22888  1.0000
  C   C18       1.0  0.18704  0.33775  0.77113  1.0000
  C   C19       1.0  0.80917  0.73141  0.13612  1.0000
  C   C20       1.0  0.19082  0.26859  0.86389  1.0000
  N   N1        1.0  0.00985  0.17011  0.07529  1.0000
  N   N2        1.0  0.99014  0.82989  0.92471  1.0000
  N   N3        1.0  0.04111  0.29057  0.17082  1.0000
  N   N4        1.0  0.95889  0.70942  0.82918  1.0000
  N   N5        1.0  0.07826  0.40976  0.26189  1.0000
  N   N6        1.0  0.92175  0.59024  0.73811  1.0000
  N   N7        1.0  0.61313  0.79548  0.95119  1.0000
  N   N8        1.0  0.38687  0.20451  0.04881  1.0000
  N   N9        1.0  0.48253  0.81046  0.91017  1.0000
  N   N10       1.0  0.51747  0.18953  0.08983  1.0000
  N   N11       1.0  0.35138  0.81943  0.86965  1.0000
  N   N12       1.0  0.64862  0.18057  0.13036  1.0000
  N   N13       1.0  0.76209  0.07776  0.88666  1.0000
  N   N14       1.0  0.23789  0.92224  0.11334  1.0000
  N   N15       1.0  0.58057  0.24534  0.61400  1.0000
  N   N16       1.0  0.41944  0.75466  0.38599  1.0000
  N   N17       1.0  0.56582  0.40165  0.63347  1.0000
  N   N18       1.0  0.43419  0.59835  0.36652  1.0000
  N   N19       1.0  0.54323  0.53963  0.63718  1.0000
  N   N20       1.0  0.45678  0.46037  0.36281  1.0000
  N   N21       1.0  0.81999  0.90722  0.15473  1.0000
  N   N22       1.0  0.18000  0.09277  0.84527  1.0000
  N   N23       1.0  0.83817  0.72908  0.45092  1.0000
  N   N24       1.0  0.16185  0.27093  0.54908  1.0000
  N   N25       1.0  0.82672  0.57021  0.44070  1.0000
  N   N26       1.0  0.17330  0.42979  0.55930  1.0000
  N   N27       1.0  0.81651  0.43152  0.44832  1.0000
  N   N28       1.0  0.18351  0.56849  0.55168  1.0000
