data_image0
_chemical_formula_structural       Cd2H16C20N28
_chemical_formula_sum              "Cd2 H16 C20 N28"
_cell_length_a       8.23488
_cell_length_b       8.50128
_cell_length_c       12.0772
_cell_angle_alpha    82.6116
_cell_angle_beta     70.4767
_cell_angle_gamma    79.9814

_space_group_name_H-M_alt    "P 1"
_space_group_IT_number       1

loop_
  _space_group_symop_operation_xyz
  'x, y, z'

loop_
  _atom_site_type_symbol
  _atom_site_label
  _atom_site_symmetry_multiplicity
  _atom_site_fract_x
  _atom_site_fract_y
  _atom_site_fract_z
  _atom_site_occupancy
  Cd  Cd1       1.0  0.03918  0.79157  0.47804  1.0000
  Cd  Cd2       1.0  0.96082  0.20843  0.52196  1.0000
  H   H1        1.0  0.16978  0.82613  0.19401  1.0000
  H   H2        1.0  0.83022  0.17387  0.80599  1.0000
  H   H3        1.0  0.43949  0.84883  0.02250  1.0000
  H   H4        1.0  0.56051  0.15117  0.97750  1.0000
  H   H5        1.0  0.72375  0.80373  0.27188  1.0000
  H   H6        1.0  0.27626  0.19627  0.72812  1.0000
  H   H7        1.0  0.43930  0.78894  0.43239  1.0000
  H   H8        1.0  0.56070  0.21106  0.56761  1.0000
  H   H9        1.0  0.90223  0.70066  0.76190  1.0000
  H   H10       1.0  0.09777  0.29934  0.23810  1.0000
  H   H11       1.0  0.64881  0.59753  0.91786  1.0000
  H   H12       1.0  0.35119  0.40247  0.08214  1.0000
  H   H13       1.0  0.38215  0.66194  0.65714  1.0000
  H   H14       1.0  0.61785  0.33806  0.34286  1.0000
  H   H15       1.0  0.64577  0.76611  0.51410  1.0000
  H   H16       1.0  0.35423  0.23389  0.48590  1.0000
  C   C1        1.0  0.29437  0.82423  0.20746  1.0000
  C   C2        1.0  0.70563  0.17577  0.79254  1.0000
  C   C3        1.0  0.44451  0.83601  0.11213  1.0000
  C   C4        1.0  0.55549  0.16399  0.88787  1.0000
  C   C5        1.0  0.60279  0.82936  0.13363  1.0000
  C   C6        1.0  0.39721  0.17064  0.86637  1.0000
  C   C7        1.0  0.60363  0.81133  0.25077  1.0000
  C   C8        1.0  0.39637  0.18867  0.74923  1.0000
  C   C9        1.0  0.44642  0.80204  0.34000  1.0000
  C   C10       1.0  0.55358  0.19796  0.66000  1.0000
  C   C11       1.0  0.78405  0.69230  0.74262  1.0000
  C   C12       1.0  0.21595  0.30770  0.25738  1.0000
  C   C13       1.0  0.64348  0.63561  0.82942  1.0000
  C   C14       1.0  0.35652  0.36439  0.17058  1.0000
  C   C15       1.0  0.49499  0.62541  0.80020  1.0000
  C   C16       1.0  0.50501  0.37459  0.19980  1.0000
  C   C17       1.0  0.49306  0.67182  0.68482  1.0000
  C   C18       1.0  0.50695  0.32818  0.31518  1.0000
  C   C19       1.0  0.63985  0.72772  0.60484  1.0000
  C   C20       1.0  0.36015  0.27228  0.39516  1.0000
  N   N1        1.0  0.12088  0.96998  0.58007  1.0000
  N   N2        1.0  0.87911  0.03002  0.41993  1.0000
  N   N3        1.0  0.12477  0.93943  0.67963  1.0000
  N   N4        1.0  0.87523  0.06057  0.32037  1.0000
  N   N5        1.0  0.13237  0.90988  0.77509  1.0000
  N   N6        1.0  0.86763  0.09012  0.22491  1.0000
  N   N7        1.0  0.19081  0.57779  0.57079  1.0000
  N   N8        1.0  0.80919  0.42221  0.42921  1.0000
  N   N9        1.0  0.12126  0.46208  0.60801  1.0000
  N   N10       1.0  0.87874  0.53792  0.39199  1.0000
  N   N11       1.0  0.05438  0.34543  0.64700  1.0000
  N   N12       1.0  0.94562  0.65457  0.35300  1.0000
  N   N13       1.0  0.29419  0.80813  0.31987  1.0000
  N   N14       1.0  0.70581  0.19187  0.68012  1.0000
  N   N15       1.0  0.75172  0.83920  0.03481  1.0000
  N   N16       1.0  0.24829  0.16080  0.96519  1.0000
  N   N17       1.0  0.89581  0.82752  0.04870  1.0000
  N   N18       1.0  0.10419  0.17248  0.95130  1.0000
  N   N19       1.0  0.03732  0.81696  0.04606  1.0000
  N   N20       1.0  0.96268  0.18304  0.95394  1.0000
  N   N21       1.0  0.78361  0.73773  0.63171  1.0000
  N   N22       1.0  0.21639  0.26227  0.36829  1.0000
  N   N23       1.0  0.35621  0.56707  0.89050  1.0000
  N   N24       1.0  0.64379  0.43293  0.10950  1.0000
  N   N25       1.0  0.22015  0.55680  0.87179  1.0000
  N   N26       1.0  0.77985  0.44320  0.12821  1.0000
  N   N27       1.0  0.08684  0.53762  0.86981  1.0000
  N   N28       1.0  0.91316  0.46238  0.13019  1.0000
