data_image0
_chemical_formula_structural       Cu4H16C20N12O4
_chemical_formula_sum              "Cu4 H16 C20 N12 O4"
_cell_length_a       5.86629
_cell_length_b       8.61892
_cell_length_c       11.9006
_cell_angle_alpha    90.0005
_cell_angle_beta     89.9998
_cell_angle_gamma    90.0012

_space_group_name_H-M_alt    "P 1"
_space_group_IT_number       1

loop_
  _space_group_symop_operation_xyz
  'x, y, z'

loop_
  _atom_site_type_symbol
  _atom_site_label
  _atom_site_symmetry_multiplicity
  _atom_site_fract_x
  _atom_site_fract_y
  _atom_site_fract_z
  _atom_site_occupancy
  Cu  Cu1       1.0  0.82449  0.35653  0.75000  1.0000
  Cu  Cu2       1.0  0.32447  0.14347  0.75000  1.0000
  Cu  Cu3       1.0  0.67551  0.85651  0.25000  1.0000
  Cu  Cu4       1.0  0.17553  0.64350  0.25000  1.0000
  H   H1        1.0  0.07924  0.23410  0.55448  1.0000
  H   H2        1.0  0.57923  0.26590  0.55449  1.0000
  H   H3        1.0  0.07921  0.23410  0.94551  1.0000
  H   H4        1.0  0.42077  0.73408  0.05449  1.0000
  H   H5        1.0  0.92078  0.76591  0.44550  1.0000
  H   H6        1.0  0.42077  0.73409  0.44550  1.0000
  H   H7        1.0  0.92080  0.76591  0.05450  1.0000
  H   H8        1.0  0.57922  0.26590  0.94551  1.0000
  H   H9        1.0  0.79227  0.66234  0.63221  1.0000
  H   H10       1.0  0.29227  0.83766  0.63221  1.0000
  H   H11       1.0  0.79229  0.66235  0.86779  1.0000
  H   H12       1.0  0.70772  0.16233  0.13222  1.0000
  H   H13       1.0  0.20774  0.33768  0.36778  1.0000
  H   H14       1.0  0.70773  0.16233  0.36778  1.0000
  H   H15       1.0  0.20772  0.33767  0.13222  1.0000
  H   H16       1.0  0.29228  0.83766  0.86778  1.0000
  C   C1        1.0  0.38704  0.49371  0.75001  1.0000
  C   C2        1.0  0.88703  0.00626  0.75000  1.0000
  C   C3        1.0  0.11296  0.99374  0.25000  1.0000
  C   C4        1.0  0.61297  0.50627  0.25000  1.0000
  C   C5        1.0  0.04456  0.35331  0.52956  1.0000
  C   C6        1.0  0.54455  0.14669  0.52956  1.0000
  C   C7        1.0  0.04455  0.35331  0.97044  1.0000
  C   C8        1.0  0.45544  0.85331  0.02956  1.0000
  C   C9        1.0  0.95544  0.64669  0.47043  1.0000
  C   C10       1.0  0.45543  0.85331  0.47043  1.0000
  C   C11       1.0  0.95546  0.64669  0.02957  1.0000
  C   C12       1.0  0.54455  0.14668  0.97044  1.0000
  C   C13       1.0  0.88297  0.58854  0.57290  1.0000
  C   C14       1.0  0.38296  0.91146  0.57291  1.0000
  C   C15       1.0  0.88298  0.58855  0.92710  1.0000
  C   C16       1.0  0.61703  0.08853  0.07291  1.0000
  C   C17       1.0  0.11705  0.41147  0.42708  1.0000
  C   C18       1.0  0.61703  0.08853  0.42709  1.0000
  C   C19       1.0  0.11704  0.41147  0.07292  1.0000
  C   C20       1.0  0.38296  0.91145  0.92709  1.0000
  N   N1        1.0  0.47213  0.36567  0.75001  1.0000
  N   N2        1.0  0.97211  0.13430  0.75000  1.0000
  N   N3        1.0  0.02788  0.86571  0.25000  1.0000
  N   N4        1.0  0.52788  0.63430  0.25000  1.0000
  N   N5        1.0  0.92635  0.44035  0.60399  1.0000
  N   N6        1.0  0.42635  0.05966  0.60399  1.0000
  N   N7        1.0  0.92636  0.44035  0.89601  1.0000
  N   N8        1.0  0.57363  0.94033  0.10400  1.0000
  N   N9        1.0  0.07364  0.55968  0.39600  1.0000
  N   N10       1.0  0.57363  0.94034  0.39600  1.0000
  N   N11       1.0  0.07365  0.55967  0.10400  1.0000
  N   N12       1.0  0.42635  0.05966  0.89600  1.0000
  O   O1        1.0  0.30374  0.62184  0.75001  1.0000
  O   O2        1.0  0.80375  0.87815  0.75000  1.0000
  O   O3        1.0  0.19624  0.12186  0.25000  1.0000
  O   O4        1.0  0.69626  0.37815  0.25000  1.0000
