data_image0
_chemical_formula_structural       Dy4Ag4H32C56N8O32
_chemical_formula_sum              "Dy4 Ag4 H32 C56 N8 O32"
_cell_length_a       9.45078
_cell_length_b       11.9952
_cell_length_c       16.783
_cell_angle_alpha    96.0473
_cell_angle_beta     90
_cell_angle_gamma    113.2

_space_group_name_H-M_alt    "P 1"
_space_group_IT_number       1

loop_
  _space_group_symop_operation_xyz
  'x, y, z'

loop_
  _atom_site_type_symbol
  _atom_site_label
  _atom_site_symmetry_multiplicity
  _atom_site_fract_x
  _atom_site_fract_y
  _atom_site_fract_z
  _atom_site_occupancy
  Dy  Dy1       1.0  0.30203  0.01019  0.93227  1.0000
  Dy  Dy2       1.0  0.29185  0.98983  0.56776  1.0000
  Dy  Dy3       1.0  0.69797  0.98981  0.06773  1.0000
  Dy  Dy4       1.0  0.70815  0.01017  0.43224  1.0000
  Ag  Ag1       1.0  0.72122  0.67996  0.91596  1.0000
  Ag  Ag2       1.0  0.04113  0.31993  0.58394  1.0000
  Ag  Ag3       1.0  0.27879  0.32004  0.08404  1.0000
  Ag  Ag4       1.0  0.95888  0.68007  0.41606  1.0000
  H   H1        1.0  0.40379  0.81065  0.22001  1.0000
  H   H2        1.0  0.59296  0.18925  0.28003  1.0000
  H   H3        1.0  0.59621  0.18936  0.77999  1.0000
  H   H4        1.0  0.40704  0.81075  0.71997  1.0000
  H   H5        1.0  0.02581  0.91003  0.16497  1.0000
  H   H6        1.0  0.11554  0.08979  0.33502  1.0000
  H   H7        1.0  0.97418  0.08997  0.83503  1.0000
  H   H8        1.0  0.88446  0.91020  0.66498  1.0000
  H   H9        1.0  0.42886  0.58854  0.04798  1.0000
  H   H10       1.0  0.84024  0.41153  0.45200  1.0000
  H   H11       1.0  0.57114  0.41146  0.95202  1.0000
  H   H12       1.0  0.15976  0.58847  0.54800  1.0000
  H   H13       1.0  0.12819  0.64310  0.87844  1.0000
  H   H14       1.0  0.48495  0.35664  0.62150  1.0000
  H   H15       1.0  0.87180  0.35690  0.12155  1.0000
  H   H16       1.0  0.51504  0.64336  0.37850  1.0000
  H   H17       1.0  0.88800  0.79870  0.27831  1.0000
  H   H18       1.0  0.08915  0.20120  0.22170  1.0000
  H   H19       1.0  0.11200  0.20129  0.72169  1.0000
  H   H20       1.0  0.91085  0.79880  0.77830  1.0000
  H   H21       1.0  0.24850  0.69707  0.32771  1.0000
  H   H22       1.0  0.55131  0.30293  0.17234  1.0000
  H   H23       1.0  0.75151  0.30294  0.67229  1.0000
  H   H24       1.0  0.44870  0.69708  0.82766  1.0000
  H   H25       1.0  0.05109  0.28577  0.94723  1.0000
  H   H26       1.0  0.76502  0.71412  0.55288  1.0000
  H   H27       1.0  0.94892  0.71422  0.05277  1.0000
  H   H28       1.0  0.23497  0.28588  0.44712  1.0000
  H   H29       1.0  0.97163  0.41355  0.86310  1.0000
  H   H30       1.0  0.55783  0.58622  0.63697  1.0000
  H   H31       1.0  0.02837  0.58645  0.13689  1.0000
  H   H32       1.0  0.44217  0.41378  0.36303  1.0000
  C   C1        1.0  0.28940  0.80903  0.23064  1.0000
  C   C2        1.0  0.48025  0.19097  0.26943  1.0000
  C   C3        1.0  0.71060  0.19097  0.76936  1.0000
  C   C4        1.0  0.51976  0.80904  0.73057  1.0000
  C   C5        1.0  0.22807  0.87187  0.18498  1.0000
  C   C6        1.0  0.35606  0.12813  0.31509  1.0000
  C   C7        1.0  0.77194  0.12813  0.81502  1.0000
  C   C8        1.0  0.64394  0.87187  0.68491  1.0000
  C   C9        1.0  0.38786  0.76490  0.97573  1.0000
  C   C10       1.0  0.62330  0.23509  0.52428  1.0000
  C   C11       1.0  0.61213  0.23510  0.02427  1.0000
  C   C12       1.0  0.37669  0.76491  0.47573  1.0000
  C   C13       1.0  0.32250  0.94515  0.12134  1.0000
  C   C14       1.0  0.37739  0.05475  0.37864  1.0000
  C   C15       1.0  0.67750  0.05484  0.87866  1.0000
  C   C16       1.0  0.62261  0.94525  0.62136  1.0000
  C   C17       1.0  0.29059  0.63019  0.96323  1.0000
  C   C18       1.0  0.66043  0.36975  0.53675  1.0000
  C   C19       1.0  0.70941  0.36980  0.03677  1.0000
  C   C20       1.0  0.33958  0.63025  0.46325  1.0000
  C   C21       1.0  0.96456  0.93027  0.98865  1.0000
  C   C22       1.0  0.03433  0.06973  0.51129  1.0000
  C   C23       1.0  0.03544  0.06973  0.01135  1.0000
  C   C24       1.0  0.96567  0.93026  0.48870  1.0000
  C   C25       1.0  0.07958  0.86510  0.20042  1.0000
  C   C26       1.0  0.21430  0.13480  0.29963  1.0000
  C   C27       1.0  0.92042  0.13490  0.79958  1.0000
  C   C28       1.0  0.78570  0.86519  0.70037  1.0000
  C   C29       1.0  0.32783  0.55187  0.00673  1.0000
  C   C30       1.0  0.77592  0.44816  0.49328  1.0000
  C   C31       1.0  0.67217  0.44813  0.99327  1.0000
  C   C32       1.0  0.22408  0.55184  0.50673  1.0000
  C   C33       1.0  0.15946  0.58162  0.91129  1.0000
  C   C34       1.0  0.57772  0.41818  0.58870  1.0000
  C   C35       1.0  0.84053  0.41838  0.08871  1.0000
  C   C36       1.0  0.42228  0.58182  0.41130  1.0000
  C   C37       1.0  0.00168  0.80233  0.26285  1.0000
  C   C38       1.0  0.19920  0.19757  0.23718  1.0000
  C   C39       1.0  0.99832  0.19767  0.73715  1.0000
  C   C40       1.0  0.80080  0.80242  0.76282  1.0000
  C   C41       1.0  0.20358  0.74637  0.29097  1.0000
  C   C42       1.0  0.45710  0.25363  0.20910  1.0000
  C   C43       1.0  0.79642  0.25363  0.70904  1.0000
  C   C44       1.0  0.54290  0.74638  0.79090  1.0000
  C   C45       1.0  0.11659  0.38388  0.94994  1.0000
  C   C46       1.0  0.73246  0.61601  0.55011  1.0000
  C   C47       1.0  0.88340  0.61612  0.05006  1.0000
  C   C48       1.0  0.26754  0.38399  0.44989  1.0000
  C   C49       1.0  0.07333  0.45606  0.90362  1.0000
  C   C50       1.0  0.61704  0.54375  0.59642  1.0000
  C   C51       1.0  0.92667  0.54393  0.09638  1.0000
  C   C52       1.0  0.38296  0.45625  0.40357  1.0000
  C   C53       1.0  0.22063  0.92912  0.74518  1.0000
  C   C54       1.0  0.29139  0.07083  0.75487  1.0000
  C   C55       1.0  0.77937  0.07087  0.25482  1.0000
  C   C56       1.0  0.70861  0.92916  0.24513  1.0000
  N   N1        1.0  0.06335  0.74470  0.30839  1.0000
  N   N2        1.0  0.31852  0.25523  0.19166  1.0000
  N   N3        1.0  0.93665  0.25530  0.69162  1.0000
  N   N4        1.0  0.68149  0.74477  0.80834  1.0000
  N   N5        1.0  0.24101  0.43114  0.00146  1.0000
  N   N6        1.0  0.80971  0.56887  0.49856  1.0000
  N   N7        1.0  0.75898  0.56886  0.99853  1.0000
  N   N8        1.0  0.19030  0.43113  0.50144  1.0000
  O   O1        1.0  0.03506  0.88465  0.94030  1.0000
  O   O2        1.0  0.15047  0.11538  0.55963  1.0000
  O   O3        1.0  0.96492  0.11535  0.05970  1.0000
  O   O4        1.0  0.84951  0.88461  0.44036  1.0000
  O   O5        1.0  0.52287  0.79804  0.00646  1.0000
  O   O6        1.0  0.72528  0.20212  0.49349  1.0000
  O   O7        1.0  0.47713  0.20197  0.99354  1.0000
  O   O8        1.0  0.27473  0.79787  0.50651  1.0000
  O   O9        1.0  0.21077  0.87866  0.80859  1.0000
  O   O10       1.0  0.33200  0.12128  0.69145  1.0000
  O   O11       1.0  0.78923  0.12134  0.19142  1.0000
  O   O12       1.0  0.66800  0.87871  0.30855  1.0000
  O   O13       1.0  0.25490  0.98442  0.07312  1.0000
  O   O14       1.0  0.27055  0.01520  0.42684  1.0000
  O   O15       1.0  0.74510  0.01557  0.92688  1.0000
  O   O16       1.0  0.72946  0.98480  0.57316  1.0000
  O   O17       1.0  0.32549  0.83367  0.95499  1.0000
  O   O18       1.0  0.49221  0.16616  0.54499  1.0000
  O   O19       1.0  0.67451  0.16632  0.04501  1.0000
  O   O20       1.0  0.50780  0.83384  0.45500  1.0000
  O   O21       1.0  0.17950  0.87577  0.67453  1.0000
  O   O22       1.0  0.30353  0.12421  0.82550  1.0000
  O   O23       1.0  0.82051  0.12423  0.32547  1.0000
  O   O24       1.0  0.69647  0.87579  0.17450  1.0000
  O   O25       1.0  0.46297  0.96058  0.12153  1.0000
  O   O26       1.0  0.50261  0.03958  0.37838  1.0000
  O   O27       1.0  0.53704  0.03942  0.87847  1.0000
  O   O28       1.0  0.49740  0.96042  0.62161  1.0000
  O   O29       1.0  0.83899  0.87124  0.02033  1.0000
  O   O30       1.0  0.96790  0.12873  0.47948  1.0000
  O   O31       1.0  0.16100  0.12876  0.97967  1.0000
  O   O32       1.0  0.03209  0.87127  0.52052  1.0000
