data_image0
_chemical_formula_structural       Sm4Ag4H32C56N8O32
_chemical_formula_sum              "Sm4 Ag4 H32 C56 N8 O32"
_cell_length_a       9.5932
_cell_length_b       12.0709
_cell_length_c       16.899
_cell_angle_alpha    96.2974
_cell_angle_beta     90
_cell_angle_gamma    113.414

_space_group_name_H-M_alt    "P 1"
_space_group_IT_number       1

loop_
  _space_group_symop_operation_xyz
  'x, y, z'

loop_
  _atom_site_type_symbol
  _atom_site_label
  _atom_site_symmetry_multiplicity
  _atom_site_fract_x
  _atom_site_fract_y
  _atom_site_fract_z
  _atom_site_occupancy
  Sm  Sm1       1.0  0.80452  0.01062  0.93321  1.0000
  Sm  Sm2       1.0  0.79393  0.98941  0.56677  1.0000
  Sm  Sm3       1.0  0.19548  0.98939  0.06679  1.0000
  Sm  Sm4       1.0  0.20608  0.01059  0.43323  1.0000
  Ag  Ag1       1.0  0.77369  0.31870  0.08574  1.0000
  Ag  Ag2       1.0  0.45506  0.68134  0.41428  1.0000
  Ag  Ag3       1.0  0.22631  0.68130  0.91426  1.0000
  Ag  Ag4       1.0  0.54493  0.31865  0.58572  1.0000
  H   H1        1.0  0.52943  0.59119  0.13515  1.0000
  H   H2        1.0  0.93821  0.40872  0.36492  1.0000
  H   H3        1.0  0.47057  0.40881  0.86485  1.0000
  H   H4        1.0  0.06179  0.59128  0.63509  1.0000
  H   H5        1.0  0.52451  0.90731  0.16417  1.0000
  H   H6        1.0  0.61707  0.09258  0.33573  1.0000
  H   H7        1.0  0.47549  0.09269  0.83583  1.0000
  H   H8        1.0  0.38294  0.90741  0.66427  1.0000
  H   H9        1.0  0.89766  0.81178  0.22193  1.0000
  H   H10       1.0  0.08579  0.18801  0.27802  1.0000
  H   H11       1.0  0.10234  0.18822  0.77807  1.0000
  H   H12       1.0  0.91422  0.81200  0.72197  1.0000
  H   H13       1.0  0.74300  0.69932  0.32858  1.0000
  H   H14       1.0  0.04375  0.30060  0.17142  1.0000
  H   H15       1.0  0.25700  0.30068  0.67142  1.0000
  H   H16       1.0  0.95625  0.69940  0.82858  1.0000
  H   H17       1.0  0.38745  0.79780  0.27662  1.0000
  H   H18       1.0  0.58977  0.20243  0.22342  1.0000
  H   H19       1.0  0.61254  0.20220  0.72338  1.0000
  H   H20       1.0  0.41023  0.79757  0.77658  1.0000
  H   H21       1.0  0.36958  0.36359  0.12328  1.0000
  H   H22       1.0  0.00593  0.63631  0.37672  1.0000
  H   H23       1.0  0.63041  0.63641  0.87672  1.0000
  H   H24       1.0  0.99407  0.36369  0.62329  1.0000
  H   H25       1.0  0.45644  0.71633  0.04795  1.0000
  H   H26       1.0  0.74019  0.28366  0.45217  1.0000
  H   H27       1.0  0.54356  0.28367  0.95205  1.0000
  H   H28       1.0  0.25981  0.71634  0.54783  1.0000
  H   H29       1.0  0.07754  0.41518  0.95139  1.0000
  H   H30       1.0  0.66226  0.58479  0.54859  1.0000
  H   H31       1.0  0.92246  0.58482  0.04861  1.0000
  H   H32       1.0  0.33773  0.41520  0.45141  1.0000
  C   C1        1.0  0.42886  0.54845  0.09489  1.0000
  C   C2        1.0  0.88039  0.45148  0.40516  1.0000
  C   C3        1.0  0.57114  0.45155  0.90511  1.0000
  C   C4        1.0  0.11960  0.54852  0.59484  1.0000
  C   C5        1.0  0.72388  0.87028  0.18540  1.0000
  C   C6        1.0  0.85348  0.12955  0.31453  1.0000
  C   C7        1.0  0.27612  0.12972  0.81460  1.0000
  C   C8        1.0  0.14653  0.87045  0.68547  1.0000
  C   C9        1.0  0.57724  0.86342  0.19998  1.0000
  C   C10       1.0  0.71376  0.13649  0.29995  1.0000
  C   C11       1.0  0.42276  0.13658  0.80002  1.0000
  C   C12       1.0  0.28625  0.86351  0.70005  1.0000
  C   C13       1.0  0.21167  0.37489  0.03712  1.0000
  C   C14       1.0  0.83670  0.62505  0.46286  1.0000
  C   C15       1.0  0.78833  0.62511  0.96288  1.0000
  C   C16       1.0  0.16330  0.37495  0.53714  1.0000
  C   C17       1.0  0.72144  0.92916  0.74491  1.0000
  C   C18       1.0  0.79247  0.07079  0.75502  1.0000
  C   C19       1.0  0.27856  0.07085  0.25508  1.0000
  C   C20       1.0  0.20753  0.92922  0.24497  1.0000
  C   C21       1.0  0.78432  0.80924  0.23166  1.0000
  C   C22       1.0  0.97499  0.19057  0.26828  1.0000
  C   C23       1.0  0.21568  0.19076  0.76834  1.0000
  C   C24       1.0  0.02501  0.80943  0.73171  1.0000
  C   C25       1.0  0.69893  0.74739  0.29142  1.0000
  C   C26       1.0  0.95155  0.25251  0.20854  1.0000
  C   C27       1.0  0.30107  0.25261  0.70858  1.0000
  C   C28       1.0  0.04845  0.74749  0.79145  1.0000
  C   C29       1.0  0.49980  0.80159  0.26191  1.0000
  C   C30       1.0  0.69826  0.19846  0.23807  1.0000
  C   C31       1.0  0.50020  0.19841  0.73809  1.0000
  C   C32       1.0  0.30174  0.80154  0.76192  1.0000
  C   C33       1.0  0.81713  0.94202  0.12198  1.0000
  C   C34       1.0  0.87499  0.05790  0.37801  1.0000
  C   C35       1.0  0.18287  0.05798  0.87802  1.0000
  C   C36       1.0  0.12502  0.94210  0.62199  1.0000
  C   C37       1.0  0.34088  0.42389  0.08904  1.0000
  C   C38       1.0  0.91692  0.57603  0.41095  1.0000
  C   C39       1.0  0.65912  0.57610  0.91095  1.0000
  C   C40       1.0  0.08308  0.42397  0.58905  1.0000
  C   C41       1.0  0.38905  0.61918  0.04692  1.0000
  C   C42       1.0  0.76988  0.38079  0.45315  1.0000
  C   C43       1.0  0.61095  0.38082  0.95308  1.0000
  C   C44       1.0  0.23011  0.61921  0.54685  1.0000
  C   C45       1.0  0.17747  0.45198  0.99229  1.0000
  C   C46       1.0  0.72540  0.54798  0.50770  1.0000
  C   C47       1.0  0.82253  0.54802  0.00771  1.0000
  C   C48       1.0  0.27459  0.45202  0.49231  1.0000
  C   C49       1.0  0.11323  0.24091  0.02589  1.0000
  C   C50       1.0  0.87237  0.75904  0.47415  1.0000
  C   C51       1.0  0.88676  0.75909  0.97411  1.0000
  C   C52       1.0  0.12763  0.24096  0.52586  1.0000
  C   C53       1.0  0.53555  0.06951  0.01216  1.0000
  C   C54       1.0  0.46615  0.93050  0.48782  1.0000
  C   C55       1.0  0.46445  0.93050  0.98784  1.0000
  C   C56       1.0  0.53386  0.06949  0.51218  1.0000
  N   N1        1.0  0.56012  0.74510  0.30778  1.0000
  N   N2        1.0  0.81510  0.25494  0.19222  1.0000
  N   N3        1.0  0.43988  0.25490  0.69222  1.0000
  N   N4        1.0  0.18490  0.74507  0.80778  1.0000
  N   N5        1.0  0.26579  0.57159  0.99587  1.0000
  N   N6        1.0  0.69417  0.42839  0.50416  1.0000
  N   N7        1.0  0.73421  0.42841  0.00413  1.0000
  N   N8        1.0  0.30583  0.57161  0.49584  1.0000
  O   O1        1.0  0.71417  0.87843  0.80728  1.0000
  O   O2        1.0  0.83614  0.12151  0.69268  1.0000
  O   O3        1.0  0.28583  0.12157  0.19273  1.0000
  O   O4        1.0  0.16386  0.87849  0.30732  1.0000
  O   O5        1.0  0.75055  0.98146  0.07450  1.0000
  O   O6        1.0  0.76896  0.01857  0.42551  1.0000
  O   O7        1.0  0.24946  0.01854  0.92550  1.0000
  O   O8        1.0  0.23105  0.98143  0.57449  1.0000
  O   O9        1.0  0.65960  0.12917  0.98122  1.0000
  O   O10       1.0  0.53062  0.87092  0.51879  1.0000
  O   O11       1.0  0.34040  0.87084  0.01878  1.0000
  O   O12       1.0  0.46939  0.12908  0.48121  1.0000
  O   O13       1.0  0.97889  0.20846  0.99694  1.0000
  O   O14       1.0  0.77048  0.79154  0.50305  1.0000
  O   O15       1.0  0.02111  0.79154  0.00306  1.0000
  O   O16       1.0  0.22952  0.20845  0.49696  1.0000
  O   O17       1.0  0.95530  0.95647  0.12123  1.0000
  O   O18       1.0  0.99869  0.04343  0.37882  1.0000
  O   O19       1.0  0.04470  0.04354  0.87878  1.0000
  O   O20       1.0  0.00132  0.95657  0.62118  1.0000
  O   O21       1.0  0.17380  0.17164  0.04565  1.0000
  O   O22       1.0  0.00234  0.82828  0.45451  1.0000
  O   O23       1.0  0.82619  0.82836  0.95435  1.0000
  O   O24       1.0  0.99765  0.17172  0.54549  1.0000
  O   O25       1.0  0.67728  0.87584  0.67491  1.0000
  O   O26       1.0  0.80179  0.12412  0.82503  1.0000
  O   O27       1.0  0.32273  0.12416  0.32509  1.0000
  O   O28       1.0  0.19821  0.87588  0.17497  1.0000
  O   O29       1.0  0.46680  0.11439  0.06104  1.0000
  O   O30       1.0  0.35259  0.88555  0.43890  1.0000
  O   O31       1.0  0.53320  0.88562  0.93896  1.0000
  O   O32       1.0  0.64741  0.11444  0.56110  1.0000
