data_image0
_chemical_formula_structural       Gd4Ag4H32C56N8O32
_chemical_formula_sum              "Gd4 Ag4 H32 C56 N8 O32"
_cell_length_a       9.51741
_cell_length_b       12.0199
_cell_length_c       16.828
_cell_angle_alpha    96.5205
_cell_angle_beta     90
_cell_angle_gamma    113.323

_space_group_name_H-M_alt    "P 1"
_space_group_IT_number       1

loop_
  _space_group_symop_operation_xyz
  'x, y, z'

loop_
  _atom_site_type_symbol
  _atom_site_label
  _atom_site_symmetry_multiplicity
  _atom_site_fract_x
  _atom_site_fract_y
  _atom_site_fract_z
  _atom_site_occupancy
  Gd  Gd1       1.0  0.70711  0.00967  0.93263  1.0000
  Gd  Gd2       1.0  0.69747  0.99034  0.56739  1.0000
  Gd  Gd3       1.0  0.29289  0.99033  0.06737  1.0000
  Gd  Gd4       1.0  0.30252  0.00966  0.43261  1.0000
  Ag  Ag1       1.0  0.04313  0.32028  0.08571  1.0000
  Ag  Ag2       1.0  0.72279  0.67967  0.41425  1.0000
  Ag  Ag3       1.0  0.95687  0.67972  0.91429  1.0000
  Ag  Ag4       1.0  0.27722  0.32033  0.58575  1.0000
  H   H1        1.0  0.76220  0.71515  0.04933  1.0000
  H   H2        1.0  0.04708  0.28489  0.45064  1.0000
  H   H3        1.0  0.23780  0.28485  0.95067  1.0000
  H   H4        1.0  0.95292  0.71511  0.54936  1.0000
  H   H5        1.0  0.88296  0.90867  0.16463  1.0000
  H   H6        1.0  0.97414  0.09128  0.33529  1.0000
  H   H7        1.0  0.11704  0.09133  0.83537  1.0000
  H   H8        1.0  0.02586  0.90872  0.66471  1.0000
  H   H9        1.0  0.83795  0.41183  0.95051  1.0000
  H   H10       1.0  0.42620  0.58817  0.54947  1.0000
  H   H11       1.0  0.16205  0.58817  0.04949  1.0000
  H   H12       1.0  0.57380  0.41183  0.45053  1.0000
  H   H13       1.0  0.49135  0.36064  0.12264  1.0000
  H   H14       1.0  0.13074  0.63944  0.37741  1.0000
  H   H15       1.0  0.50866  0.63936  0.87736  1.0000
  H   H16       1.0  0.86925  0.36056  0.62259  1.0000
  H   H17       1.0  0.40901  0.80962  0.21989  1.0000
  H   H18       1.0  0.59934  0.19046  0.28006  1.0000
  H   H19       1.0  0.59099  0.19038  0.78011  1.0000
  H   H20       1.0  0.40066  0.80954  0.71994  1.0000
  H   H21       1.0  0.56114  0.58967  0.13584  1.0000
  H   H22       1.0  0.97148  0.41044  0.36419  1.0000
  H   H23       1.0  0.43886  0.41033  0.86416  1.0000
  H   H24       1.0  0.02852  0.58956  0.63581  1.0000
  H   H25       1.0  0.45099  0.69682  0.32679  1.0000
  H   H26       1.0  0.75414  0.30324  0.17318  1.0000
  H   H27       1.0  0.54901  0.30318  0.67321  1.0000
  H   H28       1.0  0.24586  0.69676  0.82682  1.0000
  H   H29       1.0  0.91009  0.79871  0.27741  1.0000
  H   H30       1.0  0.11125  0.20129  0.22257  1.0000
  H   H31       1.0  0.08991  0.20129  0.72259  1.0000
  H   H32       1.0  0.88875  0.79871  0.77743  1.0000
  C   C1        1.0  0.73127  0.61741  0.04757  1.0000
  C   C2        1.0  0.11390  0.38263  0.45241  1.0000
  C   C3        1.0  0.26873  0.38259  0.95244  1.0000
  C   C4        1.0  0.88610  0.61737  0.54759  1.0000
  C   C5        1.0  0.64409  0.87040  0.18465  1.0000
  C   C6        1.0  0.77350  0.12953  0.31527  1.0000
  C   C7        1.0  0.35591  0.12960  0.81535  1.0000
  C   C8        1.0  0.22649  0.87047  0.68473  1.0000
  C   C9        1.0  0.62624  0.23742  0.02522  1.0000
  C   C10       1.0  0.38873  0.76262  0.47489  1.0000
  C   C11       1.0  0.37376  0.76258  0.97479  1.0000
  C   C12       1.0  0.61127  0.23738  0.52511  1.0000
  C   C13       1.0  0.62284  0.94320  0.12146  1.0000
  C   C14       1.0  0.67949  0.05662  0.37845  1.0000
  C   C15       1.0  0.37716  0.05680  0.87854  1.0000
  C   C16       1.0  0.32052  0.94338  0.62155  1.0000
  C   C17       1.0  0.66225  0.37186  0.03653  1.0000
  C   C18       1.0  0.29037  0.62820  0.46353  1.0000
  C   C19       1.0  0.33775  0.62814  0.96347  1.0000
  C   C20       1.0  0.70962  0.37179  0.53647  1.0000
  C   C21       1.0  0.78504  0.86402  0.19994  1.0000
  C   C22       1.0  0.92083  0.13590  0.29998  1.0000
  C   C23       1.0  0.21496  0.13598  0.80006  1.0000
  C   C24       1.0  0.07917  0.86410  0.70002  1.0000
  C   C25       1.0  0.77471  0.44901  0.99181  1.0000
  C   C26       1.0  0.32574  0.55102  0.50820  1.0000
  C   C27       1.0  0.22529  0.55099  0.00819  1.0000
  C   C28       1.0  0.67426  0.44898  0.49180  1.0000
  C   C29       1.0  0.58154  0.42131  0.08877  1.0000
  C   C30       1.0  0.16024  0.57877  0.41129  1.0000
  C   C31       1.0  0.41846  0.57869  0.91123  1.0000
  C   C32       1.0  0.83976  0.42123  0.58871  1.0000
  C   C33       1.0  0.52103  0.80795  0.23018  1.0000
  C   C34       1.0  0.71300  0.19205  0.26975  1.0000
  C   C35       1.0  0.47896  0.19205  0.76982  1.0000
  C   C36       1.0  0.28700  0.80795  0.73025  1.0000
  C   C37       1.0  0.61919  0.54653  0.09524  1.0000
  C   C38       1.0  0.07265  0.45356  0.40479  1.0000
  C   C39       1.0  0.38082  0.45347  0.90476  1.0000
  C   C40       1.0  0.92735  0.54644  0.59521  1.0000
  C   C41       1.0  0.54444  0.74581  0.29015  1.0000
  C   C42       1.0  0.79857  0.25421  0.20979  1.0000
  C   C43       1.0  0.45557  0.25419  0.70985  1.0000
  C   C44       1.0  0.20143  0.74580  0.79021  1.0000
  C   C45       1.0  0.70807  0.92906  0.74467  1.0000
  C   C46       1.0  0.77908  0.07099  0.75535  1.0000
  C   C47       1.0  0.29193  0.07094  0.25533  1.0000
  C   C48       1.0  0.22092  0.92900  0.24465  1.0000
  C   C49       1.0  0.80048  0.80187  0.26204  1.0000
  C   C50       1.0  0.99848  0.19810  0.23791  1.0000
  C   C51       1.0  0.19952  0.19813  0.73796  1.0000
  C   C52       1.0  0.00152  0.80190  0.76209  1.0000
  C   C53       1.0  0.03406  0.06975  0.01197  1.0000
  C   C54       1.0  0.96433  0.93023  0.48804  1.0000
  C   C55       1.0  0.96594  0.93024  0.98803  1.0000
  C   C56       1.0  0.03567  0.06977  0.51196  1.0000
  N   N1        1.0  0.68222  0.74437  0.30739  1.0000
  N   N2        1.0  0.93779  0.25563  0.19255  1.0000
  N   N3        1.0  0.31778  0.25563  0.69261  1.0000
  N   N4        1.0  0.06222  0.74437  0.80744  1.0000
  N   N5        1.0  0.80709  0.56931  0.99599  1.0000
  N   N6        1.0  0.23784  0.43073  0.50398  1.0000
  N   N7        1.0  0.19291  0.43069  0.00401  1.0000
  N   N8        1.0  0.76216  0.56927  0.49602  1.0000
  O   O1        1.0  0.66599  0.87815  0.80732  1.0000
  O   O2        1.0  0.78780  0.12192  0.69271  1.0000
  O   O3        1.0  0.33400  0.12185  0.19269  1.0000
  O   O4        1.0  0.21220  0.87808  0.30729  1.0000
  O   O5        1.0  0.72904  0.98218  0.07351  1.0000
  O   O6        1.0  0.74673  0.01762  0.42636  1.0000
  O   O7        1.0  0.27097  0.01782  0.92649  1.0000
  O   O8        1.0  0.25327  0.98238  0.57364  1.0000
  O   O9        1.0  0.96854  0.12892  0.98067  1.0000
  O   O10       1.0  0.83966  0.87103  0.51932  1.0000
  O   O11       1.0  0.03145  0.87108  0.01933  1.0000
  O   O12       1.0  0.16034  0.12897  0.48068  1.0000
  O   O13       1.0  0.72826  0.20440  0.99558  1.0000
  O   O14       1.0  0.52374  0.79562  0.50455  1.0000
  O   O15       1.0  0.27174  0.79560  0.00442  1.0000
  O   O16       1.0  0.47625  0.20438  0.49544  1.0000
  O   O17       1.0  0.49592  0.16849  0.04568  1.0000
  O   O18       1.0  0.32740  0.83156  0.45436  1.0000
  O   O19       1.0  0.50409  0.83151  0.95432  1.0000
  O   O20       1.0  0.67259  0.16844  0.54563  1.0000
  O   O21       1.0  0.49874  0.95865  0.12165  1.0000
  O   O22       1.0  0.53989  0.04106  0.37826  1.0000
  O   O23       1.0  0.50126  0.04135  0.87835  1.0000
  O   O24       1.0  0.46011  0.95894  0.62174  1.0000
  O   O25       1.0  0.69760  0.87584  0.67403  1.0000
  O   O26       1.0  0.82181  0.12422  0.82599  1.0000
  O   O27       1.0  0.30240  0.12416  0.32597  1.0000
  O   O28       1.0  0.17820  0.87578  0.17401  1.0000
  O   O29       1.0  0.14893  0.11539  0.06089  1.0000
  O   O30       1.0  0.03359  0.88464  0.43909  1.0000
  O   O31       1.0  0.85107  0.88461  0.93911  1.0000
  O   O32       1.0  0.96642  0.11536  0.56091  1.0000
