data_image0
_chemical_formula_structural       Tb4Ag4H32C56N8O32
_chemical_formula_sum              "Tb4 Ag4 H32 C56 N8 O32"
_cell_length_a       9.49975
_cell_length_b       12.003
_cell_length_c       16.788
_cell_angle_alpha    96.4093
_cell_angle_beta     90
_cell_angle_gamma    113.311

_space_group_name_H-M_alt    "P 1"
_space_group_IT_number       1

loop_
  _space_group_symop_operation_xyz
  'x, y, z'

loop_
  _atom_site_type_symbol
  _atom_site_label
  _atom_site_symmetry_multiplicity
  _atom_site_fract_x
  _atom_site_fract_y
  _atom_site_fract_z
  _atom_site_occupancy
  Tb  Tb1       1.0  0.29230  0.99015  0.56744  1.0000
  Tb  Tb2       1.0  0.30205  0.00983  0.93253  1.0000
  Tb  Tb3       1.0  0.70770  0.00985  0.43256  1.0000
  Tb  Tb4       1.0  0.69794  0.99017  0.06748  1.0000
  Ag  Ag1       1.0  0.95571  0.67892  0.41420  1.0000
  Ag  Ag2       1.0  0.27698  0.32112  0.08580  1.0000
  Ag  Ag3       1.0  0.04429  0.32108  0.58580  1.0000
  Ag  Ag4       1.0  0.72302  0.67888  0.91420  1.0000
  H   H1        1.0  0.51119  0.64130  0.37773  1.0000
  H   H2        1.0  0.86995  0.35874  0.12227  1.0000
  H   H3        1.0  0.48881  0.35870  0.62227  1.0000
  H   H4        1.0  0.13006  0.64126  0.87773  1.0000
  H   H5        1.0  0.11690  0.09042  0.33549  1.0000
  H   H6        1.0  0.02678  0.90964  0.16454  1.0000
  H   H7        1.0  0.88309  0.90958  0.66451  1.0000
  H   H8        1.0  0.97322  0.09036  0.83546  1.0000
  H   H9        1.0  0.16138  0.58832  0.54895  1.0000
  H   H10       1.0  0.57292  0.41142  0.95103  1.0000
  H   H11       1.0  0.83862  0.41169  0.45105  1.0000
  H   H12       1.0  0.42709  0.58858  0.04897  1.0000
  H   H13       1.0  0.08963  0.20146  0.22280  1.0000
  H   H14       1.0  0.88832  0.79854  0.27713  1.0000
  H   H15       1.0  0.91037  0.79854  0.77720  1.0000
  H   H16       1.0  0.11169  0.20146  0.72287  1.0000
  H   H17       1.0  0.59170  0.19024  0.27974  1.0000
  H   H18       1.0  0.40171  0.80984  0.22042  1.0000
  H   H19       1.0  0.40829  0.80976  0.72026  1.0000
  H   H20       1.0  0.59829  0.19015  0.77958  1.0000
  H   H21       1.0  0.54940  0.30383  0.17285  1.0000
  H   H22       1.0  0.24567  0.69620  0.32724  1.0000
  H   H23       1.0  0.45060  0.69617  0.82715  1.0000
  H   H24       1.0  0.75433  0.30380  0.67276  1.0000
  H   H25       1.0  0.23785  0.28514  0.44953  1.0000
  H   H26       1.0  0.95234  0.71479  0.05043  1.0000
  H   H27       1.0  0.76215  0.71486  0.55047  1.0000
  H   H28       1.0  0.04766  0.28521  0.94957  1.0000
  H   H29       1.0  0.44067  0.41166  0.36365  1.0000
  H   H30       1.0  0.02880  0.58839  0.13629  1.0000
  H   H31       1.0  0.55932  0.58834  0.63634  1.0000
  H   H32       1.0  0.97120  0.41162  0.86371  1.0000
  C   C1        1.0  0.42005  0.58005  0.41114  1.0000
  C   C2        1.0  0.83997  0.41991  0.08882  1.0000
  C   C3        1.0  0.57995  0.41995  0.58886  1.0000
  C   C4        1.0  0.16003  0.58010  0.91118  1.0000
  C   C5        1.0  0.35625  0.12922  0.31524  1.0000
  C   C6        1.0  0.22739  0.87093  0.18486  1.0000
  C   C7        1.0  0.64375  0.87078  0.68476  1.0000
  C   C8        1.0  0.77261  0.12907  0.81514  1.0000
  C   C9        1.0  0.37492  0.76382  0.47512  1.0000
  C   C10       1.0  0.61116  0.23608  0.02485  1.0000
  C   C11       1.0  0.62507  0.23618  0.52488  1.0000
  C   C12       1.0  0.38883  0.76392  0.97515  1.0000
  C   C13       1.0  0.37777  0.05571  0.37832  1.0000
  C   C14       1.0  0.32225  0.94440  0.12170  1.0000
  C   C15       1.0  0.62222  0.94428  0.62167  1.0000
  C   C16       1.0  0.67774  0.05560  0.87830  1.0000
  C   C17       1.0  0.21498  0.13566  0.30016  1.0000
  C   C18       1.0  0.07964  0.86447  0.19992  1.0000
  C   C19       1.0  0.78502  0.86433  0.69984  1.0000
  C   C20       1.0  0.92036  0.13553  0.80008  1.0000
  C   C21       1.0  0.33847  0.62909  0.46328  1.0000
  C   C22       1.0  0.70936  0.37081  0.03669  1.0000
  C   C23       1.0  0.66153  0.37091  0.53672  1.0000
  C   C24       1.0  0.29064  0.62919  0.96331  1.0000
  C   C25       1.0  0.22511  0.55134  0.50762  1.0000
  C   C26       1.0  0.67362  0.44849  0.99235  1.0000
  C   C27       1.0  0.77489  0.44866  0.49238  1.0000
  C   C28       1.0  0.32638  0.55152  0.00765  1.0000
  C   C29       1.0  0.19945  0.19834  0.23813  1.0000
  C   C30       1.0  0.00133  0.80174  0.26190  1.0000
  C   C31       1.0  0.80055  0.80166  0.76187  1.0000
  C   C32       1.0  0.99867  0.19826  0.73810  1.0000
  C   C33       1.0  0.96557  0.93008  0.48841  1.0000
  C   C34       1.0  0.03549  0.06992  0.01162  1.0000
  C   C35       1.0  0.03443  0.06992  0.51160  1.0000
  C   C36       1.0  0.96451  0.93008  0.98838  1.0000
  C   C37       1.0  0.47951  0.19211  0.26961  1.0000
  C   C38       1.0  0.28768  0.80804  0.23053  1.0000
  C   C39       1.0  0.52049  0.80789  0.73039  1.0000
  C   C40       1.0  0.71232  0.19196  0.76946  1.0000
  C   C41       1.0  0.45600  0.25471  0.20969  1.0000
  C   C42       1.0  0.20145  0.74538  0.29042  1.0000
  C   C43       1.0  0.54400  0.74529  0.79031  1.0000
  C   C44       1.0  0.79855  0.25461  0.70958  1.0000
  C   C45       1.0  0.26907  0.38308  0.45146  1.0000
  C   C46       1.0  0.88566  0.61684  0.04849  1.0000
  C   C47       1.0  0.73093  0.61692  0.54854  1.0000
  C   C48       1.0  0.11433  0.38316  0.95152  1.0000
  C   C49       1.0  0.38210  0.45462  0.40417  1.0000
  C   C50       1.0  0.92730  0.54536  0.09576  1.0000
  C   C51       1.0  0.61790  0.54538  0.59583  1.0000
  C   C52       1.0  0.07270  0.45464  0.90424  1.0000
  C   C53       1.0  0.22061  0.92894  0.74472  1.0000
  C   C54       1.0  0.29152  0.07100  0.75523  1.0000
  C   C55       1.0  0.77939  0.07107  0.25528  1.0000
  C   C56       1.0  0.70847  0.92899  0.24477  1.0000
  N   N1        1.0  0.31788  0.25619  0.19267  1.0000
  N   N2        1.0  0.06182  0.74385  0.30738  1.0000
  N   N3        1.0  0.68212  0.74381  0.80733  1.0000
  N   N4        1.0  0.93818  0.25615  0.69262  1.0000
  N   N5        1.0  0.19276  0.43087  0.50311  1.0000
  N   N6        1.0  0.76158  0.56898  0.99686  1.0000
  N   N7        1.0  0.80725  0.56913  0.49689  1.0000
  N   N8        1.0  0.23842  0.43102  0.00314  1.0000
  O   O1        1.0  0.27155  0.01615  0.42644  1.0000
  O   O2        1.0  0.25537  0.98381  0.07359  1.0000
  O   O3        1.0  0.72845  0.98385  0.57356  1.0000
  O   O4        1.0  0.74463  0.01619  0.92642  1.0000
  O   O5        1.0  0.03151  0.87102  0.51981  1.0000
  O   O6        1.0  0.16042  0.12901  0.98017  1.0000
  O   O7        1.0  0.96849  0.12898  0.48019  1.0000
  O   O8        1.0  0.83957  0.87099  0.01984  1.0000
  O   O9        1.0  0.27273  0.79671  0.50498  1.0000
  O   O10       1.0  0.47609  0.20312  0.99498  1.0000
  O   O11       1.0  0.72727  0.20329  0.49501  1.0000
  O   O12       1.0  0.52392  0.79688  0.00502  1.0000
  O   O13       1.0  0.84977  0.88425  0.43988  1.0000
  O   O14       1.0  0.96558  0.11573  0.06020  1.0000
  O   O15       1.0  0.15023  0.11575  0.56012  1.0000
  O   O16       1.0  0.03442  0.88428  0.93980  1.0000
  O   O17       1.0  0.50227  0.04046  0.37782  1.0000
  O   O18       1.0  0.46203  0.95980  0.12216  1.0000
  O   O19       1.0  0.49773  0.95954  0.62218  1.0000
  O   O20       1.0  0.53797  0.04020  0.87784  1.0000
  O   O21       1.0  0.50575  0.83293  0.45494  1.0000
  O   O22       1.0  0.67291  0.16701  0.04504  1.0000
  O   O23       1.0  0.49426  0.16707  0.54506  1.0000
  O   O24       1.0  0.32710  0.83299  0.95496  1.0000
  O   O25       1.0  0.17812  0.87565  0.67394  1.0000
  O   O26       1.0  0.30228  0.12426  0.82601  1.0000
  O   O27       1.0  0.82188  0.12434  0.32606  1.0000
  O   O28       1.0  0.69772  0.87574  0.17399  1.0000
  O   O29       1.0  0.21153  0.87806  0.80766  1.0000
  O   O30       1.0  0.33320  0.12190  0.69228  1.0000
  O   O31       1.0  0.78847  0.12194  0.19234  1.0000
  O   O32       1.0  0.66680  0.87809  0.30772  1.0000
