data_image0
_chemical_formula_structural       Y4Ag4H32C56N8O32
_chemical_formula_sum              "Y4 Ag4 H32 C56 N8 O32"
_cell_length_a       9.49322
_cell_length_b       12.0208
_cell_length_c       16.685
_cell_angle_alpha    96.2671
_cell_angle_beta     90
_cell_angle_gamma    113.257

_space_group_name_H-M_alt    "P 1"
_space_group_IT_number       1

loop_
  _space_group_symop_operation_xyz
  'x, y, z'

loop_
  _atom_site_type_symbol
  _atom_site_label
  _atom_site_symmetry_multiplicity
  _atom_site_fract_x
  _atom_site_fract_y
  _atom_site_fract_z
  _atom_site_occupancy
  Y   Y1        1.0  0.30255  0.01012  0.93296  1.0000
  Y   Y2        1.0  0.29251  0.98989  0.56708  1.0000
  Y   Y3        1.0  0.69745  0.98988  0.06704  1.0000
  Y   Y4        1.0  0.70749  0.01011  0.43292  1.0000
  Ag  Ag1       1.0  0.71982  0.67913  0.91612  1.0000
  Ag  Ag2       1.0  0.04036  0.32081  0.58379  1.0000
  Ag  Ag3       1.0  0.28019  0.32087  0.08388  1.0000
  Ag  Ag4       1.0  0.95964  0.67919  0.41621  1.0000
  H   H1        1.0  0.02810  0.91088  0.16554  1.0000
  H   H2        1.0  0.11684  0.08900  0.33445  1.0000
  H   H3        1.0  0.97190  0.08912  0.83446  1.0000
  H   H4        1.0  0.88316  0.91100  0.66555  1.0000
  H   H5        1.0  0.40231  0.80835  0.21880  1.0000
  H   H6        1.0  0.59354  0.19148  0.28125  1.0000
  H   H7        1.0  0.59769  0.19165  0.78120  1.0000
  H   H8        1.0  0.40646  0.80852  0.71875  1.0000
  H   H9        1.0  0.89042  0.79876  0.27858  1.0000
  H   H10       1.0  0.09144  0.20129  0.22144  1.0000
  H   H11       1.0  0.10958  0.20124  0.72143  1.0000
  H   H12       1.0  0.90856  0.79871  0.77856  1.0000
  H   H13       1.0  0.24652  0.69320  0.32583  1.0000
  H   H14       1.0  0.55306  0.30667  0.17416  1.0000
  H   H15       1.0  0.75348  0.30680  0.67417  1.0000
  H   H16       1.0  0.44693  0.69333  0.82584  1.0000
  H   H17       1.0  0.42834  0.58867  0.04791  1.0000
  H   H18       1.0  0.83980  0.41137  0.45208  1.0000
  H   H19       1.0  0.57166  0.41133  0.95209  1.0000
  H   H20       1.0  0.16020  0.58863  0.54792  1.0000
  H   H21       1.0  0.12806  0.64267  0.87794  1.0000
  H   H22       1.0  0.48556  0.35738  0.62212  1.0000
  H   H23       1.0  0.87194  0.35733  0.12206  1.0000
  H   H24       1.0  0.51444  0.64262  0.37788  1.0000
  H   H25       1.0  0.04938  0.28645  0.94814  1.0000
  H   H26       1.0  0.76295  0.71358  0.55187  1.0000
  H   H27       1.0  0.95062  0.71355  0.05186  1.0000
  H   H28       1.0  0.23705  0.28642  0.44814  1.0000
  H   H29       1.0  0.97064  0.41351  0.86312  1.0000
  H   H30       1.0  0.55722  0.58652  0.63691  1.0000
  H   H31       1.0  0.02936  0.58649  0.13688  1.0000
  H   H32       1.0  0.44279  0.41348  0.36309  1.0000
  C   C1        1.0  0.22873  0.87140  0.18475  1.0000
  C   C2        1.0  0.35696  0.12845  0.31521  1.0000
  C   C3        1.0  0.77127  0.12860  0.81525  1.0000
  C   C4        1.0  0.64304  0.87155  0.68479  1.0000
  C   C5        1.0  0.08115  0.86509  0.20050  1.0000
  C   C6        1.0  0.21569  0.13477  0.29950  1.0000
  C   C7        1.0  0.91885  0.13491  0.79951  1.0000
  C   C8        1.0  0.78431  0.86523  0.70050  1.0000
  C   C9        1.0  0.96486  0.93025  0.98876  1.0000
  C   C10       1.0  0.03466  0.06976  0.51120  1.0000
  C   C11       1.0  0.03513  0.06976  0.01125  1.0000
  C   C12       1.0  0.96534  0.93024  0.48880  1.0000
  C   C13       1.0  0.28863  0.80708  0.22965  1.0000
  C   C14       1.0  0.48121  0.19278  0.27034  1.0000
  C   C15       1.0  0.71137  0.19293  0.77036  1.0000
  C   C16       1.0  0.51880  0.80722  0.72966  1.0000
  C   C17       1.0  0.22079  0.92924  0.74493  1.0000
  C   C18       1.0  0.29160  0.07082  0.75512  1.0000
  C   C19       1.0  0.77920  0.07076  0.25505  1.0000
  C   C20       1.0  0.70840  0.92918  0.24486  1.0000
  C   C21       1.0  0.00316  0.80171  0.26276  1.0000
  C   C22       1.0  0.20118  0.19824  0.23725  1.0000
  C   C23       1.0  0.99685  0.19829  0.73724  1.0000
  C   C24       1.0  0.79882  0.80176  0.76275  1.0000
  C   C25       1.0  0.32380  0.94588  0.12171  1.0000
  C   C26       1.0  0.37784  0.05407  0.37824  1.0000
  C   C27       1.0  0.67621  0.05411  0.87830  1.0000
  C   C28       1.0  0.62216  0.94593  0.62176  1.0000
  C   C29       1.0  0.20261  0.74368  0.28971  1.0000
  C   C30       1.0  0.45864  0.25621  0.21027  1.0000
  C   C31       1.0  0.79740  0.25632  0.71029  1.0000
  C   C32       1.0  0.54136  0.74379  0.78973  1.0000
  C   C33       1.0  0.38762  0.76470  0.97546  1.0000
  C   C34       1.0  0.62317  0.23533  0.52454  1.0000
  C   C35       1.0  0.61240  0.23530  0.02454  1.0000
  C   C36       1.0  0.37682  0.76467  0.47546  1.0000
  C   C37       1.0  0.29025  0.63011  0.96300  1.0000
  C   C38       1.0  0.66026  0.36992  0.53701  1.0000
  C   C39       1.0  0.70975  0.36988  0.03700  1.0000
  C   C40       1.0  0.33974  0.63008  0.46299  1.0000
  C   C41       1.0  0.32730  0.55209  0.00667  1.0000
  C   C42       1.0  0.77531  0.44797  0.49335  1.0000
  C   C43       1.0  0.67270  0.44791  0.99333  1.0000
  C   C44       1.0  0.22469  0.55203  0.50666  1.0000
  C   C45       1.0  0.15914  0.58139  0.91094  1.0000
  C   C46       1.0  0.57788  0.41864  0.58908  1.0000
  C   C47       1.0  0.84086  0.41861  0.08906  1.0000
  C   C48       1.0  0.42212  0.58136  0.41092  1.0000
  C   C49       1.0  0.11548  0.38428  0.95026  1.0000
  C   C50       1.0  0.73122  0.61573  0.54973  1.0000
  C   C51       1.0  0.88452  0.61571  0.04974  1.0000
  C   C52       1.0  0.26878  0.38427  0.45027  1.0000
  C   C53       1.0  0.07260  0.45607  0.90354  1.0000
  C   C54       1.0  0.61657  0.54395  0.59648  1.0000
  C   C55       1.0  0.92740  0.54392  0.09647  1.0000
  C   C56       1.0  0.38343  0.45605  0.40352  1.0000
  N   N1        1.0  0.06360  0.74284  0.30776  1.0000
  N   N2        1.0  0.32049  0.25708  0.19225  1.0000
  N   N3        1.0  0.93640  0.25716  0.69224  1.0000
  N   N4        1.0  0.67951  0.74292  0.80775  1.0000
  N   N5        1.0  0.24019  0.43165  0.00171  1.0000
  N   N6        1.0  0.80863  0.56839  0.49833  1.0000
  N   N7        1.0  0.75981  0.56835  0.99830  1.0000
  N   N8        1.0  0.19137  0.43161  0.50167  1.0000
  O   O1        1.0  0.21116  0.87867  0.80847  1.0000
  O   O2        1.0  0.33260  0.12137  0.69159  1.0000
  O   O3        1.0  0.78883  0.12133  0.19152  1.0000
  O   O4        1.0  0.66740  0.87863  0.30841  1.0000
  O   O5        1.0  0.03591  0.88435  0.94085  1.0000
  O   O6        1.0  0.15168  0.11568  0.55904  1.0000
  O   O7        1.0  0.96411  0.11565  0.05914  1.0000
  O   O8        1.0  0.84831  0.88431  0.44096  1.0000
  O   O9        1.0  0.25699  0.98628  0.07388  1.0000
  O   O10       1.0  0.27072  0.01345  0.42609  1.0000
  O   O11       1.0  0.74301  0.01371  0.92612  1.0000
  O   O12       1.0  0.72928  0.98655  0.57391  1.0000
  O   O13       1.0  0.17919  0.87603  0.67376  1.0000
  O   O14       1.0  0.30317  0.12405  0.82630  1.0000
  O   O15       1.0  0.82080  0.12397  0.32624  1.0000
  O   O16       1.0  0.69683  0.87595  0.17370  1.0000
  O   O17       1.0  0.46358  0.96114  0.12193  1.0000
  O   O18       1.0  0.50264  0.03921  0.37799  1.0000
  O   O19       1.0  0.53641  0.03885  0.87806  1.0000
  O   O20       1.0  0.49737  0.96079  0.62201  1.0000
  O   O21       1.0  0.83927  0.87156  0.02016  1.0000
  O   O22       1.0  0.96772  0.12842  0.47978  1.0000
  O   O23       1.0  0.16075  0.12845  0.97983  1.0000
  O   O24       1.0  0.03227  0.87158  0.52023  1.0000
  O   O25       1.0  0.32481  0.83342  0.95582  1.0000
  O   O26       1.0  0.49176  0.16649  0.54422  1.0000
  O   O27       1.0  0.67518  0.16658  0.04418  1.0000
  O   O28       1.0  0.50824  0.83352  0.45577  1.0000
  O   O29       1.0  0.52292  0.79771  0.00532  1.0000
  O   O30       1.0  0.72557  0.20246  0.49466  1.0000
  O   O31       1.0  0.47707  0.20229  0.99468  1.0000
  O   O32       1.0  0.27444  0.79754  0.50534  1.0000
