data_image0
_chemical_formula_structural       Ho4Ag4H32C56N8O32
_chemical_formula_sum              "Ho4 Ag4 H32 C56 N8 O32"
_cell_length_a       9.44819
_cell_length_b       11.9995
_cell_length_c       16.6365
_cell_angle_alpha    96.7419
_cell_angle_beta     89.9976
_cell_angle_gamma    113.202

_space_group_name_H-M_alt    "P 1"
_space_group_IT_number       1

loop_
  _space_group_symop_operation_xyz
  'x, y, z'

loop_
  _atom_site_type_symbol
  _atom_site_label
  _atom_site_symmetry_multiplicity
  _atom_site_fract_x
  _atom_site_fract_y
  _atom_site_fract_z
  _atom_site_occupancy
  Ho  Ho1       1.0  0.70802  0.00981  0.43276  1.0000
  Ho  Ho2       1.0  0.69818  0.99018  0.06722  1.0000
  Ho  Ho3       1.0  0.29199  0.99019  0.56724  1.0000
  Ho  Ho4       1.0  0.30181  0.00982  0.93278  1.0000
  Ag  Ag1       1.0  0.95608  0.67787  0.41531  1.0000
  Ag  Ag2       1.0  0.27818  0.32213  0.08462  1.0000
  Ag  Ag3       1.0  0.04390  0.32213  0.58469  1.0000
  Ag  Ag4       1.0  0.72182  0.67787  0.91538  1.0000
  H   H1        1.0  0.51536  0.64295  0.37718  1.0000
  H   H2        1.0  0.87254  0.35706  0.12278  1.0000
  H   H3        1.0  0.48464  0.35704  0.62282  1.0000
  H   H4        1.0  0.12746  0.64294  0.87722  1.0000
  H   H5        1.0  0.40650  0.81001  0.72024  1.0000
  H   H6        1.0  0.59648  0.18977  0.77979  1.0000
  H   H7        1.0  0.59350  0.19000  0.27976  1.0000
  H   H8        1.0  0.40352  0.81023  0.22022  1.0000
  H   H9        1.0  0.88396  0.91061  0.66492  1.0000
  H   H10       1.0  0.97336  0.08930  0.83516  1.0000
  H   H11       1.0  0.11605  0.08938  0.33508  1.0000
  H   H12       1.0  0.02664  0.91070  0.16484  1.0000
  H   H13       1.0  0.16190  0.59040  0.54866  1.0000
  H   H14       1.0  0.57175  0.40973  0.95135  1.0000
  H   H15       1.0  0.83809  0.40960  0.45133  1.0000
  H   H16       1.0  0.42824  0.59026  0.04865  1.0000
  H   H17       1.0  0.44394  0.41316  0.36191  1.0000
  H   H18       1.0  0.03106  0.58689  0.13818  1.0000
  H   H19       1.0  0.55605  0.58683  0.63809  1.0000
  H   H20       1.0  0.96893  0.41311  0.86182  1.0000
  H   H21       1.0  0.91107  0.79861  0.77774  1.0000
  H   H22       1.0  0.11263  0.20140  0.72240  1.0000
  H   H23       1.0  0.08893  0.20139  0.22227  1.0000
  H   H24       1.0  0.88737  0.79860  0.27760  1.0000
  H   H25       1.0  0.23881  0.28681  0.44757  1.0000
  H   H26       1.0  0.95246  0.71330  0.05245  1.0000
  H   H27       1.0  0.76118  0.71319  0.55243  1.0000
  H   H28       1.0  0.04754  0.28670  0.94755  1.0000
  H   H29       1.0  0.44875  0.69520  0.82696  1.0000
  H   H30       1.0  0.75363  0.30459  0.67312  1.0000
  H   H31       1.0  0.55125  0.30480  0.17304  1.0000
  H   H32       1.0  0.24636  0.69541  0.32688  1.0000
  C   C1        1.0  0.42327  0.58177  0.41039  1.0000
  C   C2        1.0  0.84177  0.41830  0.08957  1.0000
  C   C3        1.0  0.57673  0.41823  0.58961  1.0000
  C   C4        1.0  0.15823  0.58170  0.91043  1.0000
  C   C5        1.0  0.51926  0.80808  0.73039  1.0000
  C   C6        1.0  0.71116  0.19165  0.76965  1.0000
  C   C7        1.0  0.48074  0.19192  0.26961  1.0000
  C   C8        1.0  0.28884  0.80835  0.23036  1.0000
  C   C9        1.0  0.34081  0.63095  0.46291  1.0000
  C   C10       1.0  0.71017  0.36912  0.03701  1.0000
  C   C11       1.0  0.65919  0.36905  0.53709  1.0000
  C   C12       1.0  0.28983  0.63087  0.96300  1.0000
  C   C13       1.0  0.78523  0.86501  0.70017  1.0000
  C   C14       1.0  0.92026  0.13486  0.79990  1.0000
  C   C15       1.0  0.21477  0.13498  0.29983  1.0000
  C   C16       1.0  0.07975  0.86515  0.20010  1.0000
  C   C17       1.0  0.96499  0.93011  0.48880  1.0000
  C   C18       1.0  0.03496  0.06987  0.01128  1.0000
  C   C19       1.0  0.03504  0.06991  0.51120  1.0000
  C   C20       1.0  0.96502  0.93011  0.98873  1.0000
  C   C21       1.0  0.22629  0.55331  0.50707  1.0000
  C   C22       1.0  0.67327  0.44678  0.99292  1.0000
  C   C23       1.0  0.77371  0.44669  0.49293  1.0000
  C   C24       1.0  0.32672  0.55321  0.00708  1.0000
  C   C25       1.0  0.38473  0.45620  0.40281  1.0000
  C   C26       1.0  0.92885  0.54388  0.09721  1.0000
  C   C27       1.0  0.61527  0.54379  0.59719  1.0000
  C   C28       1.0  0.07115  0.45613  0.90280  1.0000
  C   C29       1.0  0.37724  0.76574  0.47513  1.0000
  C   C30       1.0  0.61195  0.23430  0.02471  1.0000
  C   C31       1.0  0.62276  0.23426  0.52487  1.0000
  C   C32       1.0  0.38806  0.76570  0.97530  1.0000
  C   C33       1.0  0.62176  0.94587  0.62199  1.0000
  C   C34       1.0  0.67584  0.05377  0.87801  1.0000
  C   C35       1.0  0.37824  0.05414  0.37802  1.0000
  C   C36       1.0  0.32417  0.94623  0.12200  1.0000
  C   C37       1.0  0.80071  0.80173  0.76225  1.0000
  C   C38       1.0  0.99908  0.19819  0.73785  1.0000
  C   C39       1.0  0.19929  0.19826  0.23775  1.0000
  C   C40       1.0  0.00092  0.80182  0.26216  1.0000
  C   C41       1.0  0.27048  0.38480  0.44995  1.0000
  C   C42       1.0  0.88607  0.61529  0.05005  1.0000
  C   C43       1.0  0.72951  0.61519  0.55005  1.0000
  C   C44       1.0  0.11393  0.38471  0.94995  1.0000
  C   C45       1.0  0.70781  0.92906  0.24447  1.0000
  C   C46       1.0  0.77879  0.07076  0.25545  1.0000
  C   C47       1.0  0.29220  0.07095  0.75552  1.0000
  C   C48       1.0  0.22121  0.92925  0.74455  1.0000
  C   C49       1.0  0.54276  0.74484  0.79028  1.0000
  C   C50       1.0  0.79798  0.25495  0.70978  1.0000
  C   C51       1.0  0.45724  0.25516  0.20971  1.0000
  C   C52       1.0  0.20201  0.74505  0.29023  1.0000
  C   C53       1.0  0.64324  0.87160  0.68491  1.0000
  C   C54       1.0  0.77160  0.12813  0.81512  1.0000
  C   C55       1.0  0.35676  0.12841  0.31509  1.0000
  C   C56       1.0  0.22840  0.87187  0.18489  1.0000
  N   N1        1.0  0.19347  0.43273  0.50201  1.0000
  N   N2        1.0  0.76109  0.56738  0.99802  1.0000
  N   N3        1.0  0.80653  0.56727  0.49799  1.0000
  N   N4        1.0  0.23891  0.43262  0.00198  1.0000
  N   N5        1.0  0.68150  0.74329  0.80757  1.0000
  N   N6        1.0  0.93831  0.25657  0.69251  1.0000
  N   N7        1.0  0.31849  0.25671  0.19243  1.0000
  N   N8        1.0  0.06168  0.74344  0.30750  1.0000
  O   O1        1.0  0.84732  0.88371  0.44064  1.0000
  O   O2        1.0  0.96377  0.11619  0.05952  1.0000
  O   O3        1.0  0.15270  0.11630  0.55935  1.0000
  O   O4        1.0  0.03623  0.88379  0.94048  1.0000
  O   O5        1.0  0.66713  0.87846  0.30800  1.0000
  O   O6        1.0  0.78872  0.12140  0.19196  1.0000
  O   O7        1.0  0.33287  0.12155  0.69200  1.0000
  O   O8        1.0  0.21127  0.87861  0.80805  1.0000
  O   O9        1.0  0.72892  0.98628  0.57390  1.0000
  O   O10       1.0  0.74272  0.01351  0.92611  1.0000
  O   O11       1.0  0.27108  0.01373  0.42610  1.0000
  O   O12       1.0  0.25729  0.98649  0.07389  1.0000
  O   O13       1.0  0.50859  0.83469  0.45502  1.0000
  O   O14       1.0  0.67448  0.16546  0.04478  1.0000
  O   O15       1.0  0.49143  0.16531  0.54498  1.0000
  O   O16       1.0  0.32553  0.83454  0.95522  1.0000
  O   O17       1.0  0.49645  0.96091  0.62261  1.0000
  O   O18       1.0  0.53538  0.03847  0.87736  1.0000
  O   O19       1.0  0.50356  0.03909  0.37739  1.0000
  O   O20       1.0  0.46463  0.96153  0.12265  1.0000
  O   O21       1.0  0.27429  0.79872  0.50515  1.0000
  O   O22       1.0  0.47601  0.20122  0.99464  1.0000
  O   O23       1.0  0.72572  0.20129  0.49484  1.0000
  O   O24       1.0  0.52398  0.79877  0.00537  1.0000
  O   O25       1.0  0.69606  0.87561  0.17283  1.0000
  O   O26       1.0  0.82069  0.12419  0.32709  1.0000
  O   O27       1.0  0.30395  0.12440  0.82717  1.0000
  O   O28       1.0  0.17932  0.87582  0.67291  1.0000
  O   O29       1.0  0.03203  0.87159  0.52044  1.0000
  O   O30       1.0  0.16055  0.12844  0.97963  1.0000
  O   O31       1.0  0.96798  0.12842  0.47956  1.0000
  O   O32       1.0  0.83943  0.87154  0.02037  1.0000
