data_image0
_chemical_formula_structural       V2H32C52S4N4O6
_chemical_formula_sum              "V2 H32 C52 S4 N4 O6"
_cell_length_a       4.0781
_cell_length_b       14.7912
_cell_length_c       17.0637
_cell_angle_alpha    83.5422
_cell_angle_beta     83.1451
_cell_angle_gamma    82.0627

_space_group_name_H-M_alt    "P 1"
_space_group_IT_number       1

loop_
  _space_group_symop_operation_xyz
  'x, y, z'

loop_
  _atom_site_type_symbol
  _atom_site_label
  _atom_site_symmetry_multiplicity
  _atom_site_fract_x
  _atom_site_fract_y
  _atom_site_fract_z
  _atom_site_occupancy
  V   V1        1.0  0.21449  0.25001  0.75004  1.0000
  V   V2        1.0  0.78550  0.74998  0.24996  1.0000
  H   H1        1.0  0.55764  0.45917  0.56258  1.0000
  H   H2        1.0  0.58009  0.04114  0.93750  1.0000
  H   H3        1.0  0.44234  0.54084  0.43742  1.0000
  H   H4        1.0  0.41991  0.95886  0.06250  1.0000
  H   H5        1.0  0.93998  0.44270  0.43861  1.0000
  H   H6        1.0  0.82168  0.05761  0.06154  1.0000
  H   H7        1.0  0.05999  0.55731  0.56139  1.0000
  H   H8        1.0  0.17828  0.94238  0.93846  1.0000
  H   H9        1.0  0.15327  0.28656  0.39742  1.0000
  H   H10       1.0  0.83630  0.21381  0.10282  1.0000
  H   H11       1.0  0.84671  0.71345  0.60257  1.0000
  H   H12       1.0  0.16365  0.78619  0.89718  1.0000
  H   H13       1.0  0.98733  0.14978  0.48112  1.0000
  H   H14       1.0  0.61805  0.35052  0.01894  1.0000
  H   H15       1.0  0.01265  0.85023  0.51888  1.0000
  H   H16       1.0  0.38192  0.64947  0.98106  1.0000
  H   H17       1.0  0.94332  0.07326  0.80890  1.0000
  H   H18       1.0  0.82522  0.42668  0.69101  1.0000
  H   H19       1.0  0.05667  0.92674  0.19110  1.0000
  H   H20       1.0  0.17480  0.57332  0.30899  1.0000
  H   H21       1.0  0.82265  0.91141  0.82961  1.0000
  H   H22       1.0  0.56344  0.58853  0.67004  1.0000
  H   H23       1.0  0.17733  0.08858  0.17038  1.0000
  H   H24       1.0  0.43658  0.41147  0.32995  1.0000
  H   H25       1.0  0.09155  0.79812  0.73708  1.0000
  H   H26       1.0  0.62592  0.70195  0.76251  1.0000
  H   H27       1.0  0.90848  0.20188  0.26291  1.0000
  H   H28       1.0  0.37409  0.29805  0.23749  1.0000
  H   H29       1.0  0.47485  0.84587  0.61967  1.0000
  H   H30       1.0  0.93963  0.65444  0.87993  1.0000
  H   H31       1.0  0.52518  0.15412  0.38033  1.0000
  H   H32       1.0  0.06036  0.34556  0.12007  1.0000
  C   C1        1.0  0.54920  0.31475  0.59284  1.0000
  C   C2        1.0  0.45651  0.18550  0.90731  1.0000
  C   C3        1.0  0.45080  0.68526  0.40717  1.0000
  C   C4        1.0  0.54348  0.81450  0.09269  1.0000
  C   C5        1.0  0.65289  0.39165  0.54381  1.0000
  C   C6        1.0  0.58885  0.10866  0.95630  1.0000
  C   C7        1.0  0.34710  0.60836  0.45619  1.0000
  C   C8        1.0  0.41114  0.89134  0.04369  1.0000
  C   C9        1.0  0.86489  0.38195  0.47485  1.0000
  C   C10       1.0  0.72208  0.11838  0.02529  1.0000
  C   C11       1.0  0.13509  0.61806  0.52515  1.0000
  C   C12       1.0  0.27789  0.88162  0.97471  1.0000
  C   C13       1.0  0.98533  0.29426  0.45148  1.0000
  C   C14       1.0  0.73095  0.20609  0.04865  1.0000
  C   C15       1.0  0.01466  0.70575  0.54852  1.0000
  C   C16       1.0  0.26903  0.79391  0.95135  1.0000
  C   C17       1.0  0.89147  0.21801  0.49884  1.0000
  C   C18       1.0  0.60833  0.28230  0.00121  1.0000
  C   C19       1.0  0.10853  0.78200  0.50116  1.0000
  C   C20       1.0  0.39165  0.71770  0.99880  1.0000
  C   C21       1.0  0.67442  0.22548  0.56951  1.0000
  C   C22       1.0  0.46936  0.27481  0.93054  1.0000
  C   C23       1.0  0.32557  0.77453  0.43049  1.0000
  C   C24       1.0  0.53063  0.72518  0.06946  1.0000
  C   C25       1.0  0.56289  0.14410  0.61301  1.0000
  C   C26       1.0  0.31965  0.35616  0.88699  1.0000
  C   C27       1.0  0.43713  0.85590  0.38699  1.0000
  C   C28       1.0  0.68035  0.64384  0.11301  1.0000
  C   C29       1.0  0.42622  0.98606  0.65011  1.0000
  C   C30       1.0  0.06180  0.51413  0.84975  1.0000
  C   C31       1.0  0.57382  0.01394  0.34989  1.0000
  C   C32       1.0  0.93819  0.48587  0.15025  1.0000
  C   C33       1.0  0.28109  0.05080  0.70332  1.0000
  C   C34       1.0  0.03451  0.44929  0.79663  1.0000
  C   C35       1.0  0.71894  0.94920  0.29669  1.0000
  C   C36       1.0  0.96550  0.55071  0.20337  1.0000
  C   C37       1.0  0.06277  0.02351  0.76885  1.0000
  C   C38       1.0  0.85453  0.47648  0.73104  1.0000
  C   C39       1.0  0.93723  0.97649  0.23115  1.0000
  C   C40       1.0  0.14550  0.52352  0.26896  1.0000
  C   C41       1.0  0.99910  0.93268  0.78005  1.0000
  C   C42       1.0  0.71122  0.56733  0.71971  1.0000
  C   C43       1.0  0.00092  0.06732  0.21995  1.0000
  C   C44       1.0  0.28881  0.43267  0.28029  1.0000
  C   C45       1.0  0.14910  0.86863  0.72751  1.0000
  C   C46       1.0  0.74441  0.63144  0.77221  1.0000
  C   C47       1.0  0.85093  0.13136  0.27249  1.0000
  C   C48       1.0  0.25561  0.36857  0.22780  1.0000
  C   C49       1.0  0.36400  0.89472  0.66162  1.0000
  C   C50       1.0  0.91949  0.60545  0.83812  1.0000
  C   C51       1.0  0.63602  0.10527  0.33837  1.0000
  C   C52       1.0  0.08052  0.39455  0.16188  1.0000
  S   S1        1.0  0.66381  0.03923  0.57252  1.0000
  S   S2        1.0  0.27541  0.46111  0.92734  1.0000
  S   S3        1.0  0.33623  0.96077  0.42749  1.0000
  S   S4        1.0  0.72459  0.53889  0.07266  1.0000
  N   N1        1.0  0.36767  0.13870  0.68129  1.0000
  N   N2        1.0  0.18701  0.36141  0.81876  1.0000
  N   N3        1.0  0.63235  0.86129  0.31871  1.0000
  N   N4        1.0  0.81299  0.63859  0.18124  1.0000
  O   O1        1.0  0.81550  0.24979  0.75002  1.0000
  O   O2        1.0  0.18450  0.75021  0.24997  1.0000
  O   O3        1.0  0.34062  0.32964  0.65620  1.0000
  O   O4        1.0  0.32570  0.17053  0.84403  1.0000
  O   O5        1.0  0.65937  0.67036  0.34381  1.0000
  O   O6        1.0  0.67429  0.82947  0.15597  1.0000
