data_image0
_chemical_formula_structural       La2H14C24N4O14
_chemical_formula_sum              "La2 H14 C24 N4 O14"
_cell_length_a       6.9071
_cell_length_b       10.2941
_cell_length_c       10.2942
_cell_angle_alpha    62.152
_cell_angle_beta     72.1069
_cell_angle_gamma    72.1069

_space_group_name_H-M_alt    "P 1"
_space_group_IT_number       1

loop_
  _space_group_symop_operation_xyz
  'x, y, z'

loop_
  _atom_site_type_symbol
  _atom_site_label
  _atom_site_symmetry_multiplicity
  _atom_site_fract_x
  _atom_site_fract_y
  _atom_site_fract_z
  _atom_site_occupancy
  La  La1       1.0  0.25174  0.00363  0.49814  1.0000
  La  La2       1.0  0.75175  0.49814  0.00363  1.0000
  H   H1        1.0  0.74720  0.18138  0.00288  1.0000
  H   H2        1.0  0.24720  0.00288  0.18138  1.0000
  H   H3        1.0  0.68468  0.00261  0.27574  1.0000
  H   H4        1.0  0.18468  0.27574  0.00261  1.0000
  H   H5        1.0  0.75265  0.94720  0.43060  1.0000
  H   H6        1.0  0.25265  0.43060  0.94720  1.0000
  H   H7        1.0  0.74255  0.56088  0.40791  1.0000
  H   H8        1.0  0.24255  0.40791  0.56088  1.0000
  H   H9        1.0  0.67109  0.55463  0.66442  1.0000
  H   H10       1.0  0.17109  0.66442  0.55463  1.0000
  H   H11       1.0  0.85768  0.78933  0.21514  1.0000
  H   H12       1.0  0.35768  0.21514  0.78933  1.0000
  H   H13       1.0  0.12530  0.61709  0.10661  1.0000
  H   H14       1.0  0.62529  0.10661  0.61709  1.0000
  C   C1        1.0  0.90029  0.32987  0.47925  1.0000
  C   C2        1.0  0.40029  0.47925  0.32987  1.0000
  C   C3        1.0  0.79247  0.45943  0.50180  1.0000
  C   C4        1.0  0.29247  0.50180  0.45943  1.0000
  C   C5        1.0  0.75301  0.45536  0.64339  1.0000
  C   C6        1.0  0.25301  0.64339  0.45536  1.0000
  C   C7        1.0  0.81632  0.32112  0.76381  1.0000
  C   C8        1.0  0.31632  0.76381  0.32112  1.0000
  C   C9        1.0  0.91430  0.19021  0.73421  1.0000
  C   C10       1.0  0.41430  0.73421  0.19021  1.0000
  C   C11       1.0  0.95277  0.32805  0.32743  1.0000
  C   C12       1.0  0.45277  0.32743  0.32804  1.0000
  C   C13       1.0  0.97132  0.03631  0.84937  1.0000
  C   C14       1.0  0.47132  0.84937  0.03632  1.0000
  C   C15       1.0  0.87922  0.98247  0.00596  1.0000
  C   C16       1.0  0.37922  0.00596  0.98247  1.0000
  C   C17       1.0  0.93336  0.82961  0.09740  1.0000
  C   C18       1.0  0.43335  0.09740  0.82961  1.0000
  C   C19       1.0  0.07886  0.73530  0.03819  1.0000
  C   C20       1.0  0.57885  0.03819  0.73530  1.0000
  C   C21       1.0  0.16829  0.79531  0.88605  1.0000
  C   C22       1.0  0.66829  0.88605  0.79530  1.0000
  C   C23       1.0  0.33840  0.70131  0.81770  1.0000
  C   C24       1.0  0.83840  0.81769  0.70131  1.0000
  N   N1        1.0  0.95922  0.20089  0.59272  1.0000
  N   N2        1.0  0.45922  0.59272  0.20089  1.0000
  N   N3        1.0  0.11180  0.93981  0.79513  1.0000
  N   N4        1.0  0.61180  0.79513  0.93981  1.0000
  O   O1        1.0  0.05614  0.20760  0.31344  1.0000
  O   O2        1.0  0.55614  0.31344  0.20760  1.0000
  O   O3        1.0  0.88925  0.44746  0.22017  1.0000
  O   O4        1.0  0.38924  0.22017  0.44746  1.0000
  O   O5        1.0  0.39933  0.75766  0.67621  1.0000
  O   O6        1.0  0.89933  0.67622  0.75766  1.0000
  O   O7        1.0  0.41810  0.57130  0.90519  1.0000
  O   O8        1.0  0.91810  0.90519  0.57130  1.0000
  O   O9        1.0  0.78666  0.31911  0.89786  1.0000
  O   O10       1.0  0.28667  0.89786  0.31911  1.0000
  O   O11       1.0  0.73656  0.06677  0.07101  1.0000
  O   O12       1.0  0.23656  0.07101  0.06677  1.0000
  O   O13       1.0  0.64703  0.94593  0.38529  1.0000
  O   O14       1.0  0.14703  0.38529  0.94593  1.0000
