data_image0
_chemical_formula_structural       Cu3P4H26C10N4O20
_chemical_formula_sum              "Cu3 P4 H26 C10 N4 O20"
_cell_length_a       7.96943
_cell_length_b       9.68872
_cell_length_c       10.0882
_cell_angle_alpha    92.9914
_cell_angle_beta     112.834
_cell_angle_gamma    100.829

_space_group_name_H-M_alt    "P 1"
_space_group_IT_number       1

loop_
  _space_group_symop_operation_xyz
  'x, y, z'

loop_
  _atom_site_type_symbol
  _atom_site_label
  _atom_site_symmetry_multiplicity
  _atom_site_fract_x
  _atom_site_fract_y
  _atom_site_fract_z
  _atom_site_occupancy
  Cu  Cu1       1.0  0.49852  0.50049  0.00008  1.0000
  Cu  Cu2       1.0  0.81137  0.61198  0.67073  1.0000
  Cu  Cu3       1.0  0.18736  0.38729  0.32925  1.0000
  P   P1        1.0  0.65672  0.74330  0.85746  1.0000
  P   P2        1.0  0.34316  0.25603  0.14320  1.0000
  P   P3        1.0  0.38436  0.48520  0.65731  1.0000
  P   P4        1.0  0.61420  0.51557  0.34211  1.0000
  H   H1        1.0  0.44851  0.21852  0.66585  1.0000
  H   H2        1.0  0.55622  0.78333  0.33714  1.0000
  H   H3        1.0  0.37625  0.94058  0.52682  1.0000
  H   H4        1.0  0.62825  0.06138  0.47527  1.0000
  H   H5        1.0  0.27649  0.92544  0.90981  1.0000
  H   H6        1.0  0.72314  0.07557  0.09021  1.0000
  H   H7        1.0  0.15616  0.69580  0.57982  1.0000
  H   H8        1.0  0.84469  0.30653  0.41968  1.0000
  H   H9        1.0  0.23908  0.69458  0.77109  1.0000
  H   H10       1.0  0.76026  0.30657  0.22820  1.0000
  H   H11       1.0  0.37669  0.18759  0.89183  1.0000
  H   H12       1.0  0.62441  0.81358  0.10929  1.0000
  H   H13       1.0  0.46418  0.66009  0.48655  1.0000
  H   H14       1.0  0.53462  0.34026  0.51320  1.0000
  H   H15       1.0  0.05077  0.43969  0.70864  1.0000
  H   H16       1.0  0.94617  0.55954  0.28685  1.0000
  H   H17       1.0  0.06079  0.50763  0.85727  1.0000
  H   H18       1.0  0.93672  0.48891  0.13954  1.0000
  H   H19       1.0  0.84753  0.87842  0.74940  1.0000
  H   H20       1.0  0.15388  0.12096  0.25360  1.0000
  H   H21       1.0  0.82437  0.86051  0.58667  1.0000
  H   H22       1.0  0.17852  0.13989  0.41653  1.0000
  H   H23       1.0  0.81737  0.34907  0.92724  1.0000
  H   H24       1.0  0.17988  0.64678  0.06941  1.0000
  H   H25       1.0  0.79095  0.50582  0.92363  1.0000
  H   H26       1.0  0.20509  0.48983  0.07416  1.0000
  C   C1        1.0  0.39709  0.11587  0.69097  1.0000
  C   C2        1.0  0.60675  0.88575  0.31121  1.0000
  C   C3        1.0  0.36291  0.98108  0.62323  1.0000
  C   C4        1.0  0.64053  0.02066  0.37848  1.0000
  C   C5        1.0  0.31390  0.96612  0.82454  1.0000
  C   C6        1.0  0.68705  0.03506  0.17611  1.0000
  C   C7        1.0  0.27616  0.73471  0.68422  1.0000
  C   C8        1.0  0.72432  0.26676  0.31568  1.0000
  C   C9        1.0  0.44558  0.68171  0.68254  1.0000
  C   C10       1.0  0.55454  0.31895  0.31771  1.0000
  N   N1        1.0  0.31246  0.88941  0.70909  1.0000
  N   N2        1.0  0.68929  0.11208  0.29171  1.0000
  N   N3        1.0  0.36427  0.10321  0.81461  1.0000
  N   N4        1.0  0.63791  0.89803  0.18683  1.0000
  O   O1        1.0  0.49655  0.73611  0.57124  1.0000
  O   O2        1.0  0.50436  0.26398  0.42907  1.0000
  O   O3        1.0  0.73085  0.90023  0.86661  1.0000
  O   O4        1.0  0.27129  0.09893  0.13456  1.0000
  O   O5        1.0  0.80206  0.65437  0.85689  1.0000
  O   O6        1.0  0.19606  0.34337  0.14392  1.0000
  O   O7        1.0  0.58944  0.69928  0.97788  1.0000
  O   O8        1.0  0.40839  0.30147  0.02218  1.0000
  O   O9        1.0  0.55139  0.43936  0.64288  1.0000
  O   O10       1.0  0.44612  0.56096  0.35487  1.0000
  O   O11       1.0  0.34681  0.44187  0.78969  1.0000
  O   O12       1.0  0.65320  0.55755  0.20970  1.0000
  O   O13       1.0  0.19882  0.43078  0.52093  1.0000
  O   O14       1.0  0.79924  0.57283  0.47816  1.0000
  O   O15       1.0  0.97029  0.46456  0.75451  1.0000
  O   O16       1.0  0.02696  0.53336  0.24189  1.0000
  O   O17       1.0  0.89919  0.83911  0.68246  1.0000
  O   O18       1.0  0.10282  0.16064  0.32064  1.0000
  O   O19       1.0  0.78803  0.42228  0.97896  1.0000
  O   O20       1.0  0.20869  0.57282  0.01817  1.0000
