data_image0
_chemical_formula_structural       ZnMo8H30C30N16O28
_chemical_formula_sum              "Zn1 Mo8 H30 C30 N16 O28"
_cell_length_a       7.2675
_cell_length_b       10.5108
_cell_length_c       16.408
_cell_angle_alpha    96.043
_cell_angle_beta     93.6363
_cell_angle_gamma    95.7588

_space_group_name_H-M_alt    "P 1"
_space_group_IT_number       1

loop_
  _space_group_symop_operation_xyz
  'x, y, z'

loop_
  _atom_site_type_symbol
  _atom_site_label
  _atom_site_symmetry_multiplicity
  _atom_site_fract_x
  _atom_site_fract_y
  _atom_site_fract_z
  _atom_site_occupancy
  Zn  Zn1       1.0  0.00000  0.50000  0.50000  1.0000
  Mo  Mo1       1.0  0.34956  0.66209  0.38778  1.0000
  Mo  Mo2       1.0  0.65044  0.33791  0.61222  1.0000
  Mo  Mo3       1.0  0.36829  0.73478  0.58675  1.0000
  Mo  Mo4       1.0  0.63171  0.26522  0.41325  1.0000
  Mo  Mo5       1.0  0.27204  0.97054  0.45522  1.0000
  Mo  Mo6       1.0  0.72796  0.02946  0.54478  1.0000
  Mo  Mo7       1.0  0.62003  0.97005  0.33100  1.0000
  Mo  Mo8       1.0  0.37997  0.02995  0.66900  1.0000
  H   H1        1.0  0.29917  0.83759  0.22681  1.0000
  H   H2        1.0  0.70083  0.16241  0.77319  1.0000
  H   H3        1.0  0.88860  0.57012  0.30202  1.0000
  H   H4        1.0  0.11141  0.42988  0.69798  1.0000
  H   H5        1.0  0.64129  0.57621  0.18044  1.0000
  H   H6        1.0  0.35871  0.42379  0.81956  1.0000
  H   H7        1.0  0.65630  0.74391  0.16134  1.0000
  H   H8        1.0  0.34370  0.25610  0.83866  1.0000
  H   H9        1.0  0.80755  0.54026  0.79052  1.0000
  H   H10       1.0  0.19245  0.45974  0.20948  1.0000
  H   H11       1.0  0.88554  0.65887  0.66872  1.0000
  H   H12       1.0  0.11446  0.34113  0.33128  1.0000
  H   H13       1.0  0.87987  0.90628  0.94145  1.0000
  H   H14       1.0  0.12012  0.09372  0.05855  1.0000
  H   H15       1.0  0.95180  0.01157  0.81347  1.0000
  H   H16       1.0  0.04820  0.98843  0.18653  1.0000
  H   H17       1.0  0.74769  0.27558  0.93319  1.0000
  H   H18       1.0  0.25231  0.72442  0.06681  1.0000
  H   H19       1.0  0.67478  0.05699  0.98006  1.0000
  H   H20       1.0  0.32523  0.94301  0.01994  1.0000
  H   H21       1.0  0.60279  0.24937  0.21972  1.0000
  H   H22       1.0  0.39720  0.75063  0.78028  1.0000
  H   H23       1.0  0.60133  0.04579  0.12843  1.0000
  H   H24       1.0  0.39868  0.95421  0.87157  1.0000
  H   H25       1.0  0.93589  0.88582  0.68858  1.0000
  H   H26       1.0  0.06412  0.11418  0.31142  1.0000
  H   H27       1.0  0.26169  0.32490  0.50961  1.0000
  H   H28       1.0  0.73831  0.67510  0.49039  1.0000
  H   H29       1.0  0.05304  0.25718  0.51673  1.0000
  H   H30       1.0  0.94695  0.74281  0.48327  1.0000
  C   C1        1.0  0.17269  0.77323  0.22767  1.0000
  C   C2        1.0  0.82731  0.22677  0.77233  1.0000
  C   C3        1.0  0.96631  0.63750  0.26778  1.0000
  C   C4        1.0  0.03369  0.36250  0.73222  1.0000
  C   C5        1.0  0.72052  0.65389  0.15418  1.0000
  C   C6        1.0  0.27948  0.34611  0.84582  1.0000
  C   C7        1.0  0.79249  0.64955  0.94626  1.0000
  C   C8        1.0  0.20751  0.35045  0.05374  1.0000
  C   C9        1.0  0.83750  0.71486  0.87486  1.0000
  C   C10       1.0  0.16249  0.28514  0.12514  1.0000
  C   C11       1.0  0.84204  0.64399  0.79789  1.0000
  C   C12       1.0  0.15795  0.35601  0.20211  1.0000
  C   C13       1.0  0.88285  0.70764  0.73045  1.0000
  C   C14       1.0  0.11715  0.29237  0.26955  1.0000
  C   C15       1.0  0.87870  0.84930  0.88208  1.0000
  C   C16       1.0  0.12129  0.15070  0.11792  1.0000
  C   C17       1.0  0.91815  0.90821  0.81304  1.0000
  C   C18       1.0  0.08185  0.09179  0.18696  1.0000
  C   C19       1.0  0.74114  0.50069  0.02277  1.0000
  C   C20       1.0  0.25886  0.49931  0.97723  1.0000
  C   C21       1.0  0.70871  0.37390  0.05198  1.0000
  C   C22       1.0  0.29129  0.62610  0.94802  1.0000
  C   C23       1.0  0.71302  0.26438  0.99568  1.0000
  C   C24       1.0  0.28698  0.73562  0.00432  1.0000
  C   C25       1.0  0.67458  0.14409  0.02253  1.0000
  C   C26       1.0  0.32542  0.85591  0.97747  1.0000
  C   C27       1.0  0.63531  0.25158  0.15586  1.0000
  C   C28       1.0  0.36469  0.74843  0.84414  1.0000
  C   C29       1.0  0.63410  0.13704  0.10396  1.0000
  C   C30       1.0  0.36590  0.86296  0.89605  1.0000
  N   N1        1.0  0.13768  0.69671  0.28849  1.0000
  N   N2        1.0  0.86232  0.30329  0.71151  1.0000
  N   N3        1.0  0.03368  0.76435  0.17094  1.0000
  N   N4        1.0  0.96632  0.23565  0.82906  1.0000
  N   N5        1.0  0.90505  0.67705  0.19681  1.0000
  N   N6        1.0  0.09495  0.32295  0.80320  1.0000
  N   N7        1.0  0.73495  0.61862  0.06720  1.0000
  N   N8        1.0  0.26505  0.38138  0.93280  1.0000
  N   N9        1.0  0.76800  0.71388  0.01888  1.0000
  N   N10       1.0  0.23200  0.28612  0.98112  1.0000
  N   N11       1.0  0.77570  0.51893  0.94577  1.0000
  N   N12       1.0  0.22429  0.48107  0.05423  1.0000
  N   N13       1.0  0.91840  0.83655  0.74000  1.0000
  N   N14       1.0  0.08160  0.16345  0.26000  1.0000
  N   N15       1.0  0.67214  0.36836  0.13111  1.0000
  N   N16       1.0  0.32786  0.63164  0.86889  1.0000
  O   O1        1.0  0.17328  0.54255  0.40545  1.0000
  O   O2        1.0  0.82672  0.45745  0.59455  1.0000
  O   O3        1.0  0.48097  0.59119  0.31698  1.0000
  O   O4        1.0  0.51903  0.40881  0.68302  1.0000
  O   O5        1.0  0.49462  0.67353  0.48810  1.0000
  O   O6        1.0  0.50538  0.32647  0.51190  1.0000
  O   O7        1.0  0.20302  0.60074  0.58465  1.0000
  O   O8        1.0  0.79698  0.39926  0.41535  1.0000
  O   O9        1.0  0.53846  0.71157  0.65825  1.0000
  O   O10       1.0  0.46153  0.28843  0.34175  1.0000
  O   O11       1.0  0.19913  0.79974  0.47310  1.0000
  O   O12       1.0  0.80087  0.20026  0.52690  1.0000
  O   O13       1.0  0.21150  0.06115  0.54332  1.0000
  O   O14       1.0  0.78850  0.93885  0.45668  1.0000
  O   O15       1.0  0.49948  0.07629  0.43817  1.0000
  O   O16       1.0  0.50052  0.92371  0.56183  1.0000
  O   O17       1.0  0.12554  0.00487  0.37622  1.0000
  O   O18       1.0  0.87446  0.99513  0.62378  1.0000
  O   O19       1.0  0.75758  0.13957  0.35230  1.0000
  O   O20       1.0  0.24242  0.86043  0.64770  1.0000
  O   O21       1.0  0.47793  0.00052  0.24827  1.0000
  O   O22       1.0  0.52207  0.99948  0.75173  1.0000
  O   O23       1.0  0.77573  0.87743  0.28705  1.0000
  O   O24       1.0  0.22427  0.12257  0.71295  1.0000
  O   O25       1.0  0.43852  0.84797  0.37259  1.0000
  O   O26       1.0  0.56148  0.15203  0.62742  1.0000
  O   O27       1.0  0.12772  0.33026  0.49778  1.0000
  O   O28       1.0  0.87228  0.66974  0.50222  1.0000
