data_image0
_chemical_formula_structural       H36Ru2C24ClO8
_chemical_formula_sum              "H36 Ru2 C24 Cl1 O8"
_cell_length_a       7.37595
_cell_length_b       9.52356
_cell_length_c       9.93855
_cell_angle_alpha    92.2062
_cell_angle_beta     97.0697
_cell_angle_gamma    99.2728

_space_group_name_H-M_alt    "P 1"
_space_group_IT_number       1

loop_
  _space_group_symop_operation_xyz
  'x, y, z'

loop_
  _atom_site_type_symbol
  _atom_site_label
  _atom_site_symmetry_multiplicity
  _atom_site_fract_x
  _atom_site_fract_y
  _atom_site_fract_z
  _atom_site_occupancy
  H   H1        1.0  0.62939  0.57981  0.06989  1.0000
  H   H2        1.0  0.37061  0.42020  0.93012  1.0000
  H   H3        1.0  0.60253  0.31074  0.05723  1.0000
  H   H4        1.0  0.39746  0.68926  0.94278  1.0000
  H   H5        1.0  0.78845  0.32098  0.18719  1.0000
  H   H6        1.0  0.21155  0.67902  0.81283  1.0000
  H   H7        1.0  0.47664  0.25384  0.26701  1.0000
  H   H8        1.0  0.52337  0.74616  0.73300  1.0000
  H   H9        1.0  0.41540  0.41881  0.21947  1.0000
  H   H10       1.0  0.58459  0.58119  0.78056  1.0000
  H   H11       1.0  0.59818  0.41626  0.35319  1.0000
  H   H12       1.0  0.40182  0.58374  0.64682  1.0000
  H   H13       1.0  0.20525  0.60244  0.19232  1.0000
  H   H14       1.0  0.79476  0.39755  0.80768  1.0000
  H   H15       1.0  0.08090  0.42696  0.15438  1.0000
  H   H16       1.0  0.91909  0.57304  0.84561  1.0000
  H   H17       1.0  0.06636  0.51871  0.30967  1.0000
  H   H18       1.0  0.93365  0.48129  0.69033  1.0000
  H   H19       1.0  0.35970  0.10892  0.42111  1.0000
  H   H20       1.0  0.64029  0.89108  0.57888  1.0000
  H   H21       1.0  0.20322  0.15507  0.67771  1.0000
  H   H22       1.0  0.79679  0.84492  0.32229  1.0000
  H   H23       1.0  0.30527  0.31921  0.62778  1.0000
  H   H24       1.0  0.69472  0.68078  0.37221  1.0000
  H   H25       1.0  0.53255  0.21477  0.78503  1.0000
  H   H26       1.0  0.46747  0.78524  0.21496  1.0000
  H   H27       1.0  0.60918  0.22469  0.62191  1.0000
  H   H28       1.0  0.39082  0.77532  0.37807  1.0000
  H   H29       1.0  0.50271  0.05984  0.67780  1.0000
  H   H30       1.0  0.49731  0.94016  0.32218  1.0000
  H   H31       1.0  0.81126  0.20177  0.38684  1.0000
  H   H32       1.0  0.18874  0.79824  0.61316  1.0000
  H   H33       1.0  0.97938  0.32885  0.49075  1.0000
  H   H34       1.0  0.02063  0.67115  0.50924  1.0000
  H   H35       1.0  0.90527  0.15953  0.55074  1.0000
  H   H36       1.0  0.09473  0.84049  0.44926  1.0000
  Ru  Ru1       1.0  0.15646  0.99518  0.00365  1.0000
  Ru  Ru2       1.0  0.84355  0.00482  0.99635  1.0000
  C   C1        1.0  0.94501  0.73895  0.08811  1.0000
  C   C2        1.0  0.05498  0.26104  0.91189  1.0000
  C   C3        1.0  0.91184  0.59326  0.13609  1.0000
  C   C4        1.0  0.08816  0.40674  0.86391  1.0000
  C   C5        1.0  0.73574  0.52228  0.11617  1.0000
  C   C6        1.0  0.26425  0.47771  0.88384  1.0000
  C   C7        1.0  0.67176  0.37358  0.15036  1.0000
  C   C8        1.0  0.32823  0.62642  0.84966  1.0000
  C   C9        1.0  0.53287  0.36546  0.25393  1.0000
  C   C10       1.0  0.46713  0.63454  0.74608  1.0000
  C   C11       1.0  0.07503  0.53207  0.20099  1.0000
  C   C12       1.0  0.92497  0.46792  0.79900  1.0000
  C   C13       1.0  0.05963  0.10345  0.25618  1.0000
  C   C14       1.0  0.94036  0.89655  0.74382  1.0000
  C   C15       1.0  0.09105  0.15813  0.39936  1.0000
  C   C16       1.0  0.90894  0.84188  0.60064  1.0000
  C   C17       1.0  0.25711  0.15354  0.47223  1.0000
  C   C18       1.0  0.74287  0.84646  0.52777  1.0000
  C   C19       1.0  0.31015  0.20396  0.61763  1.0000
  C   C20       1.0  0.68985  0.79603  0.38235  1.0000
  C   C21       1.0  0.49929  0.17471  0.67852  1.0000
  C   C22       1.0  0.50072  0.82530  0.32146  1.0000
  C   C23       1.0  0.93787  0.21481  0.45938  1.0000
  C   C24       1.0  0.06214  0.78520  0.54063  1.0000
  Cl  Cl1       1.0  0.50000  1.00000  1.00000  1.0000
  O   O1        1.0  0.11158  0.79550  0.07235  1.0000
  O   O2        1.0  0.88842  0.20450  0.92765  1.0000
  O   O3        1.0  0.19398  0.19545  0.93851  1.0000
  O   O4        1.0  0.80601  0.80454  0.06149  1.0000
  O   O5        1.0  0.19764  0.07330  0.19914  1.0000
  O   O6        1.0  0.80235  0.92670  0.80084  1.0000
  O   O7        1.0  0.10628  0.91345  0.80792  1.0000
  O   O8        1.0  0.89372  0.08655  0.19209  1.0000
