data_image0
_chemical_formula_structural       Ni2H44C28N8O12
_chemical_formula_sum              "Ni2 H44 C28 N8 O12"
_cell_length_a       9.04065
_cell_length_b       9.04068
_cell_length_c       11.5196
_cell_angle_alpha    69.4998
_cell_angle_beta     69.5005
_cell_angle_gamma    79.307

_space_group_name_H-M_alt    "P 1"
_space_group_IT_number       1

loop_
  _space_group_symop_operation_xyz
  'x, y, z'

loop_
  _atom_site_type_symbol
  _atom_site_label
  _atom_site_symmetry_multiplicity
  _atom_site_fract_x
  _atom_site_fract_y
  _atom_site_fract_z
  _atom_site_occupancy
  Ni  Ni1       1.0  0.44944  0.55057  0.75000  1.0000
  Ni  Ni2       1.0  0.55056  0.44943  0.25000  1.0000
  H   H1        1.0  0.90362  0.39391  0.47822  1.0000
  H   H2        1.0  0.60605  0.09637  0.02181  1.0000
  H   H3        1.0  0.09636  0.60605  0.52181  1.0000
  H   H4        1.0  0.39393  0.90363  0.97820  1.0000
  H   H5        1.0  0.89163  0.59816  0.41747  1.0000
  H   H6        1.0  0.40179  0.10836  0.08253  1.0000
  H   H7        1.0  0.10836  0.40179  0.58254  1.0000
  H   H8        1.0  0.59818  0.89164  0.91747  1.0000
  H   H9        1.0  0.35544  0.70374  0.48829  1.0000
  H   H10       1.0  0.29627  0.64457  0.01172  1.0000
  H   H11       1.0  0.64455  0.29626  0.51172  1.0000
  H   H12       1.0  0.70374  0.35544  0.98827  1.0000
  H   H13       1.0  0.42144  0.90068  0.74844  1.0000
  H   H14       1.0  0.09934  0.57856  0.75156  1.0000
  H   H15       1.0  0.57857  0.09932  0.25156  1.0000
  H   H16       1.0  0.90066  0.42145  0.24844  1.0000
  H   H17       1.0  0.28050  0.13284  0.57931  1.0000
  H   H18       1.0  0.86717  0.71950  0.92068  1.0000
  H   H19       1.0  0.71952  0.86716  0.42068  1.0000
  H   H20       1.0  0.13283  0.28050  0.07932  1.0000
  H   H21       1.0  0.24030  0.93042  0.34826  1.0000
  H   H22       1.0  0.06957  0.75971  0.15174  1.0000
  H   H23       1.0  0.75971  0.06958  0.65173  1.0000
  H   H24       1.0  0.93042  0.24030  0.84826  1.0000
  H   H25       1.0  0.29209  0.11792  0.33012  1.0000
  H   H26       1.0  0.88208  0.70792  0.16987  1.0000
  H   H27       1.0  0.70793  0.88209  0.66988  1.0000
  H   H28       1.0  0.11791  0.29209  0.83012  1.0000
  H   H29       1.0  0.04058  0.15694  0.50167  1.0000
  H   H30       1.0  0.84306  0.95943  0.99832  1.0000
  H   H31       1.0  0.95944  0.84306  0.49833  1.0000
  H   H32       1.0  0.15693  0.04057  0.00168  1.0000
  H   H33       1.0  0.00715  0.13005  0.36893  1.0000
  H   H34       1.0  0.86995  0.99285  0.13107  1.0000
  H   H35       1.0  0.99286  0.86995  0.63107  1.0000
  H   H36       1.0  0.13005  0.00715  0.86893  1.0000
  H   H37       1.0  0.35731  0.41540  0.55070  1.0000
  H   H38       1.0  0.58460  0.64269  0.94930  1.0000
  H   H39       1.0  0.64268  0.58459  0.44930  1.0000
  H   H40       1.0  0.41540  0.35732  0.05070  1.0000
  H   H41       1.0  0.40079  0.31294  0.68145  1.0000
  H   H42       1.0  0.68706  0.59923  0.81855  1.0000
  H   H43       1.0  0.59921  0.68706  0.31855  1.0000
  H   H44       1.0  0.31293  0.40079  0.18145  1.0000
  C   C1        1.0  0.78803  0.50778  0.62452  1.0000
  C   C2        1.0  0.49222  0.21196  0.87549  1.0000
  C   C3        1.0  0.21196  0.49221  0.37549  1.0000
  C   C4        1.0  0.50778  0.78804  0.12451  1.0000
  C   C5        1.0  0.91687  0.50010  0.49859  1.0000
  C   C6        1.0  0.49987  0.08312  0.00142  1.0000
  C   C7        1.0  0.08311  0.49987  0.50143  1.0000
  C   C8        1.0  0.50011  0.91688  0.99858  1.0000
  C   C9        1.0  0.35461  0.78653  0.53757  1.0000
  C   C10       1.0  0.21348  0.64540  0.96243  1.0000
  C   C11       1.0  0.64540  0.21347  0.46243  1.0000
  C   C12       1.0  0.78652  0.35460  0.03756  1.0000
  C   C13       1.0  0.38438  0.89381  0.67077  1.0000
  C   C14       1.0  0.10621  0.61563  0.82922  1.0000
  C   C15       1.0  0.61564  0.10620  0.32922  1.0000
  C   C16       1.0  0.89379  0.38437  0.17077  1.0000
  C   C17       1.0  0.31350  0.00880  0.58807  1.0000
  C   C18       1.0  0.99121  0.68651  0.91192  1.0000
  C   C19       1.0  0.68652  0.99120  0.41192  1.0000
  C   C20       1.0  0.00879  0.31350  0.08808  1.0000
  C   C21       1.0  0.22483  0.01642  0.40001  1.0000
  C   C22       1.0  0.98358  0.77518  0.09999  1.0000
  C   C23       1.0  0.77519  0.98358  0.59999  1.0000
  C   C24       1.0  0.01641  0.22482  0.90001  1.0000
  C   C25       1.0  0.05071  0.06836  0.45301  1.0000
  C   C26       1.0  0.93163  0.94930  0.04698  1.0000
  C   C27       1.0  0.94931  0.93163  0.54699  1.0000
  C   C28       1.0  0.06836  0.05070  0.95301  1.0000
  N   N1        1.0  0.40939  0.75583  0.63806  1.0000
  N   N2        1.0  0.24418  0.59062  0.86194  1.0000
  N   N3        1.0  0.59062  0.24417  0.36194  1.0000
  N   N4        1.0  0.75582  0.40939  0.13805  1.0000
  N   N5        1.0  0.29612  0.93932  0.50458  1.0000
  N   N6        1.0  0.06069  0.70389  0.99542  1.0000
  N   N7        1.0  0.70390  0.06068  0.49542  1.0000
  N   N8        1.0  0.93931  0.29612  0.00458  1.0000
  O   O1        1.0  0.64477  0.52081  0.61831  1.0000
  O   O2        1.0  0.47919  0.35522  0.88170  1.0000
  O   O3        1.0  0.35522  0.47918  0.38170  1.0000
  O   O4        1.0  0.52080  0.64478  0.11831  1.0000
  O   O5        1.0  0.82330  0.50289  0.72175  1.0000
  O   O6        1.0  0.49715  0.17671  0.77824  1.0000
  O   O7        1.0  0.17669  0.49713  0.27825  1.0000
  O   O8        1.0  0.50288  0.82330  0.22175  1.0000
  O   O9        1.0  0.32086  0.38986  0.64629  1.0000
  O   O10       1.0  0.61014  0.67914  0.85371  1.0000
  O   O11       1.0  0.67912  0.61012  0.35371  1.0000
  O   O12       1.0  0.38986  0.32088  0.14629  1.0000
