data_image0
_chemical_formula_structural       Cd4H56C48S8N4Cl8
_chemical_formula_sum              "Cd4 H56 C48 S8 N4 Cl8"
_cell_length_a       8.2357
_cell_length_b       14.8441
_cell_length_c       18.5085
_cell_angle_alpha    83.3815
_cell_angle_beta     77.7815
_cell_angle_gamma    73.9329

_space_group_name_H-M_alt    "P 1"
_space_group_IT_number       1

loop_
  _space_group_symop_operation_xyz
  'x, y, z'

loop_
  _atom_site_type_symbol
  _atom_site_label
  _atom_site_symmetry_multiplicity
  _atom_site_fract_x
  _atom_site_fract_y
  _atom_site_fract_z
  _atom_site_occupancy
  Cd  Cd1       1.0  0.11712  0.88343  0.95031  1.0000
  Cd  Cd2       1.0  0.95103  0.61714  0.54919  1.0000
  Cd  Cd3       1.0  0.88289  0.11657  0.04969  1.0000
  Cd  Cd4       1.0  0.04898  0.38285  0.45081  1.0000
  H   H1        1.0  0.37916  0.88673  0.74556  1.0000
  H   H2        1.0  0.01702  0.61270  0.75371  1.0000
  H   H3        1.0  0.62084  0.11328  0.25444  1.0000
  H   H4        1.0  0.98300  0.38729  0.24629  1.0000
  H   H5        1.0  0.59442  0.86166  0.76227  1.0000
  H   H6        1.0  0.22257  0.63819  0.73854  1.0000
  H   H7        1.0  0.40558  0.13835  0.23772  1.0000
  H   H8        1.0  0.77744  0.36181  0.26147  1.0000
  H   H9        1.0  0.45004  0.79252  0.80921  1.0000
  H   H10       1.0  0.05532  0.70734  0.69080  1.0000
  H   H11       1.0  0.54997  0.20749  0.19078  1.0000
  H   H12       1.0  0.94468  0.29266  0.30920  1.0000
  H   H13       1.0  0.48386  0.94367  0.96708  1.0000
  H   H14       1.0  0.39486  0.55706  0.53342  1.0000
  H   H15       1.0  0.51616  0.05632  0.03292  1.0000
  H   H16       1.0  0.60516  0.44294  0.46658  1.0000
  H   H17       1.0  0.65780  0.89995  0.89445  1.0000
  H   H18       1.0  0.45334  0.60104  0.60668  1.0000
  H   H19       1.0  0.34221  0.10005  0.10555  1.0000
  H   H20       1.0  0.54667  0.39897  0.39331  1.0000
  H   H21       1.0  0.80613  0.75004  0.93424  1.0000
  H   H22       1.0  0.49146  0.75047  0.56602  1.0000
  H   H23       1.0  0.19387  0.24996  0.06578  1.0000
  H   H24       1.0  0.50853  0.24954  0.43397  1.0000
  H   H25       1.0  0.51681  0.55575  0.04883  1.0000
  H   H26       1.0  0.11853  0.94467  0.45076  1.0000
  H   H27       1.0  0.48319  0.44424  0.95117  1.0000
  H   H28       1.0  0.88145  0.05534  0.54924  1.0000
  H   H29       1.0  0.21166  0.60658  0.07384  1.0000
  H   H30       1.0  0.88757  0.89402  0.42584  1.0000
  H   H31       1.0  0.78834  0.39342  0.92615  1.0000
  H   H32       1.0  0.11241  0.10598  0.57416  1.0000
  H   H33       1.0  0.16789  0.64983  0.98428  1.0000
  H   H34       1.0  0.80104  0.85016  0.51511  1.0000
  H   H35       1.0  0.83211  0.35018  0.01571  1.0000
  H   H36       1.0  0.19894  0.14984  0.48489  1.0000
  H   H37       1.0  0.98210  0.84478  0.17561  1.0000
  H   H38       1.0  0.99949  0.65521  0.32376  1.0000
  H   H39       1.0  0.01791  0.15522  0.82440  1.0000
  H   H40       1.0  0.00053  0.34479  0.67624  1.0000
  H   H41       1.0  0.11087  0.72670  0.18693  1.0000
  H   H42       1.0  0.02073  0.77339  0.31301  1.0000
  H   H43       1.0  0.88914  0.27329  0.81306  1.0000
  H   H44       1.0  0.97928  0.22660  0.68699  1.0000
  H   H45       1.0  0.20231  0.81576  0.13155  1.0000
  H   H46       1.0  0.14587  0.68451  0.36941  1.0000
  H   H47       1.0  0.79769  0.18423  0.86845  1.0000
  H   H48       1.0  0.85414  0.31549  0.63059  1.0000
  H   H49       1.0  0.76024  0.51814  0.10891  1.0000
  H   H50       1.0  0.38364  0.98139  0.39075  1.0000
  H   H51       1.0  0.23976  0.48186  0.89110  1.0000
  H   H52       1.0  0.61635  0.01861  0.60926  1.0000
  H   H53       1.0  0.97139  0.60652  0.88696  1.0000
  H   H54       1.0  0.46744  0.89435  0.61343  1.0000
  H   H55       1.0  0.02861  0.39348  0.11305  1.0000
  H   H56       1.0  0.53255  0.10565  0.38658  1.0000
  C   C1        1.0  0.46074  0.86286  0.78736  1.0000
  C   C2        1.0  0.11530  0.63693  0.71260  1.0000
  C   C3        1.0  0.53926  0.13714  0.21264  1.0000
  C   C4        1.0  0.88471  0.36306  0.28740  1.0000
  C   C5        1.0  0.52785  0.89586  0.92157  1.0000
  C   C6        1.0  0.34615  0.60486  0.57896  1.0000
  C   C7        1.0  0.47216  0.10413  0.07843  1.0000
  C   C8        1.0  0.65386  0.39515  0.42103  1.0000
  C   C9        1.0  0.52917  0.79743  0.95300  1.0000
  C   C10       1.0  0.27940  0.70323  0.54732  1.0000
  C   C11       1.0  0.47084  0.20257  0.04700  1.0000
  C   C12       1.0  0.72060  0.29677  0.45268  1.0000
  C   C13       1.0  0.68509  0.73151  0.95732  1.0000
  C   C14       1.0  0.37396  0.76903  0.54289  1.0000
  C   C15       1.0  0.31492  0.26849  0.04268  1.0000
  C   C16       1.0  0.62603  0.23097  0.45711  1.0000
  C   C17       1.0  0.68393  0.64276  0.99257  1.0000
  C   C18       1.0  0.31825  0.85769  0.50743  1.0000
  C   C19       1.0  0.31608  0.35724  0.00743  1.0000
  C   C20       1.0  0.68173  0.14232  0.49258  1.0000
  C   C21       1.0  0.52409  0.62414  0.02167  1.0000
  C   C22       1.0  0.16771  0.87637  0.47817  1.0000
  C   C23       1.0  0.47591  0.37585  0.97833  1.0000
  C   C24       1.0  0.83227  0.12363  0.52184  1.0000
  C   C25       1.0  0.37332  0.69186  0.01200  1.0000
  C   C26       1.0  0.07506  0.80877  0.48795  1.0000
  C   C27       1.0  0.62668  0.30814  0.98799  1.0000
  C   C28       1.0  0.92492  0.19123  0.51204  1.0000
  C   C29       1.0  0.20232  0.66791  0.03413  1.0000
  C   C30       1.0  0.90168  0.83250  0.46541  1.0000
  C   C31       1.0  0.79768  0.33209  0.96586  1.0000
  C   C32       1.0  0.09830  0.16751  0.53459  1.0000
  C   C33       1.0  0.08765  0.78907  0.14867  1.0000
  C   C34       1.0  0.02199  0.71106  0.35123  1.0000
  C   C35       1.0  0.91236  0.21093  0.85133  1.0000
  C   C36       1.0  0.97801  0.28894  0.64877  1.0000
  C   C37       1.0  0.84574  0.57032  0.99711  1.0000
  C   C38       1.0  0.41258  0.92992  0.50288  1.0000
  C   C39       1.0  0.15427  0.42967  0.00289  1.0000
  C   C40       1.0  0.58739  0.07008  0.49712  1.0000
  C   C41       1.0  0.86465  0.51001  0.06080  1.0000
  C   C42       1.0  0.43338  0.98972  0.43900  1.0000
  C   C43       1.0  0.13535  0.48999  0.93921  1.0000
  C   C44       1.0  0.56660  0.01028  0.56101  1.0000
  C   C45       1.0  0.98336  0.55947  0.93637  1.0000
  C   C46       1.0  0.48066  0.94105  0.56383  1.0000
  C   C47       1.0  0.01664  0.44052  0.06363  1.0000
  C   C48       1.0  0.51931  0.05896  0.43618  1.0000
  S   S1        1.0  0.37925  0.94570  0.85904  1.0000
  S   S2        1.0  0.18736  0.55452  0.64060  1.0000
  S   S3        1.0  0.62075  0.05430  0.14096  1.0000
  S   S4        1.0  0.81267  0.44548  0.35940  1.0000
  S   S5        1.0  0.01906  0.76160  0.06934  1.0000
  S   S6        1.0  0.84765  0.73855  0.42949  1.0000
  S   S7        1.0  0.98094  0.23841  0.93066  1.0000
  S   S8        1.0  0.15234  0.26145  0.57051  1.0000
  N   N1        1.0  0.37745  0.77670  0.97880  1.0000
  N   N2        1.0  0.13172  0.72401  0.52139  1.0000
  N   N3        1.0  0.62257  0.22330  0.02120  1.0000
  N   N4        1.0  0.86827  0.27599  0.47860  1.0000
  Cl  Cl1       1.0  0.09210  0.77191  0.86157  1.0000
  Cl  Cl2       1.0  0.72916  0.72836  0.63797  1.0000
  Cl  Cl3       1.0  0.90789  0.22809  0.13843  1.0000
  Cl  Cl4       1.0  0.27085  0.27164  0.36203  1.0000
  Cl  Cl5       1.0  0.83493  0.00847  0.94838  1.0000
  Cl  Cl6       1.0  0.79343  0.49146  0.55132  1.0000
  Cl  Cl7       1.0  0.16507  0.99153  0.05162  1.0000
  Cl  Cl8       1.0  0.20658  0.50853  0.44868  1.0000
