data_image0
_chemical_formula_structural       Cd4H32C24N8O28
_chemical_formula_sum              "Cd4 H32 C24 N8 O28"
_cell_length_a       8.02815
_cell_length_b       11.4242
_cell_length_c       12.2771
_cell_angle_alpha    110.191
_cell_angle_beta     90.005
_cell_angle_gamma    110.609

_space_group_name_H-M_alt    "P 1"
_space_group_IT_number       1

loop_
  _space_group_symop_operation_xyz
  'x, y, z'

loop_
  _atom_site_type_symbol
  _atom_site_label
  _atom_site_symmetry_multiplicity
  _atom_site_fract_x
  _atom_site_fract_y
  _atom_site_fract_z
  _atom_site_occupancy
  Cd  Cd1       1.0  0.56167  0.32635  0.27499  1.0000
  Cd  Cd2       1.0  0.23533  0.67373  0.22506  1.0000
  Cd  Cd3       1.0  0.43833  0.67365  0.72501  1.0000
  Cd  Cd4       1.0  0.76467  0.32627  0.77494  1.0000
  H   H1        1.0  0.47944  0.03340  0.12859  1.0000
  H   H2        1.0  0.44672  0.96676  0.37157  1.0000
  H   H3        1.0  0.52056  0.96660  0.87141  1.0000
  H   H4        1.0  0.55328  0.03324  0.62844  1.0000
  H   H5        1.0  0.97681  0.33530  0.28147  1.0000
  H   H6        1.0  0.64151  0.66478  0.21892  1.0000
  H   H7        1.0  0.02319  0.66470  0.71853  1.0000
  H   H8        1.0  0.35849  0.33522  0.78108  1.0000
  H   H9        1.0  0.95593  0.93773  0.08191  1.0000
  H   H10       1.0  0.01903  0.06240  0.41822  1.0000
  H   H11       1.0  0.04408  0.06228  0.91809  1.0000
  H   H12       1.0  0.98097  0.93760  0.58178  1.0000
  H   H13       1.0  0.62121  0.86244  0.04009  1.0000
  H   H14       1.0  0.75979  0.13769  0.45997  1.0000
  H   H15       1.0  0.37879  0.13756  0.95992  1.0000
  H   H16       1.0  0.24022  0.86231  0.54003  1.0000
  H   H17       1.0  0.52275  0.42430  0.09415  1.0000
  H   H18       1.0  0.09868  0.57576  0.40580  1.0000
  H   H19       1.0  0.47725  0.57570  0.90584  1.0000
  H   H20       1.0  0.90132  0.42423  0.59420  1.0000
  H   H21       1.0  0.64499  0.33623  0.04814  1.0000
  H   H22       1.0  0.30916  0.66394  0.45181  1.0000
  H   H23       1.0  0.35501  0.66377  0.95186  1.0000
  H   H24       1.0  0.69084  0.33606  0.54819  1.0000
  H   H25       1.0  0.39240  0.16650  0.41052  1.0000
  H   H26       1.0  0.22583  0.83343  0.08952  1.0000
  H   H27       1.0  0.60760  0.83350  0.58948  1.0000
  H   H28       1.0  0.77417  0.16657  0.91048  1.0000
  H   H29       1.0  0.42833  0.31715  0.49340  1.0000
  H   H30       1.0  0.11122  0.68278  0.00657  1.0000
  H   H31       1.0  0.57167  0.68285  0.50660  1.0000
  H   H32       1.0  0.88878  0.31722  0.99343  1.0000
  C   C1        1.0  0.19126  0.19081  0.20970  1.0000
  C   C2        1.0  0.00073  0.80922  0.29062  1.0000
  C   C3        1.0  0.80874  0.80920  0.79031  1.0000
  C   C4        1.0  0.99927  0.19077  0.70938  1.0000
  C   C5        1.0  0.99049  0.14224  0.18375  1.0000
  C   C6        1.0  0.84862  0.85781  0.31663  1.0000
  C   C7        1.0  0.00951  0.85776  0.81625  1.0000
  C   C8        1.0  0.15138  0.14219  0.68337  1.0000
  C   C9        1.0  0.62409  0.05938  0.14166  1.0000
  C   C10       1.0  0.56527  0.94068  0.35856  1.0000
  C   C11       1.0  0.37591  0.94062  0.85834  1.0000
  C   C12       1.0  0.43474  0.05932  0.64144  1.0000
  C   C13       1.0  0.90098  0.23028  0.22824  1.0000
  C   C14       1.0  0.67086  0.76978  0.27212  1.0000
  C   C15       1.0  0.09902  0.76973  0.77176  1.0000
  C   C16       1.0  0.32914  0.23022  0.72788  1.0000
  C   C17       1.0  0.88893  0.00801  0.11596  1.0000
  C   C18       1.0  0.88161  0.99207  0.38430  1.0000
  C   C19       1.0  0.11107  0.99199  0.88404  1.0000
  C   C20       1.0  0.11839  0.00793  0.61570  1.0000
  C   C21       1.0  0.70313  0.96619  0.09355  1.0000
  C   C22       1.0  0.73770  0.03389  0.40667  1.0000
  C   C23       1.0  0.29687  0.03382  0.90645  1.0000
  C   C24       1.0  0.26230  0.96611  0.59333  1.0000
  N   N1        1.0  0.80055  0.59045  0.44347  1.0000
  N   N2        1.0  0.21009  0.40967  0.05646  1.0000
  N   N3        1.0  0.19945  0.40954  0.55652  1.0000
  N   N4        1.0  0.78991  0.59033  0.94354  1.0000
  N   N5        1.0  0.72122  0.18931  0.20822  1.0000
  N   N6        1.0  0.53216  0.81075  0.29203  1.0000
  N   N7        1.0  0.27878  0.81069  0.79178  1.0000
  N   N8        1.0  0.46784  0.18925  0.70797  1.0000
  O   O1        1.0  0.26631  0.10578  0.18172  1.0000
  O   O2        1.0  0.16095  0.89421  0.31863  1.0000
  O   O3        1.0  0.73370  0.89422  0.81829  1.0000
  O   O4        1.0  0.83905  0.10579  0.68137  1.0000
  O   O5        1.0  0.27649  0.31807  0.25991  1.0000
  O   O6        1.0  0.95844  0.68196  0.24026  1.0000
  O   O7        1.0  0.72350  0.68194  0.74009  1.0000
  O   O8        1.0  0.04156  0.31804  0.75974  1.0000
  O   O9        1.0  0.86065  0.49662  0.39929  1.0000
  O   O10       1.0  0.36416  0.50352  0.10055  1.0000
  O   O11       1.0  0.13935  0.50337  0.60071  1.0000
  O   O12       1.0  0.63584  0.49648  0.89945  1.0000
  O   O13       1.0  0.63139  0.55994  0.41652  1.0000
  O   O14       1.0  0.07150  0.44017  0.08356  1.0000
  O   O15       1.0  0.36861  0.44006  0.58348  1.0000
  O   O16       1.0  0.92850  0.55983  0.91644  1.0000
  O   O17       1.0  0.61388  0.39474  0.11812  1.0000
  O   O18       1.0  0.21942  0.60523  0.38183  1.0000
  O   O19       1.0  0.38612  0.60526  0.88188  1.0000
  O   O20       1.0  0.78058  0.39477  0.61816  1.0000
  O   O21       1.0  0.48671  0.25626  0.44375  1.0000
  O   O22       1.0  0.23050  0.74376  0.05631  1.0000
  O   O23       1.0  0.51329  0.74374  0.55625  1.0000
  O   O24       1.0  0.76950  0.25624  0.94369  1.0000
  O   O25       1.0  0.89912  0.70495  0.50887  1.0000
  O   O26       1.0  0.19390  0.29518  0.99102  1.0000
  O   O27       1.0  0.10088  0.29505  0.49112  1.0000
  O   O28       1.0  0.80611  0.70482  0.00898  1.0000
