data_image0
_chemical_formula_structural       Ni4H48C40N8O20
_chemical_formula_sum              "Ni4 H48 C40 N8 O20"
_cell_length_a       7.25081
_cell_length_b       9.09775
_cell_length_c       17.99
_cell_angle_alpha    90.0436
_cell_angle_beta     90
_cell_angle_gamma    90

_space_group_name_H-M_alt    "P 1"
_space_group_IT_number       1

loop_
  _space_group_symop_operation_xyz
  'x, y, z'

loop_
  _atom_site_type_symbol
  _atom_site_label
  _atom_site_symmetry_multiplicity
  _atom_site_fract_x
  _atom_site_fract_y
  _atom_site_fract_z
  _atom_site_occupancy
  Ni  Ni1       1.0  0.53521  0.12746  0.86227  1.0000
  Ni  Ni2       1.0  0.03602  0.87243  0.63767  1.0000
  Ni  Ni3       1.0  0.46406  0.87250  0.13758  1.0000
  Ni  Ni4       1.0  0.96446  0.12767  0.36234  1.0000
  H   H1        1.0  0.77240  0.31521  0.97436  1.0000
  H   H2        1.0  0.27560  0.68283  0.52646  1.0000
  H   H3        1.0  0.22517  0.68373  0.02622  1.0000
  H   H4        1.0  0.72595  0.31618  0.47379  1.0000
  H   H5        1.0  0.80407  0.58618  0.99826  1.0000
  H   H6        1.0  0.30445  0.41159  0.50257  1.0000
  H   H7        1.0  0.19522  0.41260  0.00222  1.0000
  H   H8        1.0  0.69558  0.58729  0.49778  1.0000
  H   H9        1.0  0.62406  0.76182  0.91886  1.0000
  H   H10       1.0  0.12054  0.23729  0.58131  1.0000
  H   H11       1.0  0.37773  0.23772  0.08115  1.0000
  H   H12       1.0  0.87765  0.76233  0.41878  1.0000
  H   H13       1.0  0.43030  0.66204  0.81582  1.0000
  H   H14       1.0  0.92729  0.33845  0.68415  1.0000
  H   H15       1.0  0.57156  0.33821  0.18394  1.0000
  H   H16       1.0  0.07151  0.66203  0.31596  1.0000
  H   H17       1.0  0.30513  0.44205  0.75086  1.0000
  H   H18       1.0  0.80617  0.55860  0.74973  1.0000
  H   H19       1.0  0.69503  0.55861  0.24918  1.0000
  H   H20       1.0  0.19511  0.44157  0.25065  1.0000
  H   H21       1.0  0.51174  0.34372  0.73041  1.0000
  H   H22       1.0  0.01311  0.65721  0.76941  1.0000
  H   H23       1.0  0.48815  0.65671  0.26947  1.0000
  H   H24       1.0  0.98826  0.34336  0.23049  1.0000
  H   H25       1.0  0.04040  0.20217  0.81629  1.0000
  H   H26       1.0  0.54075  0.79793  0.68362  1.0000
  H   H27       1.0  0.95937  0.79869  0.18341  1.0000
  H   H28       1.0  0.45981  0.20218  0.31646  1.0000
  H   H29       1.0  0.14061  0.36019  0.85499  1.0000
  H   H30       1.0  0.64139  0.63990  0.64500  1.0000
  H   H31       1.0  0.85920  0.64037  0.14491  1.0000
  H   H32       1.0  0.35906  0.36004  0.35513  1.0000
  H   H33       1.0  0.41022  0.13388  0.69431  1.0000
  H   H34       1.0  0.91113  0.86704  0.80548  1.0000
  H   H35       1.0  0.58922  0.86716  0.30543  1.0000
  H   H36       1.0  0.08931  0.13310  0.19456  1.0000
  H   H37       1.0  0.16760  0.14140  0.70657  1.0000
  H   H38       1.0  0.66848  0.85907  0.79356  1.0000
  H   H39       1.0  0.83185  0.85938  0.29334  1.0000
  H   H40       1.0  0.33194  0.14074  0.20657  1.0000
  H   H41       1.0  0.84141  0.07370  0.93656  1.0000
  H   H42       1.0  0.34256  0.92588  0.56333  1.0000
  H   H43       1.0  0.15762  0.92605  0.06319  1.0000
  H   H44       1.0  0.65795  0.07382  0.43665  1.0000
  H   H45       1.0  0.68931  0.97322  0.97442  1.0000
  H   H46       1.0  0.19052  0.02658  0.52556  1.0000
  H   H47       1.0  0.30971  0.02657  0.02537  1.0000
  H   H48       1.0  0.81020  0.97342  0.47448  1.0000
  C   C1        1.0  0.70068  0.39597  0.94026  1.0000
  C   C2        1.0  0.20214  0.60261  0.56028  1.0000
  C   C3        1.0  0.29808  0.60326  0.06008  1.0000
  C   C4        1.0  0.79863  0.39674  0.43991  1.0000
  C   C5        1.0  0.71655  0.54641  0.95339  1.0000
  C   C6        1.0  0.21643  0.45205  0.54713  1.0000
  C   C7        1.0  0.28312  0.45278  0.04689  1.0000
  C   C8        1.0  0.78348  0.54720  0.45310  1.0000
  C   C9        1.0  0.61782  0.64395  0.90888  1.0000
  C   C10       1.0  0.11576  0.35521  0.59131  1.0000
  C   C11       1.0  0.38312  0.35564  0.09115  1.0000
  C   C12       1.0  0.88325  0.64443  0.40880  1.0000
  C   C13       1.0  0.51043  0.58793  0.85097  1.0000
  C   C14       1.0  0.00855  0.41197  0.64909  1.0000
  C   C15       1.0  0.49065  0.41206  0.14893  1.0000
  C   C16       1.0  0.99075  0.58813  0.35098  1.0000
  C   C17       1.0  0.50790  0.43671  0.83900  1.0000
  C   C18       1.0  0.00771  0.56321  0.66110  1.0000
  C   C19       1.0  0.49227  0.56331  0.16096  1.0000
  C   C20       1.0  0.99259  0.43687  0.33896  1.0000
  C   C21       1.0  0.40948  0.36693  0.77410  1.0000
  C   C22       1.0  0.91016  0.63355  0.72604  1.0000
  C   C23       1.0  0.59051  0.63348  0.22582  1.0000
  C   C24       1.0  0.09070  0.36672  0.27408  1.0000
  C   C25       1.0  0.16491  0.24249  0.84457  1.0000
  C   C26       1.0  0.66549  0.75765  0.65544  1.0000
  C   C27       1.0  0.83475  0.75809  0.15526  1.0000
  C   C28       1.0  0.33503  0.24232  0.34464  1.0000
  C   C29       1.0  0.17735  0.17002  0.92140  1.0000
  C   C30       1.0  0.67820  0.82992  0.57856  1.0000
  C   C31       1.0  0.82188  0.83021  0.07836  1.0000
  C   C32       1.0  0.32235  0.16992  0.42149  1.0000
  C   C33       1.0  0.29860  0.12138  0.73513  1.0000
  C   C34       1.0  0.79919  0.87922  0.76478  1.0000
  C   C35       1.0  0.70098  0.87937  0.26465  1.0000
  C   C36       1.0  0.20114  0.12084  0.23530  1.0000
  C   C37       1.0  0.30669  0.96289  0.76325  1.0000
  C   C38       1.0  0.80663  0.03760  0.73652  1.0000
  C   C39       1.0  0.69323  0.03779  0.23643  1.0000
  C   C40       1.0  0.19322  0.96241  0.26348  1.0000
  N   N1        1.0  0.59903  0.34224  0.88402  1.0000
  N   N2        1.0  0.10008  0.65717  0.61620  1.0000
  N   N3        1.0  0.40016  0.65747  0.11608  1.0000
  N   N4        1.0  0.90064  0.34265  0.38387  1.0000
  N   N5        1.0  0.33007  0.22483  0.79687  1.0000
  N   N6        1.0  0.83068  0.77554  0.70311  1.0000
  N   N7        1.0  0.66951  0.77572  0.20295  1.0000
  N   N8        1.0  0.16991  0.22460  0.29694  1.0000
  O   O1        1.0  0.03318  0.16598  0.95983  1.0000
  O   O2        1.0  0.53411  0.83389  0.54008  1.0000
  O   O3        1.0  0.96596  0.83423  0.03988  1.0000
  O   O4        1.0  0.46646  0.16581  0.45996  1.0000
  O   O5        1.0  0.33590  0.12424  0.94342  1.0000
  O   O6        1.0  0.83677  0.87559  0.55654  1.0000
  O   O7        1.0  0.66319  0.87562  0.05635  1.0000
  O   O8        1.0  0.16373  0.12443  0.44352  1.0000
  O   O9        1.0  0.22398  0.86191  0.72752  1.0000
  O   O10       1.0  0.72353  0.13857  0.77215  1.0000
  O   O11       1.0  0.77606  0.13876  0.27217  1.0000
  O   O12       1.0  0.27572  0.86140  0.22769  1.0000
  O   O13       1.0  0.40382  0.93750  0.82083  1.0000
  O   O14       1.0  0.90386  0.06285  0.67894  1.0000
  O   O15       1.0  0.59618  0.06304  0.17882  1.0000
  O   O16       1.0  0.09616  0.93721  0.32112  1.0000
  O   O17       1.0  0.72373  0.02051  0.92633  1.0000
  O   O18       1.0  0.22493  0.97914  0.57361  1.0000
  O   O19       1.0  0.27530  0.97922  0.07346  1.0000
  O   O20       1.0  0.77576  0.02079  0.42641  1.0000
