data_image0
_chemical_formula_structural       Zn4Mo4H24C24N4O16
_chemical_formula_sum              "Zn4 Mo4 H24 C24 N4 O16"
_cell_length_a       8.13288
_cell_length_b       9.60114
_cell_length_c       10.9622
_cell_angle_alpha    89.9999
_cell_angle_beta     103.116
_cell_angle_gamma    90.0001

_space_group_name_H-M_alt    "P 1"
_space_group_IT_number       1

loop_
  _space_group_symop_operation_xyz
  'x, y, z'

loop_
  _atom_site_type_symbol
  _atom_site_label
  _atom_site_symmetry_multiplicity
  _atom_site_fract_x
  _atom_site_fract_y
  _atom_site_fract_z
  _atom_site_occupancy
  Zn  Zn1       1.0  0.30475  0.52661  0.44144  1.0000
  Zn  Zn2       1.0  0.19525  0.02661  0.55856  1.0000
  Zn  Zn3       1.0  0.69525  0.47339  0.55856  1.0000
  Zn  Zn4       1.0  0.80475  0.97339  0.44144  1.0000
  Mo  Mo1       1.0  0.43639  0.20936  0.36375  1.0000
  Mo  Mo2       1.0  0.06361  0.70936  0.63625  1.0000
  Mo  Mo3       1.0  0.56361  0.79064  0.63625  1.0000
  Mo  Mo4       1.0  0.93639  0.29064  0.36375  1.0000
  H   H1        1.0  0.14790  0.48601  0.16948  1.0000
  H   H2        1.0  0.35211  0.98601  0.83052  1.0000
  H   H3        1.0  0.85210  0.51398  0.83052  1.0000
  H   H4        1.0  0.64789  0.01398  0.16948  1.0000
  H   H5        1.0  0.01721  0.63956  0.98724  1.0000
  H   H6        1.0  0.48279  0.13957  0.01276  1.0000
  H   H7        1.0  0.98278  0.36043  0.01276  1.0000
  H   H8        1.0  0.51721  0.86043  0.98724  1.0000
  H   H9        1.0  0.17756  0.99319  0.22798  1.0000
  H   H10       1.0  0.32244  0.49319  0.77201  1.0000
  H   H11       1.0  0.82244  0.00681  0.77201  1.0000
  H   H12       1.0  0.67756  0.50681  0.22799  1.0000
  H   H13       1.0  0.30452  0.82948  0.39484  1.0000
  H   H14       1.0  0.19549  0.32948  0.60516  1.0000
  H   H15       1.0  0.69549  0.17052  0.60516  1.0000
  H   H16       1.0  0.80451  0.67052  0.39484  1.0000
  H   H17       1.0  0.87563  0.88179  0.94367  1.0000
  H   H18       1.0  0.62437  0.38179  0.05633  1.0000
  H   H19       1.0  0.12437  0.11821  0.05633  1.0000
  H   H20       1.0  0.37563  0.61821  0.94367  1.0000
  H   H21       1.0  0.07263  0.90628  0.90969  1.0000
  H   H22       1.0  0.42737  0.40628  0.09031  1.0000
  H   H23       1.0  0.92736  0.09372  0.09031  1.0000
  H   H24       1.0  0.57264  0.59372  0.90969  1.0000
  C   C1        1.0  0.15179  0.59935  0.17635  1.0000
  C   C2        1.0  0.34821  0.09935  0.82365  1.0000
  C   C3        1.0  0.84821  0.40065  0.82365  1.0000
  C   C4        1.0  0.65179  0.90065  0.17635  1.0000
  C   C5        1.0  0.07852  0.68498  0.07704  1.0000
  C   C6        1.0  0.42149  0.18499  0.92295  1.0000
  C   C7        1.0  0.92149  0.31501  0.92295  1.0000
  C   C8        1.0  0.57851  0.81501  0.07705  1.0000
  C   C9        1.0  0.08346  0.83058  0.09145  1.0000
  C   C10       1.0  0.41655  0.33058  0.90854  1.0000
  C   C11       1.0  0.91654  0.16942  0.90854  1.0000
  C   C12       1.0  0.58345  0.66942  0.09146  1.0000
  C   C13       1.0  0.16706  0.88212  0.20847  1.0000
  C   C14       1.0  0.33294  0.38212  0.79153  1.0000
  C   C15       1.0  0.83294  0.11788  0.79153  1.0000
  C   C16       1.0  0.66706  0.61788  0.20847  1.0000
  C   C17       1.0  0.23921  0.79039  0.30346  1.0000
  C   C18       1.0  0.26079  0.29039  0.69654  1.0000
  C   C19       1.0  0.76079  0.20961  0.69654  1.0000
  C   C20       1.0  0.73921  0.70961  0.30346  1.0000
  C   C21       1.0  0.00298  0.92296  0.98402  1.0000
  C   C22       1.0  0.49702  0.42296  0.01598  1.0000
  C   C23       1.0  0.99702  0.07704  0.01598  1.0000
  C   C24       1.0  0.50298  0.57704  0.98402  1.0000
  N   N1        1.0  0.23138  0.65116  0.28906  1.0000
  N   N2        1.0  0.26863  0.15115  0.71094  1.0000
  N   N3        1.0  0.76862  0.34884  0.71094  1.0000
  N   N4        1.0  0.73137  0.84885  0.28906  1.0000
  O   O1        1.0  0.47869  0.37406  0.45142  1.0000
  O   O2        1.0  0.02131  0.87406  0.54858  1.0000
  O   O3        1.0  0.52131  0.62594  0.54858  1.0000
  O   O4        1.0  0.97870  0.12594  0.45142  1.0000
  O   O5        1.0  0.63845  0.13522  0.37071  1.0000
  O   O6        1.0  0.86155  0.63522  0.62929  1.0000
  O   O7        1.0  0.36155  0.86478  0.62929  1.0000
  O   O8        1.0  0.13845  0.36478  0.37071  1.0000
  O   O9        1.0  0.33982  0.23126  0.20687  1.0000
  O   O10       1.0  0.16017  0.73126  0.79313  1.0000
  O   O11       1.0  0.66017  0.76874  0.79313  1.0000
  O   O12       1.0  0.83983  0.26874  0.20687  1.0000
  O   O13       1.0  0.32346  0.08631  0.43453  1.0000
  O   O14       1.0  0.17654  0.58630  0.56547  1.0000
  O   O15       1.0  0.67654  0.91370  0.56547  1.0000
  O   O16       1.0  0.82346  0.41370  0.43453  1.0000
