data_image0
_chemical_formula_structural       Ag2H26C26S2N8O8
_chemical_formula_sum              "Ag2 H26 C26 S2 N8 O8"
_cell_length_a       7.83451
_cell_length_b       9.58937
_cell_length_c       10.6722
_cell_angle_alpha    90.6236
_cell_angle_beta     70.2167
_cell_angle_gamma    76.8994

_space_group_name_H-M_alt    "P 1"
_space_group_IT_number       1

loop_
  _space_group_symop_operation_xyz
  'x, y, z'

loop_
  _atom_site_type_symbol
  _atom_site_label
  _atom_site_symmetry_multiplicity
  _atom_site_fract_x
  _atom_site_fract_y
  _atom_site_fract_z
  _atom_site_occupancy
  Ag  Ag1       1.0  0.69034  0.94558  0.58422  1.0000
  Ag  Ag2       1.0  0.30966  0.05442  0.41578  1.0000
  H   H1        1.0  0.18475  0.12929  0.94010  1.0000
  H   H2        1.0  0.81525  0.87071  0.05990  1.0000
  H   H3        1.0  0.39662  0.96645  0.81894  1.0000
  H   H4        1.0  0.60338  0.03355  0.18106  1.0000
  H   H5        1.0  0.61051  0.27837  0.74297  1.0000
  H   H6        1.0  0.38949  0.72163  0.25703  1.0000
  H   H7        1.0  0.49684  0.32294  0.62267  1.0000
  H   H8        1.0  0.50316  0.67706  0.37733  1.0000
  H   H9        1.0  0.67914  0.40663  0.62741  1.0000
  H   H10       1.0  0.32086  0.59337  0.37259  1.0000
  H   H11       1.0  0.97069  0.44842  0.70338  1.0000
  H   H12       1.0  0.02931  0.55158  0.29662  1.0000
  H   H13       1.0  0.05497  0.01841  0.28690  1.0000
  H   H14       1.0  0.94503  0.98159  0.71310  1.0000
  H   H15       1.0  0.93355  0.30868  0.00737  1.0000
  H   H16       1.0  0.06645  0.69132  0.99263  1.0000
  H   H17       1.0  0.67093  0.46473  0.19255  1.0000
  H   H18       1.0  0.32907  0.53527  0.80745  1.0000
  H   H19       1.0  0.60084  0.40177  0.42631  1.0000
  H   H20       1.0  0.39916  0.59823  0.57369  1.0000
  H   H21       1.0  0.49743  0.68617  0.03876  1.0000
  H   H22       1.0  0.50257  0.31383  0.96124  1.0000
  H   H23       1.0  0.76369  0.46895  0.94568  1.0000
  H   H24       1.0  0.23632  0.53105  0.05432  1.0000
  H   H25       1.0  0.89354  0.64690  0.56604  1.0000
  H   H26       1.0  0.10646  0.35310  0.43396  1.0000
  C   C1        1.0  0.62840  0.30833  0.64138  1.0000
  C   C2        1.0  0.37160  0.69167  0.35862  1.0000
  C   C3        1.0  0.82554  0.20729  0.37088  1.0000
  C   C4        1.0  0.17446  0.79271  0.62912  1.0000
  C   C5        1.0  0.97080  0.11616  0.26688  1.0000
  C   C6        1.0  0.02920  0.88385  0.73312  1.0000
  C   C7        1.0  0.01139  0.15383  0.13553  1.0000
  C   C8        1.0  0.98861  0.84617  0.86447  1.0000
  C   C9        1.0  0.90085  0.28041  0.10993  1.0000
  C   C10       1.0  0.09915  0.71959  0.89007  1.0000
  C   C11       1.0  0.75469  0.36704  0.21387  1.0000
  C   C12       1.0  0.24531  0.63296  0.78613  1.0000
  C   C13       1.0  0.71519  0.33225  0.34591  1.0000
  C   C14       1.0  0.28481  0.66775  0.65409  1.0000
  C   C15       1.0  0.28217  0.94660  0.02186  1.0000
  C   C16       1.0  0.71782  0.05340  0.97814  1.0000
  C   C17       1.0  0.55804  0.78114  0.85189  1.0000
  C   C18       1.0  0.44196  0.21886  0.14811  1.0000
  C   C19       1.0  0.58943  0.67261  0.93513  1.0000
  C   C20       1.0  0.41057  0.32739  0.06487  1.0000
  C   C21       1.0  0.73746  0.55308  0.88205  1.0000
  C   C22       1.0  0.26253  0.44692  0.11795  1.0000
  C   C23       1.0  0.85150  0.54006  0.74740  1.0000
  C   C24       1.0  0.14851  0.45994  0.25260  1.0000
  C   C25       1.0  0.81034  0.65047  0.67166  1.0000
  C   C26       1.0  0.18966  0.34953  0.32834  1.0000
  S   S1        1.0  0.80516  0.16044  0.53481  1.0000
  S   S2        1.0  0.19484  0.83956  0.46519  1.0000
  N   N1        1.0  0.16049  0.07606  0.02558  1.0000
  N   N2        1.0  0.83951  0.92394  0.97442  1.0000
  N   N3        1.0  0.41608  0.90542  0.89429  1.0000
  N   N4        1.0  0.58392  0.09458  0.10571  1.0000
  N   N5        1.0  0.66872  0.76923  0.72143  1.0000
  N   N6        1.0  0.33128  0.23077  0.27857  1.0000
  N   N7        1.0  0.75205  0.80800  0.30036  1.0000
  N   N8        1.0  0.24795  0.19200  0.69964  1.0000
  O   O1        1.0  0.27436  0.87571  0.11933  1.0000
  O   O2        1.0  0.72564  0.12429  0.88067  1.0000
  O   O3        1.0  0.77684  0.74488  0.39879  1.0000
  O   O4        1.0  0.22316  0.25512  0.60121  1.0000
  O   O5        1.0  0.67214  0.94229  0.31724  1.0000
  O   O6        1.0  0.32786  0.05771  0.68276  1.0000
  O   O7        1.0  0.80391  0.73930  0.18695  1.0000
  O   O8        1.0  0.19609  0.26070  0.81305  1.0000
