data_image0
_chemical_formula_structural       Tb4H28C24N8O32
_chemical_formula_sum              "Tb4 H28 C24 N8 O32"
_cell_length_a       7.28347
_cell_length_b       9.78354
_cell_length_c       14.1013
_cell_angle_alpha    103.259
_cell_angle_beta     89.9999
_cell_angle_gamma    89.9999

_space_group_name_H-M_alt    "P 1"
_space_group_IT_number       1

loop_
  _space_group_symop_operation_xyz
  'x, y, z'

loop_
  _atom_site_type_symbol
  _atom_site_label
  _atom_site_symmetry_multiplicity
  _atom_site_fract_x
  _atom_site_fract_y
  _atom_site_fract_z
  _atom_site_occupancy
  Tb  Tb1       1.0  0.88119  0.21657  0.68350  1.0000
  Tb  Tb2       1.0  0.38119  0.78343  0.81650  1.0000
  Tb  Tb3       1.0  0.11881  0.78343  0.31650  1.0000
  Tb  Tb4       1.0  0.61881  0.21657  0.18350  1.0000
  H   H1        1.0  0.72521  0.56105  0.42503  1.0000
  H   H2        1.0  0.22521  0.43895  0.07497  1.0000
  H   H3        1.0  0.27479  0.43895  0.57497  1.0000
  H   H4        1.0  0.77479  0.56105  0.92503  1.0000
  H   H5        1.0  0.41946  0.07575  0.70583  1.0000
  H   H6        1.0  0.91946  0.92425  0.79417  1.0000
  H   H7        1.0  0.58054  0.92425  0.29417  1.0000
  H   H8        1.0  0.08054  0.07575  0.20583  1.0000
  H   H9        1.0  0.83215  0.32097  0.43605  1.0000
  H   H10       1.0  0.33215  0.67903  0.06395  1.0000
  H   H11       1.0  0.16785  0.67903  0.56395  1.0000
  H   H12       1.0  0.66785  0.32097  0.93605  1.0000
  H   H13       1.0  0.16740  0.18514  0.52620  1.0000
  H   H14       1.0  0.66740  0.81486  0.97380  1.0000
  H   H15       1.0  0.83260  0.81486  0.47380  1.0000
  H   H16       1.0  0.33260  0.18514  0.02620  1.0000
  H   H17       1.0  0.00408  0.10044  0.46773  1.0000
  H   H18       1.0  0.50408  0.89956  0.03227  1.0000
  H   H19       1.0  0.99592  0.89956  0.53227  1.0000
  H   H20       1.0  0.49592  0.10044  0.96773  1.0000
  H   H21       1.0  0.64230  0.99457  0.55806  1.0000
  H   H22       1.0  0.14230  0.00543  0.94194  1.0000
  H   H23       1.0  0.35770  0.00543  0.44194  1.0000
  H   H24       1.0  0.85770  0.99457  0.05806  1.0000
  H   H25       1.0  0.56629  0.13687  0.53445  1.0000
  H   H26       1.0  0.06629  0.86313  0.96555  1.0000
  H   H27       1.0  0.43371  0.86313  0.46555  1.0000
  H   H28       1.0  0.93371  0.13687  0.03445  1.0000
  C   C1        1.0  0.71759  0.54033  0.75128  1.0000
  C   C2        1.0  0.21759  0.45967  0.74871  1.0000
  C   C3        1.0  0.28241  0.45967  0.24872  1.0000
  C   C4        1.0  0.78241  0.54033  0.25129  1.0000
  C   C5        1.0  0.60241  0.75022  0.59367  1.0000
  C   C6        1.0  0.10241  0.24978  0.90633  1.0000
  C   C7        1.0  0.39759  0.24978  0.40634  1.0000
  C   C8        1.0  0.89759  0.75022  0.09367  1.0000
  C   C9        1.0  0.71790  0.52077  0.64400  1.0000
  C   C10       1.0  0.21790  0.47923  0.85600  1.0000
  C   C11       1.0  0.28210  0.47923  0.35600  1.0000
  C   C12       1.0  0.78210  0.52077  0.14400  1.0000
  C   C13       1.0  0.50057  0.09311  0.77388  1.0000
  C   C14       1.0  0.00057  0.90689  0.72612  1.0000
  C   C15       1.0  0.49943  0.90688  0.22612  1.0000
  C   C16       1.0  0.99943  0.09311  0.27388  1.0000
  C   C17       1.0  0.78924  0.40282  0.49817  1.0000
  C   C18       1.0  0.28924  0.59718  0.00183  1.0000
  C   C19       1.0  0.21076  0.59718  0.50183  1.0000
  C   C20       1.0  0.71076  0.40282  0.99817  1.0000
  C   C21       1.0  0.68199  0.60840  0.58081  1.0000
  C   C22       1.0  0.18199  0.39160  0.91919  1.0000
  C   C23       1.0  0.31801  0.39160  0.41919  1.0000
  C   C24       1.0  0.81801  0.60840  0.08081  1.0000
  N   N1        1.0  0.78353  0.39411  0.59106  1.0000
  N   N2        1.0  0.28353  0.60589  0.90894  1.0000
  N   N3        1.0  0.21647  0.60589  0.40894  1.0000
  N   N4        1.0  0.71647  0.39411  0.09106  1.0000
  N   N5        1.0  0.73085  0.53059  0.49005  1.0000
  N   N6        1.0  0.23085  0.46941  0.00995  1.0000
  N   N7        1.0  0.26915  0.46941  0.50996  1.0000
  N   N8        1.0  0.76915  0.53059  0.99005  1.0000
  O   O1        1.0  0.78968  0.43996  0.78255  1.0000
  O   O2        1.0  0.28968  0.56004  0.71745  1.0000
  O   O3        1.0  0.21032  0.56004  0.21745  1.0000
  O   O4        1.0  0.71032  0.43996  0.28255  1.0000
  O   O5        1.0  0.03817  0.15685  0.53301  1.0000
  O   O6        1.0  0.53817  0.84315  0.96699  1.0000
  O   O7        1.0  0.96183  0.84315  0.46699  1.0000
  O   O8        1.0  0.46183  0.15685  0.03301  1.0000
  O   O9        1.0  0.66360  0.09717  0.56952  1.0000
  O   O10       1.0  0.16360  0.90283  0.93048  1.0000
  O   O11       1.0  0.33640  0.90283  0.43048  1.0000
  O   O12       1.0  0.83640  0.09717  0.06952  1.0000
  O   O13       1.0  0.63476  0.17675  0.78387  1.0000
  O   O14       1.0  0.13476  0.82325  0.71613  1.0000
  O   O15       1.0  0.36524  0.82325  0.21613  1.0000
  O   O16       1.0  0.86524  0.17675  0.28386  1.0000
  O   O17       1.0  0.52372  0.80653  0.67235  1.0000
  O   O18       1.0  0.02372  0.19347  0.82765  1.0000
  O   O19       1.0  0.47628  0.19347  0.32765  1.0000
  O   O20       1.0  0.97628  0.80653  0.17235  1.0000
  O   O21       1.0  0.65473  0.65046  0.80789  1.0000
  O   O22       1.0  0.15473  0.34954  0.69211  1.0000
  O   O23       1.0  0.34527  0.34954  0.19211  1.0000
  O   O24       1.0  0.84527  0.65046  0.30789  1.0000
  O   O25       1.0  0.61685  0.80832  0.52076  1.0000
  O   O26       1.0  0.11685  0.19168  0.97924  1.0000
  O   O27       1.0  0.38315  0.19168  0.47924  1.0000
  O   O28       1.0  0.88315  0.80832  0.02076  1.0000
  O   O29       1.0  0.45042  0.02729  0.83793  1.0000
  O   O30       1.0  0.95042  0.97271  0.66207  1.0000
  O   O31       1.0  0.54958  0.97271  0.16207  1.0000
  O   O32       1.0  0.04958  0.02729  0.33793  1.0000
