data_image0
_chemical_formula_structural       Nd4H32C24N8O36
_chemical_formula_sum              "Nd4 H32 C24 N8 O36"
_cell_length_a       6.79112
_cell_length_b       7.31455
_cell_length_c       22.7
_cell_angle_alpha    90
_cell_angle_beta     90
_cell_angle_gamma    103.373

_space_group_name_H-M_alt    "P 1"
_space_group_IT_number       1

loop_
  _space_group_symop_operation_xyz
  'x, y, z'

loop_
  _atom_site_type_symbol
  _atom_site_label
  _atom_site_symmetry_multiplicity
  _atom_site_fract_x
  _atom_site_fract_y
  _atom_site_fract_z
  _atom_site_occupancy
  Nd  Nd1       1.0  0.75470  0.50909  0.37834  1.0000
  Nd  Nd2       1.0  0.24529  0.99091  0.87834  1.0000
  Nd  Nd3       1.0  0.24529  0.49091  0.62166  1.0000
  Nd  Nd4       1.0  0.75470  0.00909  0.12166  1.0000
  H   H1        1.0  0.09561  0.37860  0.21792  1.0000
  H   H2        1.0  0.90438  0.12139  0.71792  1.0000
  H   H3        1.0  0.90439  0.62139  0.78208  1.0000
  H   H4        1.0  0.09561  0.87861  0.28208  1.0000
  H   H5        1.0  0.19236  0.36455  0.32293  1.0000
  H   H6        1.0  0.80764  0.13545  0.82293  1.0000
  H   H7        1.0  0.80763  0.63545  0.67707  1.0000
  H   H8        1.0  0.19237  0.86455  0.17707  1.0000
  H   H9        1.0  0.02989  0.35207  0.46273  1.0000
  H   H10       1.0  0.97011  0.14793  0.96274  1.0000
  H   H11       1.0  0.97011  0.64793  0.53726  1.0000
  H   H12       1.0  0.02989  0.85207  0.03727  1.0000
  H   H13       1.0  0.88642  0.94429  0.37795  1.0000
  H   H14       1.0  0.11358  0.55571  0.87795  1.0000
  H   H15       1.0  0.11358  0.05572  0.62205  1.0000
  H   H16       1.0  0.88642  0.44428  0.12205  1.0000
  H   H17       1.0  0.14523  0.81367  0.39070  1.0000
  H   H18       1.0  0.85476  0.68633  0.89071  1.0000
  H   H19       1.0  0.85476  0.18634  0.60929  1.0000
  H   H20       1.0  0.14523  0.31367  0.10930  1.0000
  H   H21       1.0  0.22487  0.62678  0.40528  1.0000
  H   H22       1.0  0.77512  0.87322  0.90528  1.0000
  H   H23       1.0  0.77513  0.37323  0.59472  1.0000
  H   H24       1.0  0.22487  0.12677  0.09472  1.0000
  H   H25       1.0  0.70611  0.93196  0.42108  1.0000
  H   H26       1.0  0.29389  0.56804  0.92108  1.0000
  H   H27       1.0  0.29389  0.06804  0.57892  1.0000
  H   H28       1.0  0.70611  0.43196  0.07893  1.0000
  H   H29       1.0  0.04645  0.21423  0.41133  1.0000
  H   H30       1.0  0.95353  0.28576  0.91133  1.0000
  H   H31       1.0  0.95354  0.78577  0.58867  1.0000
  H   H32       1.0  0.04646  0.71423  0.08867  1.0000
  C   C1        1.0  0.76743  0.71223  0.24096  1.0000
  C   C2        1.0  0.23257  0.78777  0.74096  1.0000
  C   C3        1.0  0.23257  0.28777  0.75904  1.0000
  C   C4        1.0  0.76744  0.21223  0.25904  1.0000
  C   C5        1.0  0.59618  0.49287  0.51720  1.0000
  C   C6        1.0  0.40383  0.00714  0.01720  1.0000
  C   C7        1.0  0.40382  0.50714  0.48280  1.0000
  C   C8        1.0  0.59618  0.99286  0.98280  1.0000
  C   C9        1.0  0.36639  0.60751  0.13999  1.0000
  C   C10       1.0  0.63361  0.89248  0.63999  1.0000
  C   C11       1.0  0.63360  0.39248  0.86001  1.0000
  C   C12       1.0  0.36639  0.10751  0.36001  1.0000
  C   C13       1.0  0.39745  0.55573  0.20212  1.0000
  C   C14       1.0  0.60256  0.94427  0.70212  1.0000
  C   C15       1.0  0.60255  0.44428  0.79788  1.0000
  C   C16       1.0  0.39745  0.05572  0.29788  1.0000
  C   C17       1.0  0.55559  0.60174  0.24326  1.0000
  C   C18       1.0  0.44441  0.89826  0.74326  1.0000
  C   C19       1.0  0.44441  0.39826  0.75674  1.0000
  C   C20       1.0  0.55560  0.10173  0.25674  1.0000
  C   C21       1.0  0.29512  0.43763  0.28969  1.0000
  C   C22       1.0  0.70488  0.06237  0.78969  1.0000
  C   C23       1.0  0.70488  0.56237  0.71031  1.0000
  C   C24       1.0  0.29512  0.93764  0.21031  1.0000
  N   N1        1.0  0.23681  0.45150  0.23359  1.0000
  N   N2        1.0  0.76319  0.04850  0.73359  1.0000
  N   N3        1.0  0.76319  0.54850  0.76641  1.0000
  N   N4        1.0  0.23681  0.95150  0.26641  1.0000
  N   N5        1.0  0.48779  0.52620  0.29726  1.0000
  N   N6        1.0  0.51221  0.97380  0.79726  1.0000
  N   N7        1.0  0.51221  0.47380  0.70274  1.0000
  N   N8        1.0  0.48780  0.02620  0.20274  1.0000
  O   O1        1.0  0.83863  0.80396  0.19543  1.0000
  O   O2        1.0  0.16138  0.69603  0.69542  1.0000
  O   O3        1.0  0.16137  0.19603  0.80457  1.0000
  O   O4        1.0  0.83864  0.30397  0.30457  1.0000
  O   O5        1.0  0.95586  0.28936  0.42801  1.0000
  O   O6        1.0  0.04413  0.21064  0.92801  1.0000
  O   O7        1.0  0.04413  0.71065  0.57199  1.0000
  O   O8        1.0  0.95587  0.78936  0.07199  1.0000
  O   O9        1.0  0.76176  0.85974  0.39209  1.0000
  O   O10       1.0  0.23824  0.64026  0.89209  1.0000
  O   O11       1.0  0.23824  0.14026  0.60791  1.0000
  O   O12       1.0  0.76176  0.35974  0.10791  1.0000
  O   O13       1.0  0.51154  0.70673  0.11110  1.0000
  O   O14       1.0  0.48847  0.79326  0.61110  1.0000
  O   O15       1.0  0.48846  0.29327  0.88890  1.0000
  O   O16       1.0  0.51154  0.20674  0.38890  1.0000
  O   O17       1.0  0.76167  0.52856  0.48907  1.0000
  O   O18       1.0  0.23835  0.97146  0.98906  1.0000
  O   O19       1.0  0.23835  0.47146  0.51094  1.0000
  O   O20       1.0  0.76166  0.02855  0.01093  1.0000
  O   O21       1.0  0.57264  0.44657  0.57101  1.0000
  O   O22       1.0  0.42737  0.05342  0.07101  1.0000
  O   O23       1.0  0.42737  0.55341  0.42899  1.0000
  O   O24       1.0  0.57264  0.94657  0.92899  1.0000
  O   O25       1.0  0.18627  0.54968  0.11942  1.0000
  O   O26       1.0  0.81373  0.95031  0.61942  1.0000
  O   O27       1.0  0.81372  0.45031  0.88058  1.0000
  O   O28       1.0  0.18628  0.04969  0.38058  1.0000
  O   O29       1.0  0.10571  0.67438  0.39216  1.0000
  O   O30       1.0  0.89429  0.82562  0.89216  1.0000
  O   O31       1.0  0.89429  0.32562  0.60784  1.0000
  O   O32       1.0  0.10571  0.17438  0.10784  1.0000
  O   O33       1.0  0.87147  0.70932  0.28797  1.0000
  O   O34       1.0  0.12852  0.79068  0.78797  1.0000
  O   O35       1.0  0.12852  0.29069  0.71203  1.0000
  O   O36       1.0  0.87148  0.20931  0.21203  1.0000
