data_image0
_chemical_formula_structural       Zn4H48C52S4N16O24
_chemical_formula_sum              "Zn4 H48 C52 S4 N16 O24"
_cell_length_a       6.92824
_cell_length_b       10.649
_cell_length_c       19.709
_cell_angle_alpha    99.7966
_cell_angle_beta     90
_cell_angle_gamma    90

_space_group_name_H-M_alt    "P 1"
_space_group_IT_number       1

loop_
  _space_group_symop_operation_xyz
  'x, y, z'

loop_
  _atom_site_type_symbol
  _atom_site_label
  _atom_site_symmetry_multiplicity
  _atom_site_fract_x
  _atom_site_fract_y
  _atom_site_fract_z
  _atom_site_occupancy
  Zn  Zn1       1.0  0.16444  0.15777  0.82653  1.0000
  Zn  Zn2       1.0  0.66444  0.84223  0.67347  1.0000
  Zn  Zn3       1.0  0.83556  0.84223  0.17347  1.0000
  Zn  Zn4       1.0  0.33556  0.15777  0.32652  1.0000
  H   H1        1.0  0.84348  0.23253  0.77734  1.0000
  H   H2        1.0  0.34348  0.76747  0.72266  1.0000
  H   H3        1.0  0.15652  0.76747  0.22266  1.0000
  H   H4        1.0  0.65652  0.23253  0.27734  1.0000
  H   H5        1.0  0.82457  0.28657  0.86105  1.0000
  H   H6        1.0  0.32457  0.71344  0.63895  1.0000
  H   H7        1.0  0.17543  0.71344  0.13895  1.0000
  H   H8        1.0  0.67543  0.28656  0.36105  1.0000
  H   H9        1.0  0.12193  0.92426  0.82747  1.0000
  H   H10       1.0  0.62193  0.07574  0.67253  1.0000
  H   H11       1.0  0.87807  0.07574  0.17253  1.0000
  H   H12       1.0  0.37807  0.92426  0.32747  1.0000
  H   H13       1.0  0.90062  0.96446  0.81889  1.0000
  H   H14       1.0  0.40062  0.03554  0.68111  1.0000
  H   H15       1.0  0.09938  0.03554  0.18111  1.0000
  H   H16       1.0  0.59938  0.96446  0.31889  1.0000
  H   H17       1.0  0.45859  0.81274  0.93826  1.0000
  H   H18       1.0  0.95859  0.18726  0.56174  1.0000
  H   H19       1.0  0.54141  0.18726  0.06174  1.0000
  H   H20       1.0  0.04141  0.81274  0.43826  1.0000
  H   H21       1.0  0.40939  0.28489  0.72000  1.0000
  H   H22       1.0  0.90939  0.71511  0.78000  1.0000
  H   H23       1.0  0.59060  0.71512  0.28000  1.0000
  H   H24       1.0  0.09061  0.28488  0.22000  1.0000
  H   H25       1.0  0.55226  0.50313  0.71921  1.0000
  H   H26       1.0  0.05226  0.49687  0.78079  1.0000
  H   H27       1.0  0.44773  0.49688  0.28079  1.0000
  H   H28       1.0  0.94774  0.50313  0.21921  1.0000
  H   H29       1.0  0.52784  0.66671  0.82489  1.0000
  H   H30       1.0  0.02784  0.33329  0.67511  1.0000
  H   H31       1.0  0.47216  0.33329  0.17511  1.0000
  H   H32       1.0  0.97217  0.66671  0.32489  1.0000
  H   H33       1.0  0.37326  0.87674  0.06378  1.0000
  H   H34       1.0  0.87326  0.12326  0.43622  1.0000
  H   H35       1.0  0.62674  0.12326  0.93622  1.0000
  H   H36       1.0  0.12674  0.87674  0.56378  1.0000
  H   H37       1.0  0.13933  0.46321  0.11171  1.0000
  H   H38       1.0  0.63934  0.53680  0.38829  1.0000
  H   H39       1.0  0.86066  0.53680  0.88829  1.0000
  H   H40       1.0  0.36066  0.46320  0.61171  1.0000
  H   H41       1.0  0.04715  0.23004  0.09574  1.0000
  H   H42       1.0  0.54715  0.76996  0.40427  1.0000
  H   H43       1.0  0.95285  0.76996  0.90427  1.0000
  H   H44       1.0  0.45285  0.23004  0.59573  1.0000
  H   H45       1.0  0.07216  0.09861  0.97804  1.0000
  H   H46       1.0  0.57216  0.90139  0.52196  1.0000
  H   H47       1.0  0.92784  0.90139  0.02196  1.0000
  H   H48       1.0  0.42784  0.09861  0.47804  1.0000
  C   C1        1.0  0.40837  0.35851  0.76576  1.0000
  C   C2        1.0  0.90837  0.64149  0.73424  1.0000
  C   C3        1.0  0.59163  0.64149  0.23424  1.0000
  C   C4        1.0  0.09163  0.35851  0.26576  1.0000
  C   C5        1.0  0.48624  0.47998  0.76561  1.0000
  C   C6        1.0  0.98624  0.52002  0.73439  1.0000
  C   C7        1.0  0.51376  0.52002  0.23439  1.0000
  C   C8        1.0  0.01376  0.47998  0.26561  1.0000
  C   C9        1.0  0.47281  0.57098  0.82455  1.0000
  C   C10       1.0  0.97281  0.42902  0.67545  1.0000
  C   C11       1.0  0.52719  0.42902  0.17545  1.0000
  C   C12       1.0  0.02719  0.57098  0.32455  1.0000
  C   C13       1.0  0.38391  0.53905  0.88374  1.0000
  C   C14       1.0  0.88391  0.46095  0.61626  1.0000
  C   C15       1.0  0.61609  0.46095  0.11626  1.0000
  C   C16       1.0  0.11609  0.53905  0.38374  1.0000
  C   C17       1.0  0.35877  0.62158  0.94808  1.0000
  C   C18       1.0  0.85877  0.37842  0.55192  1.0000
  C   C19       1.0  0.64123  0.37842  0.05192  1.0000
  C   C20       1.0  0.14123  0.62158  0.44808  1.0000
  C   C21       1.0  0.35309  0.78066  0.03553  1.0000
  C   C22       1.0  0.85309  0.21934  0.46447  1.0000
  C   C23       1.0  0.64691  0.21934  0.96447  1.0000
  C   C24       1.0  0.14691  0.78066  0.53553  1.0000
  C   C25       1.0  0.28388  0.58088  0.00694  1.0000
  C   C26       1.0  0.78388  0.41912  0.49306  1.0000
  C   C27       1.0  0.71612  0.41912  0.99306  1.0000
  C   C28       1.0  0.21612  0.58088  0.50694  1.0000
  C   C29       1.0  0.22318  0.45178  0.00513  1.0000
  C   C30       1.0  0.72319  0.54822  0.49487  1.0000
  C   C31       1.0  0.77681  0.54822  0.99487  1.0000
  C   C32       1.0  0.27682  0.45178  0.50513  1.0000
  C   C33       1.0  0.15174  0.40112  0.06187  1.0000
  C   C34       1.0  0.65175  0.59888  0.43813  1.0000
  C   C35       1.0  0.84826  0.59888  0.93813  1.0000
  C   C36       1.0  0.34826  0.40112  0.56187  1.0000
  C   C37       1.0  0.10026  0.27372  0.05323  1.0000
  C   C38       1.0  0.60027  0.72628  0.44677  1.0000
  C   C39       1.0  0.89974  0.72628  0.94677  1.0000
  C   C40       1.0  0.39974  0.27371  0.55323  1.0000
  C   C41       1.0  0.11495  0.19858  0.98757  1.0000
  C   C42       1.0  0.61495  0.80142  0.51243  1.0000
  C   C43       1.0  0.88505  0.80142  0.01243  1.0000
  C   C44       1.0  0.38505  0.19858  0.48756  1.0000
  C   C45       1.0  0.23622  0.36844  0.94073  1.0000
  C   C46       1.0  0.73622  0.63155  0.55927  1.0000
  C   C47       1.0  0.76378  0.63156  0.05927  1.0000
  C   C48       1.0  0.26378  0.36845  0.44073  1.0000
  C   C49       1.0  0.31565  0.41204  0.88031  1.0000
  C   C50       1.0  0.81565  0.58796  0.61969  1.0000
  C   C51       1.0  0.68435  0.58796  0.11969  1.0000
  C   C52       1.0  0.18435  0.41204  0.38031  1.0000
  S   S1        1.0  0.49555  0.93389  0.82995  1.0000
  S   S2        1.0  0.99555  0.06611  0.67005  1.0000
  S   S3        1.0  0.50445  0.06611  0.17005  1.0000
  S   S4        1.0  0.00445  0.93389  0.32995  1.0000
  N   N1        1.0  0.32561  0.32661  0.82132  1.0000
  N   N2        1.0  0.82561  0.67339  0.67868  1.0000
  N   N3        1.0  0.67438  0.67339  0.17868  1.0000
  N   N4        1.0  0.17438  0.32661  0.32132  1.0000
  N   N5        1.0  0.17978  0.24504  0.93329  1.0000
  N   N6        1.0  0.67978  0.75496  0.56671  1.0000
  N   N7        1.0  0.82022  0.75496  0.06671  1.0000
  N   N8        1.0  0.32023  0.24503  0.43329  1.0000
  N   N9        1.0  0.40094  0.74854  0.96791  1.0000
  N   N10       1.0  0.90094  0.25146  0.53209  1.0000
  N   N11       1.0  0.59906  0.25146  0.03209  1.0000
  N   N12       1.0  0.09906  0.74854  0.46791  1.0000
  N   N13       1.0  0.28276  0.68174  0.06110  1.0000
  N   N14       1.0  0.78277  0.31826  0.43890  1.0000
  N   N15       1.0  0.71723  0.31826  0.93890  1.0000
  N   N16       1.0  0.21723  0.68174  0.56110  1.0000
  O   O1        1.0  0.91340  0.27048  0.81967  1.0000
  O   O2        1.0  0.41340  0.72953  0.68033  1.0000
  O   O3        1.0  0.08660  0.72953  0.18033  1.0000
  O   O4        1.0  0.58660  0.27047  0.31967  1.0000
  O   O5        1.0  0.44285  0.06628  0.82297  1.0000
  O   O6        1.0  0.94285  0.93372  0.67703  1.0000
  O   O7        1.0  0.55715  0.93372  0.17703  1.0000
  O   O8        1.0  0.05715  0.06628  0.32297  1.0000
  O   O9        1.0  0.02201  0.99050  0.84403  1.0000
  O   O10       1.0  0.52201  0.00950  0.65597  1.0000
  O   O11       1.0  0.97799  0.00950  0.15597  1.0000
  O   O12       1.0  0.47799  0.99050  0.34403  1.0000
  O   O13       1.0  0.66678  0.89253  0.78431  1.0000
  O   O14       1.0  0.16678  0.10747  0.71569  1.0000
  O   O15       1.0  0.33322  0.10746  0.21569  1.0000
  O   O16       1.0  0.83322  0.89253  0.28431  1.0000
  O   O17       1.0  0.55124  0.92723  0.90184  1.0000
  O   O18       1.0  0.05125  0.07277  0.59816  1.0000
  O   O19       1.0  0.44875  0.07277  0.09816  1.0000
  O   O20       1.0  0.94875  0.92723  0.40184  1.0000
  O   O21       1.0  0.32892  0.84572  0.80843  1.0000
  O   O22       1.0  0.82892  0.15428  0.69157  1.0000
  O   O23       1.0  0.67107  0.15428  0.19157  1.0000
  O   O24       1.0  0.17108  0.84572  0.30843  1.0000
