data_image0
_chemical_formula_structural       Mn4H48C52S4N16O24
_chemical_formula_sum              "Mn4 H48 C52 S4 N16 O24"
_cell_length_a       6.95813
_cell_length_b       10.7912
_cell_length_c       19.5248
_cell_angle_alpha    99.2292
_cell_angle_beta     90.0018
_cell_angle_gamma    89.9987

_space_group_name_H-M_alt    "P 1"
_space_group_IT_number       1

loop_
  _space_group_symop_operation_xyz
  'x, y, z'

loop_
  _atom_site_type_symbol
  _atom_site_label
  _atom_site_symmetry_multiplicity
  _atom_site_fract_x
  _atom_site_fract_y
  _atom_site_fract_z
  _atom_site_occupancy
  Mn  Mn1       1.0  0.83117  0.65688  0.82715  1.0000
  Mn  Mn2       1.0  0.33117  0.34311  0.67284  1.0000
  Mn  Mn3       1.0  0.16885  0.34306  0.17289  1.0000
  Mn  Mn4       1.0  0.66886  0.65696  0.32713  1.0000
  H   H1        1.0  0.15410  0.73390  0.77427  1.0000
  H   H2        1.0  0.65408  0.26611  0.72572  1.0000
  H   H3        1.0  0.84590  0.26606  0.22571  1.0000
  H   H4        1.0  0.34591  0.73391  0.27429  1.0000
  H   H5        1.0  0.10086  0.45848  0.82365  1.0000
  H   H6        1.0  0.60085  0.54151  0.67635  1.0000
  H   H7        1.0  0.89908  0.54147  0.17639  1.0000
  H   H8        1.0  0.39912  0.45858  0.32361  1.0000
  H   H9        1.0  0.57069  0.78992  0.72418  1.0000
  H   H10       1.0  0.07070  0.21008  0.77582  1.0000
  H   H11       1.0  0.42936  0.21004  0.27583  1.0000
  H   H12       1.0  0.92934  0.78992  0.22417  1.0000
  H   H13       1.0  0.43649  0.00639  0.72201  1.0000
  H   H14       1.0  0.93648  0.99362  0.77799  1.0000
  H   H15       1.0  0.56352  0.99356  0.27799  1.0000
  H   H16       1.0  0.06349  0.00640  0.22201  1.0000
  H   H17       1.0  0.46907  0.16853  0.82735  1.0000
  H   H18       1.0  0.96907  0.83147  0.67265  1.0000
  H   H19       1.0  0.53089  0.83142  0.17264  1.0000
  H   H20       1.0  0.03088  0.16855  0.32735  1.0000
  H   H21       1.0  0.86769  0.97147  0.11586  1.0000
  H   H22       1.0  0.36767  0.02853  0.38414  1.0000
  H   H23       1.0  0.13232  0.02856  0.88414  1.0000
  H   H24       1.0  0.63233  0.97145  0.61585  1.0000
  H   H25       1.0  0.96110  0.74215  0.10184  1.0000
  H   H26       1.0  0.46110  0.25784  0.39816  1.0000
  H   H27       1.0  0.03893  0.25787  0.89817  1.0000
  H   H28       1.0  0.53894  0.74214  0.60182  1.0000
  H   H29       1.0  0.92726  0.60951  0.98541  1.0000
  H   H30       1.0  0.42725  0.39049  0.51459  1.0000
  H   H31       1.0  0.07273  0.39050  0.01460  1.0000
  H   H32       1.0  0.57274  0.60950  0.48539  1.0000
  H   H33       1.0  0.63091  0.37601  0.06580  1.0000
  H   H34       1.0  0.13091  0.62399  0.43419  1.0000
  H   H35       1.0  0.36913  0.62400  0.93419  1.0000
  H   H36       1.0  0.86914  0.37599  0.56581  1.0000
  H   H37       1.0  0.53981  0.31299  0.94065  1.0000
  H   H38       1.0  0.03980  0.68701  0.55935  1.0000
  H   H39       1.0  0.46026  0.68705  0.05935  1.0000
  H   H40       1.0  0.96026  0.31295  0.44065  1.0000
  H   H41       1.0  0.87932  0.42071  0.83184  1.0000
  H   H42       1.0  0.37930  0.57929  0.66815  1.0000
  H   H43       1.0  0.12061  0.57924  0.16818  1.0000
  H   H44       1.0  0.62064  0.42078  0.33181  1.0000
  H   H45       1.0  0.17502  0.78707  0.85877  1.0000
  H   H46       1.0  0.67501  0.21293  0.64123  1.0000
  H   H47       1.0  0.82497  0.21287  0.14123  1.0000
  H   H48       1.0  0.32497  0.78712  0.35877  1.0000
  C   C1        1.0  0.57791  0.86312  0.76966  1.0000
  C   C2        1.0  0.07791  0.13689  0.73035  1.0000
  C   C3        1.0  0.42211  0.13684  0.23035  1.0000
  C   C4        1.0  0.92210  0.86313  0.26965  1.0000
  C   C5        1.0  0.50424  0.98364  0.76861  1.0000
  C   C6        1.0  0.00425  0.01636  0.73138  1.0000
  C   C7        1.0  0.49575  0.01633  0.23139  1.0000
  C   C8        1.0  0.99576  0.98366  0.26861  1.0000
  C   C9        1.0  0.52231  0.07381  0.82724  1.0000
  C   C10       1.0  0.02232  0.92620  0.67276  1.0000
  C   C11       1.0  0.47767  0.92616  0.17276  1.0000
  C   C12       1.0  0.97767  0.07382  0.32724  1.0000
  C   C13       1.0  0.61304  0.04206  0.88668  1.0000
  C   C14       1.0  0.11305  0.95794  0.61332  1.0000
  C   C15       1.0  0.38694  0.95793  0.11332  1.0000
  C   C16       1.0  0.88694  0.04207  0.38668  1.0000
  C   C17       1.0  0.67862  0.91632  0.88402  1.0000
  C   C18       1.0  0.17863  0.08368  0.61598  1.0000
  C   C19       1.0  0.32137  0.08367  0.11598  1.0000
  C   C20       1.0  0.82137  0.91633  0.38401  1.0000
  C   C21       1.0  0.76090  0.87394  0.94489  1.0000
  C   C22       1.0  0.26090  0.12606  0.55512  1.0000
  C   C23       1.0  0.23908  0.12606  0.05513  1.0000
  C   C24       1.0  0.73908  0.87395  0.44487  1.0000
  C   C25       1.0  0.77723  0.95708  0.00898  1.0000
  C   C26       1.0  0.27723  0.04291  0.49102  1.0000
  C   C27       1.0  0.22274  0.04293  0.99103  1.0000
  C   C28       1.0  0.72276  0.95709  0.50897  1.0000
  C   C29       1.0  0.85211  0.90895  0.06645  1.0000
  C   C30       1.0  0.35211  0.09105  0.43355  1.0000
  C   C31       1.0  0.14787  0.09107  0.93356  1.0000
  C   C32       1.0  0.64789  0.90895  0.56644  1.0000
  C   C33       1.0  0.90410  0.78369  0.05882  1.0000
  C   C34       1.0  0.40411  0.21630  0.44118  1.0000
  C   C35       1.0  0.09590  0.21633  0.94119  1.0000
  C   C36       1.0  0.59590  0.78368  0.55882  1.0000
  C   C37       1.0  0.88523  0.70816  0.99354  1.0000
  C   C38       1.0  0.38523  0.29183  0.50647  1.0000
  C   C39       1.0  0.11476  0.29185  0.00648  1.0000
  C   C40       1.0  0.61477  0.70816  0.49352  1.0000
  C   C41       1.0  0.71661  0.08410  0.01015  1.0000
  C   C42       1.0  0.21662  0.91590  0.48985  1.0000
  C   C43       1.0  0.28335  0.91591  0.98985  1.0000
  C   C44       1.0  0.78337  0.08409  0.51015  1.0000
  C   C45       1.0  0.64035  0.12403  0.95081  1.0000
  C   C46       1.0  0.14035  0.87597  0.54919  1.0000
  C   C47       1.0  0.35963  0.87597  0.04919  1.0000
  C   C48       1.0  0.85964  0.12402  0.45080  1.0000
  C   C49       1.0  0.64963  0.28117  0.03796  1.0000
  C   C50       1.0  0.14964  0.71882  0.46204  1.0000
  C   C51       1.0  0.35036  0.71883  0.96204  1.0000
  C   C52       1.0  0.85037  0.28116  0.53796  1.0000
  S   S1        1.0  0.00215  0.56855  0.66701  1.0000
  S   S2        1.0  0.50216  0.43144  0.83299  1.0000
  S   S3        1.0  0.99786  0.43152  0.33299  1.0000
  S   S4        1.0  0.49788  0.56849  0.16703  1.0000
  N   N1        1.0  0.66227  0.83079  0.82544  1.0000
  N   N2        1.0  0.16228  0.16921  0.67456  1.0000
  N   N3        1.0  0.33773  0.16919  0.17458  1.0000
  N   N4        1.0  0.83774  0.83081  0.32542  1.0000
  N   N5        1.0  0.81695  0.75201  0.93828  1.0000
  N   N6        1.0  0.31694  0.24799  0.56172  1.0000
  N   N7        1.0  0.18303  0.24800  0.06174  1.0000
  N   N8        1.0  0.68304  0.75201  0.43827  1.0000
  N   N9        1.0  0.72001  0.18372  0.06412  1.0000
  N   N10       1.0  0.22001  0.81628  0.43588  1.0000
  N   N11       1.0  0.27996  0.81629  0.93588  1.0000
  N   N12       1.0  0.77998  0.18371  0.56411  1.0000
  N   N13       1.0  0.59956  0.24933  0.97014  1.0000
  N   N14       1.0  0.09956  0.75067  0.52985  1.0000
  N   N15       1.0  0.40044  0.75067  0.02985  1.0000
  N   N16       1.0  0.90045  0.24932  0.47015  1.0000
  O   O1        1.0  0.08494  0.76865  0.81733  1.0000
  O   O2        1.0  0.58493  0.23136  0.68266  1.0000
  O   O3        1.0  0.91505  0.23122  0.18266  1.0000
  O   O4        1.0  0.41506  0.76878  0.31734  1.0000
  O   O5        1.0  0.97865  0.48627  0.84724  1.0000
  O   O6        1.0  0.47862  0.51373  0.65276  1.0000
  O   O7        1.0  0.02128  0.51368  0.15280  1.0000
  O   O8        1.0  0.52132  0.48634  0.34721  1.0000
  O   O9        1.0  0.83299  0.61087  0.71327  1.0000
  O   O10       1.0  0.33299  0.38913  0.78673  1.0000
  O   O11       1.0  0.16688  0.38943  0.28659  1.0000
  O   O12       1.0  0.66688  0.61058  0.21342  1.0000
  O   O13       1.0  0.05549  0.43866  0.67613  1.0000
  O   O14       1.0  0.55550  0.56134  0.82387  1.0000
  O   O15       1.0  0.94444  0.56150  0.32407  1.0000
  O   O16       1.0  0.44446  0.43849  0.17594  1.0000
  O   O17       1.0  0.94493  0.57203  0.59436  1.0000
  O   O18       1.0  0.44495  0.42796  0.90564  1.0000
  O   O19       1.0  0.05538  0.42774  0.40558  1.0000
  O   O20       1.0  0.55541  0.57228  0.09443  1.0000
  O   O21       1.0  0.16847  0.65567  0.68700  1.0000
  O   O22       1.0  0.66846  0.34432  0.81300  1.0000
  O   O23       1.0  0.83155  0.34442  0.31297  1.0000
  O   O24       1.0  0.33157  0.65558  0.18704  1.0000
