data_image0
_chemical_formula_structural       Zn4H32C58N8O16
_chemical_formula_sum              "Zn4 H32 C58 N8 O16"
_cell_length_a       9.08027
_cell_length_b       12.2868
_cell_length_c       13.982
_cell_angle_alpha    103.034
_cell_angle_beta     99.4957
_cell_angle_gamma    105.977

_space_group_name_H-M_alt    "P 1"
_space_group_IT_number       1

loop_
  _space_group_symop_operation_xyz
  'x, y, z'

loop_
  _atom_site_type_symbol
  _atom_site_label
  _atom_site_symmetry_multiplicity
  _atom_site_fract_x
  _atom_site_fract_y
  _atom_site_fract_z
  _atom_site_occupancy
  Zn  Zn1       1.0  0.04651  0.88711  0.59310  1.0000
  Zn  Zn2       1.0  0.95350  0.11290  0.40690  1.0000
  Zn  Zn3       1.0  0.86636  0.79160  0.82053  1.0000
  Zn  Zn4       1.0  0.13363  0.20839  0.17947  1.0000
  H   H1        1.0  0.71370  0.91888  0.05030  1.0000
  H   H2        1.0  0.28630  0.08111  0.94970  1.0000
  H   H3        1.0  0.43850  0.78231  0.96160  1.0000
  H   H4        1.0  0.56149  0.21768  0.03840  1.0000
  H   H5        1.0  0.22237  0.44172  0.90071  1.0000
  H   H6        1.0  0.77763  0.55827  0.09929  1.0000
  H   H7        1.0  0.33663  0.47757  0.33026  1.0000
  H   H8        1.0  0.66337  0.52243  0.66973  1.0000
  H   H9        1.0  0.29000  0.80428  0.44946  1.0000
  H   H10       1.0  0.71000  0.19572  0.55055  1.0000
  H   H11       1.0  0.43932  0.58569  0.85943  1.0000
  H   H12       1.0  0.56068  0.41431  0.14057  1.0000
  H   H13       1.0  0.57255  0.82203  0.51318  1.0000
  H   H14       1.0  0.42746  0.17798  0.48682  1.0000
  H   H15       1.0  0.06687  0.63708  0.58850  1.0000
  H   H16       1.0  0.93313  0.36292  0.41150  1.0000
  H   H17       1.0  0.27862  0.55436  0.64570  1.0000
  H   H18       1.0  0.72138  0.44564  0.35430  1.0000
  H   H19       1.0  0.85926  0.20645  0.88919  1.0000
  H   H20       1.0  0.14075  0.79355  0.11081  1.0000
  H   H21       1.0  0.99727  0.06107  0.90395  1.0000
  H   H22       1.0  0.00273  0.93892  0.09605  1.0000
  H   H23       1.0  0.54746  0.69328  0.73960  1.0000
  H   H24       1.0  0.45255  0.30673  0.26040  1.0000
  H   H25       1.0  0.59841  0.63970  0.40331  1.0000
  H   H26       1.0  0.40159  0.36030  0.59669  1.0000
  H   H27       1.0  0.14593  0.17028  0.66979  1.0000
  H   H28       1.0  0.85407  0.82973  0.33022  1.0000
  H   H29       1.0  0.39456  0.33689  0.76999  1.0000
  H   H30       1.0  0.60544  0.66312  0.23002  1.0000
  H   H31       1.0  0.63627  0.29062  0.83270  1.0000
  H   H32       1.0  0.36374  0.70938  0.16731  1.0000
  C   C1        1.0  0.61931  0.95358  0.02800  1.0000
  C   C2        1.0  0.38068  0.04642  0.97200  1.0000
  C   C3        1.0  0.46742  0.87793  0.97887  1.0000
  C   C4        1.0  0.53256  0.12207  0.02114  1.0000
  C   C5        1.0  0.34430  0.46773  0.94376  1.0000
  C   C6        1.0  0.65570  0.53228  0.05624  1.0000
  C   C7        1.0  0.40852  0.48855  0.40463  1.0000
  C   C8        1.0  0.59149  0.51144  0.59536  1.0000
  C   C9        1.0  0.38285  0.88968  0.47124  1.0000
  C   C10       1.0  0.61716  0.11032  0.52876  1.0000
  C   C11       1.0  0.46532  0.54735  0.92064  1.0000
  C   C12       1.0  0.53469  0.45265  0.07936  1.0000
  C   C13       1.0  0.53964  0.89956  0.50747  1.0000
  C   C14       1.0  0.46037  0.10044  0.49253  1.0000
  C   C15       1.0  0.37296  0.01241  0.71866  1.0000
  C   C16       1.0  0.62704  0.98760  0.28134  1.0000
  C   C17       1.0  0.35493  0.88774  0.69901  1.0000
  C   C18       1.0  0.64507  0.11226  0.30099  1.0000
  C   C19       1.0  0.18557  0.69468  0.62969  1.0000
  C   C20       1.0  0.81443  0.30532  0.37030  1.0000
  C   C21       1.0  0.30475  0.64950  0.66165  1.0000
  C   C22       1.0  0.69525  0.35050  0.33835  1.0000
  C   C23       1.0  0.63119  0.93889  0.78334  1.0000
  C   C24       1.0  0.36880  0.06111  0.21666  1.0000
  C   C25       1.0  0.80045  0.68596  0.58127  1.0000
  C   C26       1.0  0.19955  0.31404  0.41872  1.0000
  C   C27       1.0  0.64713  0.05901  0.80311  1.0000
  C   C28       1.0  0.35287  0.94099  0.19689  1.0000
  C   C29       1.0  0.87439  0.03729  0.86537  1.0000
  C   C30       1.0  0.12560  0.96271  0.13463  1.0000
  C   C31       1.0  0.45415  0.72664  0.71248  1.0000
  C   C32       1.0  0.54585  0.27336  0.28752  1.0000
  C   C33       1.0  0.34720  0.92370  0.95059  1.0000
  C   C34       1.0  0.65279  0.07630  0.04941  1.0000
  C   C35       1.0  0.52018  0.10055  0.77220  1.0000
  C   C36       1.0  0.47982  0.89946  0.22781  1.0000
  C   C37       1.0  0.48313  0.84917  0.73187  1.0000
  C   C38       1.0  0.51686  0.15083  0.26813  1.0000
  C   C39       1.0  0.55333  0.57786  0.44479  1.0000
  C   C40       1.0  0.44668  0.42213  0.55520  1.0000
  C   C41       1.0  0.18325  0.84087  0.89944  1.0000
  C   C42       1.0  0.81674  0.15912  0.10057  1.0000
  C   C43       1.0  0.64510  0.58969  0.53998  1.0000
  C   C44       1.0  0.35491  0.41030  0.46001  1.0000
  C   C45       1.0  0.25285  0.15363  0.70169  1.0000
  C   C46       1.0  0.74715  0.84637  0.29831  1.0000
  C   C47       1.0  0.82780  0.01890  0.56816  1.0000
  C   C48       1.0  0.17220  0.98110  0.43184  1.0000
  C   C49       1.0  0.62186  0.58022  0.97667  1.0000
  C   C50       1.0  0.37814  0.41977  0.02333  1.0000
  C   C51       1.0  0.39297  0.24575  0.75550  1.0000
  C   C52       1.0  0.60704  0.75425  0.24450  1.0000
  C   C53       1.0  0.75206  0.66795  0.95318  1.0000
  C   C54       1.0  0.24794  0.33205  0.04682  1.0000
  C   C55       1.0  0.52706  0.21969  0.79055  1.0000
  C   C56       1.0  0.47295  0.78032  0.20945  1.0000
  C   C57       1.0  0.65798  0.00996  0.53636  1.0000
  C   C58       1.0  0.34203  0.99005  0.46364  1.0000
  N   N1        1.0  0.21059  0.81022  0.64799  1.0000
  N   N2        1.0  0.78941  0.18977  0.35201  1.0000
  N   N3        1.0  0.24396  0.04051  0.68429  1.0000
  N   N4        1.0  0.75604  0.95950  0.31572  1.0000
  N   N5        1.0  0.77469  0.92784  0.82254  1.0000
  N   N6        1.0  0.22531  0.07216  0.17746  1.0000
  N   N7        1.0  0.80264  0.11854  0.85524  1.0000
  N   N8        1.0  0.19736  0.88146  0.14476  1.0000
  O   O1        1.0  0.93124  0.09698  0.54613  1.0000
  O   O2        1.0  0.06876  0.90302  0.45387  1.0000
  O   O3        1.0  0.08124  0.89464  0.87928  1.0000
  O   O4        1.0  0.91876  0.10535  0.12071  1.0000
  O   O5        1.0  0.86033  0.94751  0.61478  1.0000
  O   O6        1.0  0.13968  0.05249  0.38522  1.0000
  O   O7        1.0  0.86791  0.72666  0.51783  1.0000
  O   O8        1.0  0.13209  0.27334  0.48216  1.0000
  O   O9        1.0  0.86179  0.72186  0.67600  1.0000
  O   O10       1.0  0.13820  0.27814  0.32399  1.0000
  O   O11       1.0  0.72313  0.67032  0.85923  1.0000
  O   O12       1.0  0.27687  0.32968  0.14077  1.0000
  O   O13       1.0  0.15166  0.73184  0.88019  1.0000
  O   O14       1.0  0.84834  0.26816  0.11982  1.0000
  O   O15       1.0  0.87312  0.73156  0.02042  1.0000
  O   O16       1.0  0.12687  0.26844  0.97958  1.0000
