data_image0
_chemical_formula_structural       Co2H34C44N10O12
_chemical_formula_sum              "Co2 H34 C44 N10 O12"
_cell_length_a       9.32633
_cell_length_b       10.0753
_cell_length_c       12.1488
_cell_angle_alpha    102.734
_cell_angle_beta     108.962
_cell_angle_gamma    98.7596

_space_group_name_H-M_alt    "P 1"
_space_group_IT_number       1

loop_
  _space_group_symop_operation_xyz
  'x, y, z'

loop_
  _atom_site_type_symbol
  _atom_site_label
  _atom_site_symmetry_multiplicity
  _atom_site_fract_x
  _atom_site_fract_y
  _atom_site_fract_z
  _atom_site_occupancy
  Co  Co1       1.0  0.21462  0.92017  0.82729  1.0000
  Co  Co2       1.0  0.78538  0.07983  0.17271  1.0000
  H   H1        1.0  0.98631  0.13444  0.78357  1.0000
  H   H2        1.0  0.01369  0.86556  0.21643  1.0000
  H   H3        1.0  0.63579  0.62597  0.28925  1.0000
  H   H4        1.0  0.36420  0.37403  0.71075  1.0000
  H   H5        1.0  0.27567  0.29771  0.44355  1.0000
  H   H6        1.0  0.72433  0.70229  0.55645  1.0000
  H   H7        1.0  0.31097  0.66819  0.67494  1.0000
  H   H8        1.0  0.68903  0.33182  0.32506  1.0000
  H   H9        1.0  0.41688  0.41942  0.24309  1.0000
  H   H10       1.0  0.58312  0.58057  0.75691  1.0000
  H   H11       1.0  0.35643  0.03850  0.63931  1.0000
  H   H12       1.0  0.64358  0.96150  0.36070  1.0000
  H   H13       1.0  0.96570  0.70099  0.35825  1.0000
  H   H14       1.0  0.03430  0.29901  0.64175  1.0000
  H   H15       1.0  0.97638  0.89768  0.56215  1.0000
  H   H16       1.0  0.02362  0.10232  0.43784  1.0000
  H   H17       1.0  0.54439  0.26425  0.50745  1.0000
  H   H18       1.0  0.45561  0.73575  0.49255  1.0000
  H   H19       1.0  0.78684  0.02857  0.58108  1.0000
  H   H20       1.0  0.21316  0.97143  0.41892  1.0000
  H   H21       1.0  0.18555  0.35727  0.04634  1.0000
  H   H22       1.0  0.81444  0.64273  0.95366  1.0000
  H   H23       1.0  0.72765  0.19852  0.79534  1.0000
  H   H24       1.0  0.27235  0.80148  0.20466  1.0000
  H   H25       1.0  0.58887  0.07088  0.81115  1.0000
  H   H26       1.0  0.41113  0.92912  0.18885  1.0000
  H   H27       1.0  0.94500  0.76179  0.88525  1.0000
  H   H28       1.0  0.05500  0.23821  0.11474  1.0000
  H   H29       1.0  0.66248  0.84567  0.84796  1.0000
  H   H30       1.0  0.33752  0.15433  0.15204  1.0000
  H   H31       1.0  0.14952  0.54869  0.32650  1.0000
  H   H32       1.0  0.85048  0.45131  0.67350  1.0000
  H   H33       1.0  0.09952  0.43558  0.40747  1.0000
  H   H34       1.0  0.90049  0.56442  0.59253  1.0000
  C   C1        1.0  0.52438  0.68226  0.12834  1.0000
  C   C2        1.0  0.47561  0.31773  0.87166  1.0000
  C   C3        1.0  0.37419  0.74777  0.93879  1.0000
  C   C4        1.0  0.62581  0.25223  0.06121  1.0000
  C   C5        1.0  0.39331  0.65169  0.02001  1.0000
  C   C6        1.0  0.60669  0.34831  0.97999  1.0000
  C   C7        1.0  0.93632  0.04313  0.80430  1.0000
  C   C8        1.0  0.06368  0.95687  0.19570  1.0000
  C   C9        1.0  0.58281  0.03904  0.62742  1.0000
  C   C10       1.0  0.41720  0.96096  0.37258  1.0000
  C   C11       1.0  0.53163  0.59825  0.20687  1.0000
  C   C12       1.0  0.46836  0.40175  0.79313  1.0000
  C   C13       1.0  0.37424  0.38683  0.46837  1.0000
  C   C14       1.0  0.62577  0.61317  0.53163  1.0000
  C   C15       1.0  0.27492  0.53185  0.99470  1.0000
  C   C16       1.0  0.72508  0.46815  0.00530  1.0000
  C   C17       1.0  0.21877  0.70346  0.61681  1.0000
  C   C18       1.0  0.78123  0.29654  0.38319  1.0000
  C   C19       1.0  0.40971  0.48342  0.18114  1.0000
  C   C20       1.0  0.59029  0.51658  0.81885  1.0000
  C   C21       1.0  0.34642  0.51874  0.46390  1.0000
  C   C22       1.0  0.65359  0.48127  0.53610  1.0000
  C   C23       1.0  0.42071  0.02266  0.57894  1.0000
  C   C24       1.0  0.57929  0.97735  0.42106  1.0000
  C   C25       1.0  0.03835  0.72357  0.45335  1.0000
  C   C26       1.0  0.96165  0.27643  0.54665  1.0000
  C   C27       1.0  0.04341  0.81949  0.55508  1.0000
  C   C28       1.0  0.95659  0.18051  0.44492  1.0000
  C   C29       1.0  0.52588  0.36785  0.50392  1.0000
  C   C30       1.0  0.47412  0.63215  0.49608  1.0000
  C   C31       1.0  0.66055  0.01563  0.54651  1.0000
  C   C32       1.0  0.33945  0.98437  0.45349  1.0000
  C   C33       1.0  0.28074  0.44919  0.07356  1.0000
  C   C34       1.0  0.71926  0.55081  0.92644  1.0000
  C   C35       1.0  0.66965  0.08610  0.76414  1.0000
  C   C36       1.0  0.33035  0.91391  0.23586  1.0000
  C   C37       1.0  0.90879  0.84976  0.85652  1.0000
  C   C38       1.0  0.09120  0.15023  0.14348  1.0000
  C   C39       1.0  0.76994  0.88921  0.83772  1.0000
  C   C40       1.0  0.23006  0.11079  0.16228  1.0000
  C   C41       1.0  0.18033  0.53278  0.41717  1.0000
  C   C42       1.0  0.81967  0.46722  0.58283  1.0000
  C   C43       1.0  0.65829  0.80824  0.16816  1.0000
  C   C44       1.0  0.34170  0.19175  0.83184  1.0000
  N   N1        1.0  0.78989  0.01140  0.80454  1.0000
  N   N2        1.0  0.21011  0.98860  0.19546  1.0000
  N   N3        1.0  0.01127  0.94619  0.83507  1.0000
  N   N4        1.0  0.98873  0.05381  0.16493  1.0000
  N   N5        1.0  0.15644  0.80616  0.65651  1.0000
  N   N6        1.0  0.84356  0.19385  0.34349  1.0000
  N   N7        1.0  0.15013  0.65128  0.49407  1.0000
  N   N8        1.0  0.84987  0.34872  0.50593  1.0000
  N   N9        1.0  0.13945  0.48681  0.88064  1.0000
  N   N10       1.0  0.86056  0.51319  0.11935  1.0000
  O   O1        1.0  0.26773  0.81516  0.94479  1.0000
  O   O2        1.0  0.73227  0.18484  0.05521  1.0000
  O   O3        1.0  0.45215  0.75582  0.87375  1.0000
  O   O4        1.0  0.54784  0.24418  0.12625  1.0000
  O   O5        1.0  0.15211  0.52758  0.79405  1.0000
  O   O6        1.0  0.84789  0.47242  0.20594  1.0000
  O   O7        1.0  0.01825  0.40813  0.87438  1.0000
  O   O8        1.0  0.98175  0.59186  0.12561  1.0000
  O   O9        1.0  0.79080  0.80762  0.23779  1.0000
  O   O10       1.0  0.20920  0.19238  0.76221  1.0000
  O   O11       1.0  0.62262  0.91333  0.12939  1.0000
  O   O12       1.0  0.37738  0.08667  0.87062  1.0000
