data_image0
_chemical_formula_structural       Ag4H40C48N12O12
_chemical_formula_sum              "Ag4 H40 C48 N12 O12"
_cell_length_a       6.72444
_cell_length_b       14.2706
_cell_length_c       14.6553
_cell_angle_alpha    119.498
_cell_angle_beta     101.986
_cell_angle_gamma    89.597

_space_group_name_H-M_alt    "P 1"
_space_group_IT_number       1

loop_
  _space_group_symop_operation_xyz
  'x, y, z'

loop_
  _atom_site_type_symbol
  _atom_site_label
  _atom_site_symmetry_multiplicity
  _atom_site_fract_x
  _atom_site_fract_y
  _atom_site_fract_z
  _atom_site_occupancy
  Ag  Ag1       1.0  0.16356  0.03320  0.27892  1.0000
  Ag  Ag2       1.0  0.33527  0.75401  0.72154  1.0000
  Ag  Ag3       1.0  0.83645  0.96680  0.72108  1.0000
  Ag  Ag4       1.0  0.66474  0.24599  0.27846  1.0000
  H   H1        1.0  0.21391  0.15221  0.19180  1.0000
  H   H2        1.0  0.28591  0.95966  0.80966  1.0000
  H   H3        1.0  0.78611  0.84780  0.80821  1.0000
  H   H4        1.0  0.71409  0.04035  0.19034  1.0000
  H   H5        1.0  0.23741  0.25452  0.09745  1.0000
  H   H6        1.0  0.26280  0.15749  0.90487  1.0000
  H   H7        1.0  0.76259  0.74549  0.90256  1.0000
  H   H8        1.0  0.73719  0.84251  0.09514  1.0000
  H   H9        1.0  0.42454  0.88663  0.25806  1.0000
  H   H10       1.0  0.07631  0.62793  0.74172  1.0000
  H   H11       1.0  0.57545  0.11337  0.74194  1.0000
  H   H12       1.0  0.92369  0.37207  0.25828  1.0000
  H   H13       1.0  0.33984  0.80436  0.36218  1.0000
  H   H14       1.0  0.16160  0.44013  0.63690  1.0000
  H   H15       1.0  0.66016  0.19564  0.63782  1.0000
  H   H16       1.0  0.83840  0.55987  0.36310  1.0000
  H   H17       1.0  0.07184  0.64709  0.27429  1.0000
  H   H18       1.0  0.43029  0.36963  0.72402  1.0000
  H   H19       1.0  0.92815  0.35291  0.72570  1.0000
  H   H20       1.0  0.56970  0.63037  0.27599  1.0000
  H   H21       1.0  0.89396  0.56937  0.08156  1.0000
  H   H22       1.0  0.60770  0.48484  0.91695  1.0000
  H   H23       1.0  0.10603  0.43063  0.91843  1.0000
  H   H24       1.0  0.39229  0.51516  0.08305  1.0000
  H   H25       1.0  0.97682  0.65151  0.97697  1.0000
  H   H26       1.0  0.52420  0.67301  0.02237  1.0000
  H   H27       1.0  0.02317  0.34849  0.02302  1.0000
  H   H28       1.0  0.47580  0.32699  0.97762  1.0000
  H   H29       1.0  0.94409  0.83810  0.45474  1.0000
  H   H30       1.0  0.55745  0.38197  0.54450  1.0000
  H   H31       1.0  0.05592  0.16190  0.54526  1.0000
  H   H32       1.0  0.44256  0.61804  0.45551  1.0000
  H   H33       1.0  0.73717  0.77756  0.33788  1.0000
  H   H34       1.0  0.76442  0.43806  0.66119  1.0000
  H   H35       1.0  0.26283  0.22244  0.66211  1.0000
  H   H36       1.0  0.23558  0.56194  0.33882  1.0000
  H   H37       1.0  0.70672  0.89687  0.45712  1.0000
  H   H38       1.0  0.79449  0.43700  0.54208  1.0000
  H   H39       1.0  0.29328  0.10313  0.54288  1.0000
  H   H40       1.0  0.20551  0.56300  0.45792  1.0000
  C   C1        1.0  0.23573  0.83426  0.05417  1.0000
  C   C2        1.0  0.26497  0.77977  0.94596  1.0000
  C   C3        1.0  0.76427  0.16574  0.94583  1.0000
  C   C4        1.0  0.73503  0.22024  0.05404  1.0000
  C   C5        1.0  0.24075  0.99766  0.05526  1.0000
  C   C6        1.0  0.25880  0.94253  0.94576  1.0000
  C   C7        1.0  0.75926  0.00235  0.94475  1.0000
  C   C8        1.0  0.74121  0.05747  0.05424  1.0000
  C   C9        1.0  0.23188  0.11107  0.10892  1.0000
  C   C10       1.0  0.26774  0.00206  0.89255  1.0000
  C   C11       1.0  0.76813  0.88894  0.89108  1.0000
  C   C12       1.0  0.73227  0.99793  0.10744  1.0000
  C   C13       1.0  0.24111  0.16700  0.05512  1.0000
  C   C14       1.0  0.25875  0.11241  0.94678  1.0000
  C   C15       1.0  0.75890  0.83300  0.94488  1.0000
  C   C16       1.0  0.74126  0.88759  0.05322  1.0000
  C   C17       1.0  0.20439  0.77566  0.11087  1.0000
  C   C18       1.0  0.29670  0.66379  0.88875  1.0000
  C   C19       1.0  0.79561  0.22433  0.88913  1.0000
  C   C20       1.0  0.70330  0.33622  0.11125  1.0000
  C   C21       1.0  0.30884  0.81668  0.21897  1.0000
  C   C22       1.0  0.19230  0.59660  0.78055  1.0000
  C   C23       1.0  0.69117  0.18333  0.78103  1.0000
  C   C24       1.0  0.80771  0.40340  0.21945  1.0000
  C   C25       1.0  0.26378  0.76939  0.27712  1.0000
  C   C26       1.0  0.23770  0.49036  0.72198  1.0000
  C   C27       1.0  0.73621  0.23061  0.72287  1.0000
  C   C28       1.0  0.76230  0.50964  0.27802  1.0000
  C   C29       1.0  0.11308  0.68132  0.22782  1.0000
  C   C30       1.0  0.38873  0.45093  0.77090  1.0000
  C   C31       1.0  0.88692  0.31868  0.77217  1.0000
  C   C32       1.0  0.61125  0.54907  0.22910  1.0000
  C   C33       1.0  0.01143  0.63826  0.11958  1.0000
  C   C34       1.0  0.49017  0.51624  0.87922  1.0000
  C   C35       1.0  0.98857  0.36174  0.88041  1.0000
  C   C36       1.0  0.50983  0.48375  0.12078  1.0000
  C   C37       1.0  0.05798  0.68452  0.06096  1.0000
  C   C38       1.0  0.44327  0.62191  0.93832  1.0000
  C   C39       1.0  0.94202  0.31548  0.93903  1.0000
  C   C40       1.0  0.55672  0.37810  0.06168  1.0000
  C   C41       1.0  0.89044  0.91980  0.36874  1.0000
  C   C42       1.0  0.61051  0.55017  0.63063  1.0000
  C   C43       1.0  0.10956  0.08019  0.63126  1.0000
  C   C44       1.0  0.38949  0.44983  0.36937  1.0000
  C   C45       1.0  0.81466  0.85482  0.40700  1.0000
  C   C46       1.0  0.68673  0.44614  0.59224  1.0000
  C   C47       1.0  0.18534  0.14518  0.59300  1.0000
  C   C48       1.0  0.31327  0.55386  0.40777  1.0000
  N   N1        1.0  0.22702  0.94097  0.10653  1.0000
  N   N2        1.0  0.27280  0.83397  0.89401  1.0000
  N   N3        1.0  0.77298  0.05903  0.89346  1.0000
  N   N4        1.0  0.72721  0.16604  0.10599  1.0000
  N   N5        1.0  0.95664  0.97149  0.33823  1.0000
  N   N6        1.0  0.54405  0.63308  0.66122  1.0000
  N   N7        1.0  0.04336  0.02850  0.66176  1.0000
  N   N8        1.0  0.45595  0.36693  0.33878  1.0000
  N   N9        1.0  0.11360  0.28686  0.41842  1.0000
  N   N10       1.0  0.38595  0.86850  0.58224  1.0000
  N   N11       1.0  0.88639  0.71314  0.58158  1.0000
  N   N12       1.0  0.61404  0.13150  0.41776  1.0000
  O   O1        1.0  0.02716  0.20917  0.32226  1.0000
  O   O2        1.0  0.47121  0.88687  0.67823  1.0000
  O   O3        1.0  0.97284  0.79083  0.67774  1.0000
  O   O4        1.0  0.52879  0.11313  0.32178  1.0000
  O   O5        1.0  0.25792  0.26870  0.47519  1.0000
  O   O6        1.0  0.24107  0.79428  0.52490  1.0000
  O   O7        1.0  0.74208  0.73130  0.52481  1.0000
  O   O8        1.0  0.75892  0.20571  0.47511  1.0000
  O   O9        1.0  0.04893  0.37836  0.45121  1.0000
  O   O10       1.0  0.45199  0.92647  0.54978  1.0000
  O   O11       1.0  0.95107  0.62164  0.54879  1.0000
  O   O12       1.0  0.54801  0.07352  0.45022  1.0000
