data_image0
_chemical_formula_structural       Cs2H14C16O16
_chemical_formula_sum              "Cs2 H14 C16 O16"
_cell_length_a       5.10264
_cell_length_b       10.033
_cell_length_c       12.5162
_cell_angle_alpha    93.7171
_cell_angle_beta     99.7664
_cell_angle_gamma    68.9572

_space_group_name_H-M_alt    "P 1"
_space_group_IT_number       1

loop_
  _space_group_symop_operation_xyz
  'x, y, z'

loop_
  _atom_site_type_symbol
  _atom_site_label
  _atom_site_symmetry_multiplicity
  _atom_site_fract_x
  _atom_site_fract_y
  _atom_site_fract_z
  _atom_site_occupancy
  Cs  Cs1       1.0  0.81108  0.37500  0.13854  1.0000
  Cs  Cs2       1.0  0.18891  0.62499  0.86147  1.0000
  H   H1        1.0  0.35850  0.96096  0.27604  1.0000
  H   H2        1.0  0.64147  0.03904  0.72395  1.0000
  H   H3        1.0  0.44085  0.75711  0.16679  1.0000
  H   H4        1.0  0.55911  0.24290  0.83319  1.0000
  H   H5        1.0  0.83222  0.95027  0.08570  1.0000
  H   H6        1.0  0.16775  0.04973  0.91427  1.0000
  H   H7        1.0  0.35133  0.16110  0.34653  1.0000
  H   H8        1.0  0.64868  0.83891  0.65349  1.0000
  H   H9        1.0  0.84001  0.11081  0.49049  1.0000
  H   H10       1.0  0.16002  0.88918  0.50952  1.0000
  H   H11       1.0  0.65183  0.21425  0.64623  1.0000
  H   H12       1.0  0.34820  0.78574  0.35378  1.0000
  H   H13       1.0  0.08387  0.40199  0.59607  1.0000
  H   H14       1.0  0.91611  0.59804  0.40395  1.0000
  C   C1        1.0  0.60678  0.06843  0.21738  1.0000
  C   C2        1.0  0.39323  0.93156  0.78261  1.0000
  C   C3        1.0  0.49973  0.94831  0.21676  1.0000
  C   C4        1.0  0.50026  0.05170  0.78324  1.0000
  C   C5        1.0  0.54436  0.83143  0.15279  1.0000
  C   C6        1.0  0.45564  0.16857  0.84721  1.0000
  C   C7        1.0  0.71121  0.78338  0.06181  1.0000
  C   C8        1.0  0.28879  0.21663  0.93819  1.0000
  C   C9        1.0  0.11391  0.22840  0.47460  1.0000
  C   C10       1.0  0.88610  0.77161  0.52540  1.0000
  C   C11       1.0  0.90953  0.19513  0.52998  1.0000
  C   C12       1.0  0.09051  0.80486  0.47002  1.0000
  C   C13       1.0  0.80083  0.25508  0.61964  1.0000
  C   C14       1.0  0.19918  0.74492  0.38037  1.0000
  C   C15       1.0  0.84373  0.37168  0.69222  1.0000
  C   C16       1.0  0.15627  0.62832  0.30779  1.0000
  O   O1        1.0  0.78208  0.06764  0.15626  1.0000
  O   O2        1.0  0.21789  0.93235  0.84372  1.0000
  O   O3        1.0  0.51273  0.17369  0.28221  1.0000
  O   O4        1.0  0.48729  0.82631  0.71778  1.0000
  O   O5        1.0  0.85453  0.85880  0.03407  1.0000
  O   O6        1.0  0.14543  0.14119  0.96591  1.0000
  O   O7        1.0  0.71100  0.67179  0.01235  1.0000
  O   O8        1.0  0.28901  0.32818  0.98766  1.0000
  O   O9        1.0  0.20192  0.13875  0.39718  1.0000
  O   O10       1.0  0.79813  0.86125  0.60284  1.0000
  O   O11       1.0  0.19331  0.33267  0.50014  1.0000
  O   O12       1.0  0.80666  0.66734  0.49986  1.0000
  O   O13       1.0  0.00726  0.43927  0.66938  1.0000
  O   O14       1.0  0.99273  0.56074  0.33064  1.0000
  O   O15       1.0  0.72580  0.40319  0.77387  1.0000
  O   O16       1.0  0.27420  0.59679  0.22613  1.0000
