data_image0
_chemical_formula_structural       Rb2H14C16O16
_chemical_formula_sum              "Rb2 H14 C16 O16"
_cell_length_a       5.53218
_cell_length_b       9.81959
_cell_length_c       10.7978
_cell_angle_alpha    80.6159
_cell_angle_beta     88.3956
_cell_angle_gamma    72.1747

_space_group_name_H-M_alt    "P 1"
_space_group_IT_number       1

loop_
  _space_group_symop_operation_xyz
  'x, y, z'

loop_
  _atom_site_type_symbol
  _atom_site_label
  _atom_site_symmetry_multiplicity
  _atom_site_fract_x
  _atom_site_fract_y
  _atom_site_fract_z
  _atom_site_occupancy
  Rb  Rb1       1.0  0.79452  0.36496  0.14791  1.0000
  Rb  Rb2       1.0  0.20549  0.63503  0.85210  1.0000
  H   H1        1.0  0.25301  0.97803  0.25711  1.0000
  H   H2        1.0  0.74697  0.02196  0.74288  1.0000
  H   H3        1.0  0.28730  0.78986  0.14481  1.0000
  H   H4        1.0  0.71272  0.21013  0.85517  1.0000
  H   H5        1.0  0.84019  0.89303  0.08012  1.0000
  H   H6        1.0  0.15982  0.10698  0.91987  1.0000
  H   H7        1.0  0.35377  0.14859  0.32581  1.0000
  H   H8        1.0  0.64623  0.85140  0.67421  1.0000
  H   H9        1.0  0.69338  0.24578  0.46305  1.0000
  H   H10       1.0  0.30661  0.75421  0.53697  1.0000
  H   H11       1.0  0.52549  0.39746  0.61092  1.0000
  H   H12       1.0  0.47450  0.60255  0.38907  1.0000
  H   H13       1.0  0.18710  0.32161  0.62816  1.0000
  H   H14       1.0  0.81289  0.67840  0.37184  1.0000
  C   C1        1.0  0.60668  0.02721  0.21118  1.0000
  C   C2        1.0  0.39330  0.97279  0.78882  1.0000
  C   C3        1.0  0.42529  0.94415  0.20361  1.0000
  C   C4        1.0  0.57470  0.05584  0.79638  1.0000
  C   C5        1.0  0.44467  0.83545  0.13858  1.0000
  C   C6        1.0  0.55534  0.16454  0.86140  1.0000
  C   C7        1.0  0.64793  0.76029  0.05790  1.0000
  C   C8        1.0  0.35210  0.23970  0.94209  1.0000
  C   C9        1.0  0.09508  0.22709  0.47393  1.0000
  C   C10       1.0  0.90492  0.77290  0.52608  1.0000
  C   C11       1.0  0.82724  0.27986  0.51368  1.0000
  C   C12       1.0  0.17276  0.72015  0.48632  1.0000
  C   C13       1.0  0.73033  0.36647  0.59941  1.0000
  C   C14       1.0  0.26966  0.63354  0.40059  1.0000
  C   C15       1.0  0.85297  0.43387  0.68310  1.0000
  C   C16       1.0  0.14702  0.56614  0.31690  1.0000
  O   O1        1.0  0.81121  0.00503  0.15164  1.0000
  O   O2        1.0  0.18877  0.99498  0.84836  1.0000
  O   O3        1.0  0.54595  0.12878  0.28002  1.0000
  O   O4        1.0  0.45404  0.87121  0.71999  1.0000
  O   O5        1.0  0.84992  0.80465  0.03320  1.0000
  O   O6        1.0  0.15010  0.19536  0.96680  1.0000
  O   O7        1.0  0.62376  0.65660  0.01300  1.0000
  O   O8        1.0  0.37630  0.34339  0.98700  1.0000
  O   O9        1.0  0.12293  0.17942  0.36885  1.0000
  O   O10       1.0  0.87707  0.82056  0.63117  1.0000
  O   O11       1.0  0.27945  0.23061  0.53949  1.0000
  O   O12       1.0  0.72055  0.76940  0.46052  1.0000
  O   O13       1.0  0.10470  0.39952  0.68829  1.0000
  O   O14       1.0  0.89529  0.60050  0.31171  1.0000
  O   O15       1.0  0.71927  0.52010  0.74768  1.0000
  O   O16       1.0  0.28072  0.47992  0.25231  1.0000
