data_image0
_chemical_formula_structural       Rb4H12C16O16
_chemical_formula_sum              "Rb4 H12 C16 O16"
_cell_length_a       4.55576
_cell_length_b       8.05229
_cell_length_c       16.6912
_cell_angle_alpha    90.0001
_cell_angle_beta     90.0002
_cell_angle_gamma    90

_space_group_name_H-M_alt    "P 1"
_space_group_IT_number       1

loop_
  _space_group_symop_operation_xyz
  'x, y, z'

loop_
  _atom_site_type_symbol
  _atom_site_label
  _atom_site_symmetry_multiplicity
  _atom_site_fract_x
  _atom_site_fract_y
  _atom_site_fract_z
  _atom_site_occupancy
  Rb  Rb1       1.0  0.76100  0.24936  0.99882  1.0000
  Rb  Rb2       1.0  0.23900  0.75064  0.49882  1.0000
  Rb  Rb3       1.0  0.23900  0.74936  0.99882  1.0000
  Rb  Rb4       1.0  0.76100  0.25064  0.49882  1.0000
  H   H1        1.0  0.57374  0.56558  0.81918  1.0000
  H   H2        1.0  0.42626  0.43442  0.31918  1.0000
  H   H3        1.0  0.42626  0.06558  0.81918  1.0000
  H   H4        1.0  0.57374  0.93442  0.31918  1.0000
  H   H5        1.0  0.57474  0.56679  0.67907  1.0000
  H   H6        1.0  0.42525  0.43322  0.17907  1.0000
  H   H7        1.0  0.42525  0.06678  0.67907  1.0000
  H   H8        1.0  0.57475  0.93321  0.17906  1.0000
  H   H9        1.0  0.01529  0.29190  0.74790  1.0000
  H   H10       1.0  0.98471  0.70810  0.24790  1.0000
  H   H11       1.0  0.98471  0.79190  0.74790  1.0000
  H   H12       1.0  0.01529  0.20810  0.24790  1.0000
  C   C1        1.0  0.22128  0.39604  0.84672  1.0000
  C   C2        1.0  0.77872  0.60396  0.34672  1.0000
  C   C3        1.0  0.77872  0.89604  0.84672  1.0000
  C   C4        1.0  0.22128  0.10396  0.34672  1.0000
  C   C5        1.0  0.41057  0.48841  0.78922  1.0000
  C   C6        1.0  0.58943  0.51159  0.28922  1.0000
  C   C7        1.0  0.58943  0.98841  0.78922  1.0000
  C   C8        1.0  0.41057  0.01159  0.28922  1.0000
  C   C9        1.0  0.41127  0.48908  0.70859  1.0000
  C   C10       1.0  0.58873  0.51092  0.20859  1.0000
  C   C11       1.0  0.58872  0.98908  0.70859  1.0000
  C   C12       1.0  0.41127  0.01092  0.20859  1.0000
  C   C13       1.0  0.22354  0.39762  0.65046  1.0000
  C   C14       1.0  0.77646  0.60238  0.15046  1.0000
  C   C15       1.0  0.77646  0.89762  0.65046  1.0000
  C   C16       1.0  0.22354  0.10238  0.15046  1.0000
  O   O1        1.0  0.26439  0.41913  0.92024  1.0000
  O   O2        1.0  0.73561  0.58087  0.42024  1.0000
  O   O3        1.0  0.73561  0.91913  0.92024  1.0000
  O   O4        1.0  0.26439  0.08087  0.42024  1.0000
  O   O5        1.0  0.02151  0.29382  0.82042  1.0000
  O   O6        1.0  0.97849  0.70618  0.32042  1.0000
  O   O7        1.0  0.97849  0.79382  0.82042  1.0000
  O   O8        1.0  0.02151  0.20617  0.32042  1.0000
  O   O9        1.0  0.02355  0.29450  0.67596  1.0000
  O   O10       1.0  0.97645  0.70550  0.17596  1.0000
  O   O11       1.0  0.97645  0.79450  0.67596  1.0000
  O   O12       1.0  0.02355  0.20550  0.17596  1.0000
  O   O13       1.0  0.26772  0.42190  0.57712  1.0000
  O   O14       1.0  0.73228  0.57810  0.07712  1.0000
  O   O15       1.0  0.73228  0.92190  0.57712  1.0000
  O   O16       1.0  0.26772  0.07810  0.07712  1.0000
