data_image0
_chemical_formula_structural       Sm4H28C32N4O34
_chemical_formula_sum              "Sm4 H28 C32 N4 O34"
_cell_length_a       8.43659
_cell_length_b       10.4553
_cell_length_c       14.408
_cell_angle_alpha    85.1924
_cell_angle_beta     86.8495
_cell_angle_gamma    75.1032

_space_group_name_H-M_alt    "P 1"
_space_group_IT_number       1

loop_
  _space_group_symop_operation_xyz
  'x, y, z'

loop_
  _atom_site_type_symbol
  _atom_site_label
  _atom_site_symmetry_multiplicity
  _atom_site_fract_x
  _atom_site_fract_y
  _atom_site_fract_z
  _atom_site_occupancy
  Sm  Sm1       1.0  0.49072  0.97212  0.71796  1.0000
  Sm  Sm2       1.0  0.50928  0.02788  0.28204  1.0000
  Sm  Sm3       1.0  0.82227  0.79577  0.92734  1.0000
  Sm  Sm4       1.0  0.17774  0.20423  0.07265  1.0000
  H   H1        1.0  0.52083  0.30015  0.57204  1.0000
  H   H2        1.0  0.47916  0.69985  0.42796  1.0000
  H   H3        1.0  0.56532  0.52837  0.57262  1.0000
  H   H4        1.0  0.43467  0.47164  0.42738  1.0000
  H   H5        1.0  0.28637  0.57631  0.83273  1.0000
  H   H6        1.0  0.71362  0.42369  0.16728  1.0000
  H   H7        1.0  0.22800  0.86875  0.46461  1.0000
  H   H8        1.0  0.77199  0.13125  0.53539  1.0000
  H   H9        1.0  0.16992  0.86411  0.63355  1.0000
  H   H10       1.0  0.83009  0.13588  0.36644  1.0000
  H   H11       1.0  0.75869  0.70264  0.59269  1.0000
  H   H12       1.0  0.24131  0.29736  0.40731  1.0000
  H   H13       1.0  0.25094  0.36438  0.82815  1.0000
  H   H14       1.0  0.74906  0.63562  0.17185  1.0000
  H   H15       1.0  0.83010  0.71037  0.43298  1.0000
  H   H16       1.0  0.16989  0.28963  0.56702  1.0000
  H   H17       1.0  0.13866  0.93470  0.77339  1.0000
  H   H18       1.0  0.86135  0.06530  0.22661  1.0000
  H   H19       1.0  0.12340  0.08279  0.73225  1.0000
  H   H20       1.0  0.87660  0.91721  0.26776  1.0000
  H   H21       1.0  0.74267  0.09448  0.81419  1.0000
  H   H22       1.0  0.25733  0.90552  0.18581  1.0000
  H   H23       1.0  0.78252  0.13387  0.70953  1.0000
  H   H24       1.0  0.21748  0.86614  0.29047  1.0000
  H   H25       1.0  0.53274  0.69499  0.87520  1.0000
  H   H26       1.0  0.46727  0.30501  0.12480  1.0000
  H   H27       1.0  0.65247  0.56872  0.92479  1.0000
  H   H28       1.0  0.34753  0.43127  0.07522  1.0000
  C   C1        1.0  0.38135  0.31314  0.70272  1.0000
  C   C2        1.0  0.61865  0.68686  0.29728  1.0000
  C   C3        1.0  0.47197  0.36425  0.62824  1.0000
  C   C4        1.0  0.52802  0.63575  0.37176  1.0000
  C   C5        1.0  0.49673  0.48886  0.62937  1.0000
  C   C6        1.0  0.50327  0.51115  0.37063  1.0000
  C   C7        1.0  0.43423  0.56847  0.70446  1.0000
  C   C8        1.0  0.56576  0.43153  0.29554  1.0000
  C   C9        1.0  0.34487  0.51857  0.77509  1.0000
  C   C10       1.0  0.65512  0.48143  0.22491  1.0000
  C   C11       1.0  0.45727  0.70351  0.70707  1.0000
  C   C12       1.0  0.54273  0.29649  0.29293  1.0000
  C   C13       1.0  0.03151  0.78609  0.43292  1.0000
  C   C14       1.0  0.96847  0.21391  0.56708  1.0000
  C   C15       1.0  0.13221  0.82520  0.49562  1.0000
  C   C16       1.0  0.86779  0.17480  0.50438  1.0000
  C   C17       1.0  0.09704  0.82376  0.58953  1.0000
  C   C18       1.0  0.90296  0.17625  0.41046  1.0000
  C   C19       1.0  0.96070  0.78031  0.62909  1.0000
  C   C20       1.0  0.03930  0.21969  0.37090  1.0000
  C   C21       1.0  0.86883  0.73402  0.56947  1.0000
  C   C22       1.0  0.13117  0.26598  0.43053  1.0000
  C   C23       1.0  0.90826  0.80099  0.72760  1.0000
  C   C24       1.0  0.09175  0.19901  0.27240  1.0000
  C   C25       1.0  0.46799  0.01990  0.95023  1.0000
  C   C26       1.0  0.53203  0.98008  0.04977  1.0000
  C   C27       1.0  0.59279  0.99244  0.50090  1.0000
  C   C28       1.0  0.40721  0.00757  0.49909  1.0000
  C   C29       1.0  0.93884  0.05991  0.97466  1.0000
  C   C30       1.0  0.06118  0.94007  0.02534  1.0000
  C   C31       1.0  0.96309  0.51258  0.04994  1.0000
  C   C32       1.0  0.03690  0.48744  0.95005  1.0000
  N   N1        1.0  0.32037  0.39653  0.77318  1.0000
  N   N2        1.0  0.67963  0.60346  0.22682  1.0000
  N   N3        1.0  0.90802  0.73290  0.47702  1.0000
  N   N4        1.0  0.09198  0.26710  0.52298  1.0000
  O   O1        1.0  0.35067  0.20061  0.70703  1.0000
  O   O2        1.0  0.64932  0.79938  0.29297  1.0000
  O   O3        1.0  0.19786  0.00543  0.76449  1.0000
  O   O4        1.0  0.80214  0.99457  0.23552  1.0000
  O   O5        1.0  0.70076  0.10131  0.75066  1.0000
  O   O6        1.0  0.29924  0.89869  0.24934  1.0000
  O   O7        1.0  0.50318  0.76199  0.63373  1.0000
  O   O8        1.0  0.49682  0.23801  0.36628  1.0000
  O   O9        1.0  0.61134  0.66415  0.92742  1.0000
  O   O10       1.0  0.38866  0.33585  0.07258  1.0000
  O   O11       1.0  0.42754  0.76086  0.78422  1.0000
  O   O12       1.0  0.57245  0.23914  0.21579  1.0000
  O   O13       1.0  0.04452  0.79748  0.34515  1.0000
  O   O14       1.0  0.95546  0.20253  0.65485  1.0000
  O   O15       1.0  0.76115  0.79761  0.75637  1.0000
  O   O16       1.0  0.23886  0.20239  0.24363  1.0000
  O   O17       1.0  0.00617  0.82424  0.78460  1.0000
  O   O18       1.0  0.99384  0.17576  0.21541  1.0000
  O   O19       1.0  0.54966  0.95024  0.88625  1.0000
  O   O20       1.0  0.45033  0.04976  0.11375  1.0000
  O   O21       1.0  0.34422  0.11497  0.93863  1.0000
  O   O22       1.0  0.65578  0.88503  0.06137  1.0000
  O   O23       1.0  0.65068  0.99285  0.58062  1.0000
  O   O24       1.0  0.34931  0.00716  0.41938  1.0000
  O   O25       1.0  0.67259  0.98138  0.42450  1.0000
  O   O26       1.0  0.32739  0.01863  0.57550  1.0000
  O   O27       1.0  0.83659  0.03036  0.92385  1.0000
  O   O28       1.0  0.16343  0.96964  0.07616  1.0000
  O   O29       1.0  0.95022  0.17480  0.98827  1.0000
  O   O30       1.0  0.04980  0.82520  0.01173  1.0000
  O   O31       1.0  0.86381  0.62472  0.06037  1.0000
  O   O32       1.0  0.13620  0.37527  0.93963  1.0000
  O   O33       1.0  0.00569  0.41974  0.11257  1.0000
  O   O34       1.0  0.99431  0.58026  0.88743  1.0000
