data_image0
_chemical_formula_structural       Gd2H16C16N2O18
_chemical_formula_sum              "Gd2 H16 C16 N2 O18"
_cell_length_a       7.30827
_cell_length_b       8.94
_cell_length_c       10.4517
_cell_angle_alpha    114.139
_cell_angle_beta     111.876
_cell_angle_gamma    94.2691

_space_group_name_H-M_alt    "P 1"
_space_group_IT_number       1

loop_
  _space_group_symop_operation_xyz
  'x, y, z'

loop_
  _atom_site_type_symbol
  _atom_site_label
  _atom_site_symmetry_multiplicity
  _atom_site_fract_x
  _atom_site_fract_y
  _atom_site_fract_z
  _atom_site_occupancy
  Gd  Gd1       1.0  0.09337  0.15296  0.85916  1.0000
  Gd  Gd2       1.0  0.90663  0.84704  0.14084  1.0000
  H   H1        1.0  0.43732  0.39948  0.77091  1.0000
  H   H2        1.0  0.56266  0.60052  0.22909  1.0000
  H   H3        1.0  0.37317  0.18813  0.49986  1.0000
  H   H4        1.0  0.62681  0.81187  0.50015  1.0000
  H   H5        1.0  0.14504  0.54166  0.33843  1.0000
  H   H6        1.0  0.85496  0.45833  0.66157  1.0000
  H   H7        1.0  0.20338  0.72740  0.59425  1.0000
  H   H8        1.0  0.79662  0.27260  0.40575  1.0000
  H   H9        1.0  0.50466  0.16802  0.82613  1.0000
  H   H10       1.0  0.49536  0.83198  0.17387  1.0000
  H   H11       1.0  0.52715  0.29317  0.99013  1.0000
  H   H12       1.0  0.47285  0.70683  0.00987  1.0000
  H   H13       1.0  0.28492  0.86889  0.89664  1.0000
  H   H14       1.0  0.71508  0.13111  0.10337  1.0000
  H   H15       1.0  0.23512  0.98042  0.04121  1.0000
  H   H16       1.0  0.76488  0.01958  0.95879  1.0000
  C   C1        1.0  0.31818  0.58050  0.70012  1.0000
  C   C2        1.0  0.68182  0.41949  0.29987  1.0000
  C   C3        1.0  0.37224  0.42393  0.67160  1.0000
  C   C4        1.0  0.62775  0.57607  0.32840  1.0000
  C   C5        1.0  0.33580  0.30960  0.52328  1.0000
  C   C6        1.0  0.66420  0.69040  0.47672  1.0000
  C   C7        1.0  0.24970  0.34542  0.39612  1.0000
  C   C8        1.0  0.75030  0.65458  0.60388  1.0000
  C   C9        1.0  0.20852  0.50134  0.42723  1.0000
  C   C10       1.0  0.79148  0.49866  0.57277  1.0000
  C   C11       1.0  0.19830  0.21699  0.23393  1.0000
  C   C12       1.0  0.80171  0.78301  0.76606  1.0000
  C   C13       1.0  0.11111  0.54606  0.02430  1.0000
  C   C14       1.0  0.88889  0.45393  0.97569  1.0000
  C   C15       1.0  0.05290  0.92860  0.50293  1.0000
  C   C16       1.0  0.94710  0.07141  0.49708  1.0000
  N   N1        1.0  0.24211  0.61261  0.57359  1.0000
  N   N2        1.0  0.75789  0.38739  0.42641  1.0000
  O   O1        1.0  0.16622  0.26403  0.13060  1.0000
  O   O2        1.0  0.83379  0.73598  0.86941  1.0000
  O   O3        1.0  0.42574  0.22853  0.87717  1.0000
  O   O4        1.0  0.57427  0.77147  0.12283  1.0000
  O   O5        1.0  0.18914  0.06137  0.20793  1.0000
  O   O6        1.0  0.81086  0.93863  0.79207  1.0000
  O   O7        1.0  0.25428  0.97806  0.95153  1.0000
  O   O8        1.0  0.74572  0.02194  0.04847  1.0000
  O   O9        1.0  0.33428  0.68839  0.83090  1.0000
  O   O10       1.0  0.66573  0.31161  0.16910  1.0000
  O   O11       1.0  0.21767  0.45366  0.97556  1.0000
  O   O12       1.0  0.78232  0.54634  0.02443  1.0000
  O   O13       1.0  0.11821  0.92242  0.63112  1.0000
  O   O14       1.0  0.88178  0.07759  0.36887  1.0000
  O   O15       1.0  0.06602  0.82972  0.38092  1.0000
  O   O16       1.0  0.93398  0.17029  0.61908  1.0000
  O   O17       1.0  0.16721  0.70659  0.10896  1.0000
  O   O18       1.0  0.83280  0.29341  0.89104  1.0000
