data_image0
_chemical_formula_structural       Cu2H16C16N16Cl4O8
_chemical_formula_sum              "Cu2 H16 C16 N16 Cl4 O8"
_cell_length_a       3.8738
_cell_length_b       10.1413
_cell_length_c       17.3411
_cell_angle_alpha    89.9999
_cell_angle_beta     89.9999
_cell_angle_gamma    90.5259

_space_group_name_H-M_alt    "P 1"
_space_group_IT_number       1

loop_
  _space_group_symop_operation_xyz
  'x, y, z'

loop_
  _atom_site_type_symbol
  _atom_site_label
  _atom_site_symmetry_multiplicity
  _atom_site_fract_x
  _atom_site_fract_y
  _atom_site_fract_z
  _atom_site_occupancy
  Cu  Cu1       1.0  1.00000  0.00000  0.50000  1.0000
  Cu  Cu2       1.0  0.50000  0.50000  0.00000  1.0000
  H   H1        1.0  0.62003  0.53820  0.31659  1.0000
  H   H2        1.0  0.87997  0.96180  0.81659  1.0000
  H   H3        1.0  0.37997  0.46180  0.68341  1.0000
  H   H4        1.0  0.12003  0.03820  0.18341  1.0000
  H   H5        1.0  0.87105  0.95252  0.34105  1.0000
  H   H6        1.0  0.62896  0.54748  0.84105  1.0000
  H   H7        1.0  0.12895  0.04748  0.65895  1.0000
  H   H8        1.0  0.37105  0.45252  0.15895  1.0000
  H   H9        1.0  0.11025  0.58042  0.54934  1.0000
  H   H10       1.0  0.38975  0.91958  0.04934  1.0000
  H   H11       1.0  0.88975  0.41958  0.45066  1.0000
  H   H12       1.0  0.61025  0.08042  0.95066  1.0000
  H   H13       1.0  0.20244  0.75121  0.56312  1.0000
  H   H14       1.0  0.29756  0.74879  0.06312  1.0000
  H   H15       1.0  0.79756  0.24879  0.43688  1.0000
  H   H16       1.0  0.70244  0.25121  0.93688  1.0000
  C   C1        1.0  0.97404  0.70277  0.46101  1.0000
  C   C2        1.0  0.52597  0.79723  0.96101  1.0000
  C   C3        1.0  0.02597  0.29724  0.53899  1.0000
  C   C4        1.0  0.47404  0.20276  0.03899  1.0000
  C   C5        1.0  0.72467  0.62162  0.34907  1.0000
  C   C6        1.0  0.77533  0.87838  0.84907  1.0000
  C   C7        1.0  0.27533  0.37838  0.65093  1.0000
  C   C8        1.0  0.22467  0.12162  0.15093  1.0000
  C   C9        1.0  0.73034  0.74918  0.31781  1.0000
  C   C10       1.0  0.76967  0.75082  0.81781  1.0000
  C   C11       1.0  0.26966  0.25083  0.68219  1.0000
  C   C12       1.0  0.23033  0.24917  0.18219  1.0000
  C   C13       1.0  0.86075  0.85186  0.36276  1.0000
  C   C14       1.0  0.63926  0.64814  0.86276  1.0000
  C   C15       1.0  0.13926  0.14814  0.63724  1.0000
  C   C16       1.0  0.36074  0.35186  0.13724  1.0000
  N   N1        1.0  0.96668  0.83103  0.43483  1.0000
  N   N2        1.0  0.53332  0.66897  0.93483  1.0000
  N   N3        1.0  0.03331  0.16897  0.56517  1.0000
  N   N4        1.0  0.46668  0.33103  0.06517  1.0000
  N   N5        1.0  0.85259  0.59843  0.41840  1.0000
  N   N6        1.0  0.64741  0.90157  0.91840  1.0000
  N   N7        1.0  0.14741  0.40157  0.58160  1.0000
  N   N8        1.0  0.35259  0.09843  0.08160  1.0000
  N   N9        1.0  0.10473  0.67680  0.52960  1.0000
  N   N10       1.0  0.39527  0.82320  0.02960  1.0000
  N   N11       1.0  0.89527  0.32320  0.47040  1.0000
  N   N12       1.0  0.60473  0.17680  0.97040  1.0000
  N   N13       1.0  0.59058  0.77651  0.24276  1.0000
  N   N14       1.0  0.90942  0.72349  0.74276  1.0000
  N   N15       1.0  0.40942  0.22349  0.75724  1.0000
  N   N16       1.0  0.09059  0.27651  0.25724  1.0000
  Cl  Cl1       1.0  0.61116  0.91550  0.58508  1.0000
  Cl  Cl2       1.0  0.88884  0.58450  0.08508  1.0000
  Cl  Cl3       1.0  0.38884  0.08450  0.41492  1.0000
  Cl  Cl4       1.0  0.11116  0.41550  0.91492  1.0000
  O   O1        1.0  0.39085  0.69318  0.21416  1.0000
  O   O2        1.0  0.10915  0.80682  0.71416  1.0000
  O   O3        1.0  0.60915  0.30682  0.78584  1.0000
  O   O4        1.0  0.89086  0.19318  0.28584  1.0000
  O   O5        1.0  0.67056  0.88314  0.21122  1.0000
  O   O6        1.0  0.82944  0.61686  0.71122  1.0000
  O   O7        1.0  0.32943  0.11686  0.78878  1.0000
  O   O8        1.0  0.17056  0.38314  0.28878  1.0000
