data_image0
_chemical_formula_structural       Zn2H36C44S2N6O12
_chemical_formula_sum              "Zn2 H36 C44 S2 N6 O12"
_cell_length_a       8.69927
_cell_length_b       9.68464
_cell_length_c       13.3412
_cell_angle_alpha    87.4998
_cell_angle_beta     88.622
_cell_angle_gamma    77.5891

_space_group_name_H-M_alt    "P 1"
_space_group_IT_number       1

loop_
  _space_group_symop_operation_xyz
  'x, y, z'

loop_
  _atom_site_type_symbol
  _atom_site_label
  _atom_site_symmetry_multiplicity
  _atom_site_fract_x
  _atom_site_fract_y
  _atom_site_fract_z
  _atom_site_occupancy
  Zn  Zn1       1.0  0.71338  0.84750  0.77468  1.0000
  Zn  Zn2       1.0  0.28662  0.15250  0.22532  1.0000
  H   H1        1.0  0.22332  0.25908  0.69869  1.0000
  H   H2        1.0  0.77668  0.74091  0.30132  1.0000
  H   H3        1.0  0.07270  0.20714  0.85111  1.0000
  H   H4        1.0  0.92730  0.79286  0.14889  1.0000
  H   H5        1.0  0.81251  0.58611  0.92390  1.0000
  H   H6        1.0  0.18750  0.41389  0.07610  1.0000
  H   H7        1.0  0.49678  0.10906  0.66986  1.0000
  H   H8        1.0  0.50321  0.89093  0.33014  1.0000
  H   H9        1.0  0.45271  0.63291  0.15701  1.0000
  H   H10       1.0  0.54729  0.36709  0.84299  1.0000
  H   H11       1.0  0.70969  0.49584  0.08660  1.0000
  H   H12       1.0  0.29031  0.50416  0.91340  1.0000
  H   H13       1.0  0.19349  0.01097  0.97082  1.0000
  H   H14       1.0  0.80651  0.98903  0.02918  1.0000
  H   H15       1.0  0.31074  0.84775  0.06311  1.0000
  H   H16       1.0  0.68925  0.15225  0.93689  1.0000
  H   H17       1.0  0.38803  0.49306  0.66479  1.0000
  H   H18       1.0  0.61196  0.50694  0.33521  1.0000
  H   H19       1.0  0.47448  0.65573  0.77510  1.0000
  H   H20       1.0  0.52552  0.34427  0.22490  1.0000
  H   H21       1.0  0.75565  0.78935  0.55348  1.0000
  H   H22       1.0  0.24435  0.21065  0.44652  1.0000
  H   H23       1.0  0.68219  0.63011  0.43018  1.0000
  H   H24       1.0  0.31781  0.36990  0.56982  1.0000
  H   H25       1.0  0.20235  0.89062  0.69726  1.0000
  H   H26       1.0  0.79765  0.10938  0.30274  1.0000
  H   H27       1.0  0.24590  0.99934  0.52796  1.0000
  H   H28       1.0  0.75411  0.00066  0.47204  1.0000
  H   H29       1.0  0.06324  0.67970  0.38690  1.0000
  H   H30       1.0  0.93675  0.32031  0.61310  1.0000
  H   H31       1.0  0.02204  0.56840  0.55689  1.0000
  H   H32       1.0  0.97796  0.43161  0.44311  1.0000
  H   H33       1.0  0.97480  0.86725  0.86195  1.0000
  H   H34       1.0  0.02521  0.13275  0.13805  1.0000
  H   H35       1.0  0.88093  0.01879  0.81731  1.0000
  H   H36       1.0  0.11907  0.98121  0.18269  1.0000
  C   C1        1.0  0.48620  0.82927  0.94351  1.0000
  C   C2        1.0  0.51380  0.17072  0.05649  1.0000
  C   C3        1.0  0.40753  0.95354  0.88077  1.0000
  C   C4        1.0  0.59247  0.04645  0.11923  1.0000
  C   C5        1.0  0.27362  0.17238  0.75046  1.0000
  C   C6        1.0  0.72638  0.82762  0.24954  1.0000
  C   C7        1.0  0.18991  0.14382  0.83663  1.0000
  C   C8        1.0  0.81009  0.85618  0.16337  1.0000
  C   C9        1.0  0.70180  0.63973  0.95816  1.0000
  C   C10       1.0  0.29820  0.36027  0.04185  1.0000
  C   C11       1.0  0.42388  0.09101  0.73482  1.0000
  C   C12       1.0  0.57612  0.90899  0.26518  1.0000
  C   C13       1.0  0.50159  0.66660  0.08633  1.0000
  C   C14       1.0  0.49841  0.33339  0.91367  1.0000
  C   C15       1.0  0.64374  0.59047  0.04780  1.0000
  C   C16       1.0  0.35626  0.40953  0.95220  1.0000
  C   C17       1.0  0.25680  0.03308  0.90263  1.0000
  C   C18       1.0  0.74320  0.96692  0.09737  1.0000
  C   C19       1.0  0.42140  0.78699  0.03387  1.0000
  C   C20       1.0  0.57860  0.21301  0.96614  1.0000
  C   C21       1.0  0.52579  0.54684  0.53521  1.0000
  C   C22       1.0  0.47421  0.45316  0.46478  1.0000
  C   C23       1.0  0.47137  0.55409  0.63494  1.0000
  C   C24       1.0  0.52863  0.44591  0.36506  1.0000
  C   C25       1.0  0.51926  0.64633  0.69813  1.0000
  C   C26       1.0  0.48075  0.35367  0.30187  1.0000
  C   C27       1.0  0.67399  0.72148  0.57358  1.0000
  C   C28       1.0  0.32601  0.27852  0.42642  1.0000
  C   C29       1.0  0.63119  0.63284  0.50552  1.0000
  C   C30       1.0  0.36881  0.36717  0.49448  1.0000
  C   C31       1.0  0.10911  0.72423  0.63593  1.0000
  C   C32       1.0  0.89088  0.27577  0.36407  1.0000
  C   C33       1.0  0.15611  0.84650  0.44767  1.0000
  C   C34       1.0  0.84389  0.15350  0.55233  1.0000
  C   C35       1.0  0.17268  0.84491  0.62911  1.0000
  C   C36       1.0  0.82732  0.15509  0.37088  1.0000
  C   C37       1.0  0.19657  0.90508  0.53490  1.0000
  C   C38       1.0  0.80344  0.09492  0.46510  1.0000
  C   C39       1.0  0.09327  0.72460  0.45552  1.0000
  C   C40       1.0  0.90673  0.27541  0.54448  1.0000
  C   C41       1.0  0.07050  0.66315  0.54943  1.0000
  C   C42       1.0  0.92950  0.33685  0.45057  1.0000
  C   C43       1.0  0.17405  0.91682  0.34660  1.0000
  C   C44       1.0  0.82595  0.08318  0.65340  1.0000
  S   S1        1.0  0.07889  0.64198  0.75492  1.0000
  S   S2        1.0  0.92111  0.35802  0.24507  1.0000
  N   N1        1.0  0.62521  0.75608  0.90768  1.0000
  N   N2        1.0  0.37479  0.24392  0.09232  1.0000
  N   N3        1.0  0.48907  0.98498  0.79868  1.0000
  N   N4        1.0  0.51093  0.01502  0.20132  1.0000
  N   N5        1.0  0.61869  0.72896  0.66867  1.0000
  N   N6        1.0  0.38131  0.27104  0.33134  1.0000
  O   O1        1.0  0.90649  0.65420  0.76490  1.0000
  O   O2        1.0  0.09351  0.34580  0.23510  1.0000
  O   O3        1.0  0.13972  0.72182  0.83104  1.0000
  O   O4        1.0  0.86029  0.27818  0.16896  1.0000
  O   O5        1.0  0.16287  0.49448  0.74931  1.0000
  O   O6        1.0  0.83713  0.50553  0.25069  1.0000
  O   O7        1.0  0.22991  0.02917  0.34674  1.0000
  O   O8        1.0  0.77009  0.97082  0.65325  1.0000
  O   O9        1.0  0.13224  0.86320  0.26952  1.0000
  O   O10       1.0  0.86775  0.13681  0.73048  1.0000
  O   O11       1.0  0.87224  0.93561  0.86538  1.0000
  O   O12       1.0  0.12776  0.06439  0.13462  1.0000
