data_image0
_chemical_formula_structural       Zn2H36C44N4O8
_chemical_formula_sum              "Zn2 H36 C44 N4 O8"
_cell_length_a       6.87853
_cell_length_b       9.36663
_cell_length_c       15.893
_cell_angle_alpha    96.4813
_cell_angle_beta     100.993
_cell_angle_gamma    90.5286

_space_group_name_H-M_alt    "P 1"
_space_group_IT_number       1

loop_
  _space_group_symop_operation_xyz
  'x, y, z'

loop_
  _atom_site_type_symbol
  _atom_site_label
  _atom_site_symmetry_multiplicity
  _atom_site_fract_x
  _atom_site_fract_y
  _atom_site_fract_z
  _atom_site_occupancy
  Zn  Zn1       1.0  0.38438  0.30193  0.69919  1.0000
  Zn  Zn2       1.0  0.61562  0.69807  0.30081  1.0000
  H   H1        1.0  0.51240  0.82077  0.71793  1.0000
  H   H2        1.0  0.48760  0.17923  0.28207  1.0000
  H   H3        1.0  0.05852  0.67957  0.86069  1.0000
  H   H4        1.0  0.94148  0.32043  0.13932  1.0000
  H   H5        1.0  0.24419  0.79574  0.76528  1.0000
  H   H6        1.0  0.75581  0.20426  0.23472  1.0000
  H   H7        1.0  0.06795  0.92894  0.64978  1.0000
  H   H8        1.0  0.93205  0.07107  0.35022  1.0000
  H   H9        1.0  0.77643  0.00952  0.57136  1.0000
  H   H10       1.0  0.22359  0.99048  0.42865  1.0000
  H   H11       1.0  0.59377  0.86803  0.54844  1.0000
  H   H12       1.0  0.40624  0.13198  0.45156  1.0000
  H   H13       1.0  0.52285  0.72536  0.85875  1.0000
  H   H14       1.0  0.47714  0.27463  0.14125  1.0000
  H   H15       1.0  0.75095  0.66917  0.91812  1.0000
  H   H16       1.0  0.24904  0.33083  0.08188  1.0000
  H   H17       1.0  0.09856  0.15368  0.53713  1.0000
  H   H18       1.0  0.90143  0.84632  0.46287  1.0000
  H   H19       1.0  0.76816  0.20982  0.45308  1.0000
  H   H20       1.0  0.23183  0.79018  0.54691  1.0000
  H   H21       1.0  0.79869  0.60621  0.62621  1.0000
  H   H22       1.0  0.20129  0.39378  0.37379  1.0000
  H   H23       1.0  0.12809  0.53561  0.69794  1.0000
  H   H24       1.0  0.87189  0.46439  0.30206  1.0000
  H   H25       1.0  0.50858  0.38644  0.42246  1.0000
  H   H26       1.0  0.49140  0.61355  0.57754  1.0000
  H   H27       1.0  0.54127  0.09595  0.81910  1.0000
  H   H28       1.0  0.45873  0.90405  0.18090  1.0000
  H   H29       1.0  0.42995  0.96278  0.92992  1.0000
  H   H30       1.0  0.57006  0.03722  0.07009  1.0000
  H   H31       1.0  0.88808  0.20190  0.88962  1.0000
  H   H32       1.0  0.11193  0.79809  0.11039  1.0000
  H   H33       1.0  0.01285  0.31248  0.77879  1.0000
  H   H34       1.0  0.98715  0.68752  0.22121  1.0000
  H   H35       1.0  0.18665  0.90914  0.00971  1.0000
  H   H36       1.0  0.81338  0.09087  0.99030  1.0000
  C   C1        1.0  0.77705  0.88183  0.67501  1.0000
  C   C2        1.0  0.22295  0.11817  0.32499  1.0000
  C   C3        1.0  0.67377  0.81711  0.72949  1.0000
  C   C4        1.0  0.32623  0.18290  0.27050  1.0000
  C   C5        1.0  0.77321  0.74568  0.79729  1.0000
  C   C6        1.0  0.22679  0.25432  0.20271  1.0000
  C   C7        1.0  0.97991  0.73790  0.80943  1.0000
  C   C8        1.0  0.02009  0.26210  0.19058  1.0000
  C   C9        1.0  0.08367  0.80309  0.75602  1.0000
  C   C10       1.0  0.91633  0.19692  0.24399  1.0000
  C   C11       1.0  0.98399  0.87633  0.68983  1.0000
  C   C12       1.0  0.01601  0.12367  0.31017  1.0000
  C   C13       1.0  0.66913  0.95128  0.59875  1.0000
  C   C14       1.0  0.33088  0.04873  0.40125  1.0000
  C   C15       1.0  0.51552  0.05520  0.62360  1.0000
  C   C16       1.0  0.48448  0.94480  0.37640  1.0000
  C   C17       1.0  0.66134  0.67036  0.85326  1.0000
  C   C18       1.0  0.33865  0.32964  0.14674  1.0000
  C   C19       1.0  0.60711  0.51423  0.81345  1.0000
  C   C20       1.0  0.39290  0.48577  0.18654  1.0000
  C   C21       1.0  0.02593  0.25349  0.55265  1.0000
  C   C22       1.0  0.97407  0.74651  0.44735  1.0000
  C   C23       1.0  0.84255  0.28644  0.50672  1.0000
  C   C24       1.0  0.15744  0.71356  0.49329  1.0000
  C   C25       1.0  0.75233  0.41429  0.53209  1.0000
  C   C26       1.0  0.24766  0.58571  0.46792  1.0000
  C   C27       1.0  0.85716  0.50488  0.60305  1.0000
  C   C28       1.0  0.14283  0.49511  0.39695  1.0000
  C   C29       1.0  0.04120  0.46621  0.64416  1.0000
  C   C30       1.0  0.95879  0.53378  0.35585  1.0000
  C   C31       1.0  0.55837  0.44891  0.48545  1.0000
  C   C32       1.0  0.44161  0.55108  0.51455  1.0000
  C   C33       1.0  0.39780  0.11465  0.83729  1.0000
  C   C34       1.0  0.60222  0.88534  0.16272  1.0000
  C   C35       1.0  0.33564  0.04282  0.89945  1.0000
  C   C36       1.0  0.66438  0.95718  0.10055  1.0000
  C   C37       1.0  0.14927  0.07005  0.92129  1.0000
  C   C38       1.0  0.85076  0.92995  0.07872  1.0000
  C   C39       1.0  0.03364  0.17174  0.87750  1.0000
  C   C40       1.0  0.96637  0.82826  0.12251  1.0000
  C   C41       1.0  0.10434  0.23673  0.81468  1.0000
  C   C42       1.0  0.89567  0.76327  0.18532  1.0000
  C   C43       1.0  0.08520  0.99058  0.98515  1.0000
  C   C44       1.0  0.91482  0.00943  0.01485  1.0000
  N   N1        1.0  0.12532  0.34235  0.62010  1.0000
  N   N2        1.0  0.87467  0.65765  0.37990  1.0000
  N   N3        1.0  0.28341  0.20957  0.79476  1.0000
  N   N4        1.0  0.71660  0.79044  0.20524  1.0000
  O   O1        1.0  0.33721  0.01561  0.61332  1.0000
  O   O2        1.0  0.66280  0.98440  0.38667  1.0000
  O   O3        1.0  0.58517  0.18267  0.65693  1.0000
  O   O4        1.0  0.41483  0.81734  0.34307  1.0000
  O   O5        1.0  0.46878  0.50317  0.74429  1.0000
  O   O6        1.0  0.53122  0.49684  0.25571  1.0000
  O   O7        1.0  0.69355  0.41163  0.84592  1.0000
  O   O8        1.0  0.30647  0.58836  0.15406  1.0000
