data_image0
_chemical_formula_structural       Cd2H36C40N4O10
_chemical_formula_sum              "Cd2 H36 C40 N4 O10"
_cell_length_a       8.24922
_cell_length_b       11.4552
_cell_length_c       11.4477
_cell_angle_alpha    110.821
_cell_angle_beta     96.6789
_cell_angle_gamma    108.776

_space_group_name_H-M_alt    "P 1"
_space_group_IT_number       1

loop_
  _space_group_symop_operation_xyz
  'x, y, z'

loop_
  _atom_site_type_symbol
  _atom_site_label
  _atom_site_symmetry_multiplicity
  _atom_site_fract_x
  _atom_site_fract_y
  _atom_site_fract_z
  _atom_site_occupancy
  Cd  Cd1       1.0  0.09640  0.18524  0.74718  1.0000
  Cd  Cd2       1.0  0.90359  0.81476  0.25282  1.0000
  H   H1        1.0  0.82771  0.09619  0.50312  1.0000
  H   H2        1.0  0.17229  0.90381  0.49688  1.0000
  H   H3        1.0  0.81642  0.20033  0.64458  1.0000
  H   H4        1.0  0.18357  0.79966  0.35542  1.0000
  H   H5        1.0  0.43197  0.90586  0.65882  1.0000
  H   H6        1.0  0.56803  0.09415  0.34118  1.0000
  H   H7        1.0  0.51430  0.99223  0.83022  1.0000
  H   H8        1.0  0.48571  0.00778  0.16978  1.0000
  H   H9        1.0  0.42419  0.86097  0.94777  1.0000
  H   H10       1.0  0.57581  0.13903  0.05222  1.0000
  H   H11       1.0  0.93391  0.50907  0.79612  1.0000
  H   H12       1.0  0.06611  0.49095  0.20389  1.0000
  H   H13       1.0  0.86518  0.55531  0.60448  1.0000
  H   H14       1.0  0.13483  0.44469  0.39552  1.0000
  H   H15       1.0  0.07839  0.75103  0.58085  1.0000
  H   H16       1.0  0.92162  0.24897  0.41916  1.0000
  H   H17       1.0  0.37686  0.69953  0.03815  1.0000
  H   H18       1.0  0.62314  0.30048  0.96186  1.0000
  H   H19       1.0  0.18602  0.54405  0.96998  1.0000
  H   H20       1.0  0.81399  0.45596  0.03002  1.0000
  H   H21       1.0  0.12100  0.36972  0.59792  1.0000
  H   H22       1.0  0.87899  0.63028  0.40208  1.0000
  H   H23       1.0  0.32352  0.58128  0.58952  1.0000
  H   H24       1.0  0.67647  0.41871  0.41048  1.0000
  H   H25       1.0  0.71826  0.61417  0.89697  1.0000
  H   H26       1.0  0.28173  0.38582  0.10303  1.0000
  H   H27       1.0  0.50110  0.39797  0.88714  1.0000
  H   H28       1.0  0.49888  0.60203  0.11286  1.0000
  H   H29       1.0  0.58788  0.67121  0.53261  1.0000
  H   H30       1.0  0.41214  0.32879  0.46738  1.0000
  H   H31       1.0  0.79364  0.88829  0.53901  1.0000
  H   H32       1.0  0.20637  0.11170  0.46099  1.0000
  H   H33       1.0  0.94806  0.06329  0.93983  1.0000
  H   H34       1.0  0.05193  0.93670  0.06017  1.0000
  H   H35       1.0  0.75173  0.85165  0.95105  1.0000
  H   H36       1.0  0.24826  0.14835  0.04895  1.0000
  C   C1        1.0  0.31218  0.04292  0.74997  1.0000
  C   C2        1.0  0.68782  0.95709  0.25002  1.0000
  C   C3        1.0  0.39408  0.94124  0.74996  1.0000
  C   C4        1.0  0.60592  0.05876  0.25004  1.0000
  C   C5        1.0  0.26363  0.82205  0.76448  1.0000
  C   C6        1.0  0.73638  0.17796  0.23552  1.0000
  C   C7        1.0  0.29915  0.79614  0.87333  1.0000
  C   C8        1.0  0.70086  0.20386  0.12667  1.0000
  C   C9        1.0  0.18269  0.68375  0.88589  1.0000
  C   C10       1.0  0.81731  0.31626  0.11411  1.0000
  C   C11       1.0  0.02495  0.59787  0.78866  1.0000
  C   C12       1.0  0.97506  0.40214  0.21134  1.0000
  C   C13       1.0  0.98753  0.62340  0.68038  1.0000
  C   C14       1.0  0.01247  0.37661  0.31963  1.0000
  C   C15       1.0  0.10603  0.73367  0.66729  1.0000
  C   C16       1.0  0.89398  0.26634  0.33271  1.0000
  C   C17       1.0  0.23230  0.65466  0.99989  1.0000
  C   C18       1.0  0.76771  0.34535  0.00011  1.0000
  C   C19       1.0  0.15391  0.70671  0.11301  1.0000
  C   C20       1.0  0.84608  0.29329  0.88699  1.0000
  C   C21       1.0  0.25592  0.42599  0.65975  1.0000
  C   C22       1.0  0.74407  0.57401  0.34025  1.0000
  C   C23       1.0  0.36978  0.54259  0.65513  1.0000
  C   C24       1.0  0.63022  0.45741  0.34487  1.0000
  C   C25       1.0  0.53849  0.61467  0.74172  1.0000
  C   C26       1.0  0.46150  0.38532  0.25828  1.0000
  C   C27       1.0  0.58746  0.56342  0.82860  1.0000
  C   C28       1.0  0.41253  0.43657  0.17140  1.0000
  C   C29       1.0  0.46726  0.44351  0.82408  1.0000
  C   C30       1.0  0.53272  0.55648  0.17593  1.0000
  C   C31       1.0  0.65732  0.74196  0.74165  1.0000
  C   C32       1.0  0.34267  0.25803  0.25835  1.0000
  C   C33       1.0  0.66642  0.75535  0.62530  1.0000
  C   C34       1.0  0.33359  0.24464  0.37470  1.0000
  C   C35       1.0  0.78171  0.87604  0.62828  1.0000
  C   C36       1.0  0.21830  0.12395  0.37172  1.0000
  C   C37       1.0  0.86969  0.97227  0.85183  1.0000
  C   C38       1.0  0.13030  0.02773  0.14818  1.0000
  C   C39       1.0  0.76117  0.85417  0.85759  1.0000
  C   C40       1.0  0.23882  0.14583  0.14241  1.0000
  N   N1        1.0  0.30404  0.37634  0.74214  1.0000
  N   N2        1.0  0.69595  0.62366  0.25786  1.0000
  N   N3        1.0  0.88229  0.98299  0.73970  1.0000
  N   N4        1.0  0.11772  0.01701  0.26030  1.0000
  O   O1        1.0  0.31218  0.12858  0.85726  1.0000
  O   O2        1.0  0.68782  0.87142  0.14274  1.0000
  O   O3        1.0  0.23613  0.03465  0.64109  1.0000
  O   O4        1.0  0.76388  0.96535  0.35891  1.0000
  O   O5        1.0  0.99569  0.70182  0.08444  1.0000
  O   O6        1.0  0.00430  0.29817  0.91555  1.0000
  O   O7        1.0  0.24932  0.74698  0.22539  1.0000
  O   O8        1.0  0.75067  0.25302  0.77461  1.0000
  O   O9        1.0  0.89430  0.18080  0.58429  1.0000
  O   O10       1.0  0.10569  0.81919  0.41571  1.0000
