data_image0
_chemical_formula_structural       Cu6H12C8Br6N12
_chemical_formula_sum              "Cu6 H12 C8 Br6 N12"
_cell_length_a       7.68824
_cell_length_b       8.00016
_cell_length_c       10.9381
_cell_angle_alpha    92.1271
_cell_angle_beta     104.192
_cell_angle_gamma    117.229

_space_group_name_H-M_alt    "P 1"
_space_group_IT_number       1

loop_
  _space_group_symop_operation_xyz
  'x, y, z'

loop_
  _atom_site_type_symbol
  _atom_site_label
  _atom_site_symmetry_multiplicity
  _atom_site_fract_x
  _atom_site_fract_y
  _atom_site_fract_z
  _atom_site_occupancy
  Cu  Cu1       1.0  0.95938  0.34368  0.92445  1.0000
  Cu  Cu2       1.0  0.04062  0.65632  0.07554  1.0000
  Cu  Cu3       1.0  0.90836  0.02943  0.57998  1.0000
  Cu  Cu4       1.0  0.09165  0.97057  0.42002  1.0000
  Cu  Cu5       1.0  0.50773  0.07522  0.70002  1.0000
  Cu  Cu6       1.0  0.49227  0.92477  0.29998  1.0000
  H   H1        1.0  0.90137  0.01505  0.11632  1.0000
  H   H2        1.0  0.09862  0.98495  0.88368  1.0000
  H   H3        1.0  0.54532  0.70992  0.05785  1.0000
  H   H4        1.0  0.45467  0.29008  0.94215  1.0000
  H   H5        1.0  0.31869  0.70720  0.84188  1.0000
  H   H6        1.0  0.68131  0.29280  0.15812  1.0000
  H   H7        1.0  0.63448  0.67575  0.70593  1.0000
  H   H8        1.0  0.36552  0.32426  0.29406  1.0000
  H   H9        1.0  0.15024  0.56733  0.37449  1.0000
  H   H10       1.0  0.84976  0.43268  0.62551  1.0000
  H   H11       1.0  0.24933  0.46003  0.59092  1.0000
  H   H12       1.0  0.75067  0.53997  0.40908  1.0000
  C   C1        1.0  0.77613  0.97509  0.02976  1.0000
  C   C2        1.0  0.22386  0.02491  0.97024  1.0000
  C   C3        1.0  0.47473  0.81744  0.88933  1.0000
  C   C4        1.0  0.52527  0.18256  0.11067  1.0000
  C   C5        1.0  0.54922  0.69033  0.61555  1.0000
  C   C6        1.0  0.45079  0.30967  0.38445  1.0000
  C   C7        1.0  0.30016  0.63188  0.44448  1.0000
  C   C8        1.0  0.69985  0.36813  0.55552  1.0000
  Br  Br1       1.0  0.74973  0.50808  0.87804  1.0000
  Br  Br2       1.0  0.25026  0.49192  0.12196  1.0000
  Br  Br3       1.0  0.11153  0.30849  0.75039  1.0000
  Br  Br4       1.0  0.88848  0.69151  0.24961  1.0000
  Br  Br5       1.0  0.10722  0.84390  0.62902  1.0000
  Br  Br6       1.0  0.89279  0.15611  0.37097  1.0000
  N   N1        1.0  0.77240  0.07705  0.93750  1.0000
  N   N2        1.0  0.22759  0.92294  0.06250  1.0000
  N   N3        1.0  0.58069  0.97635  0.84777  1.0000
  N   N4        1.0  0.41931  0.02364  0.15223  1.0000
  N   N5        1.0  0.62472  0.82185  0.54541  1.0000
  N   N6        1.0  0.37528  0.17815  0.45459  1.0000
  N   N7        1.0  0.59330  0.81319  0.00195  1.0000
  N   N8        1.0  0.40670  0.18681  0.99805  1.0000
  N   N9        1.0  0.46592  0.78378  0.43614  1.0000
  N   N10       1.0  0.53408  0.21622  0.56386  1.0000
  N   N11       1.0  0.34818  0.56987  0.55478  1.0000
  N   N12       1.0  0.65183  0.43014  0.44522  1.0000
