data_image0
_chemical_formula_structural       Zn2H56C40N4O14
_chemical_formula_sum              "Zn2 H56 C40 N4 O14"
_cell_length_a       5.69189
_cell_length_b       11.4976
_cell_length_c       16.9314
_cell_angle_alpha    90
_cell_angle_beta     90
_cell_angle_gamma    97.9609

_space_group_name_H-M_alt    "P 1"
_space_group_IT_number       1

loop_
  _space_group_symop_operation_xyz
  'x, y, z'

loop_
  _atom_site_type_symbol
  _atom_site_label
  _atom_site_symmetry_multiplicity
  _atom_site_fract_x
  _atom_site_fract_y
  _atom_site_fract_z
  _atom_site_occupancy
  Zn  Zn1       1.0  0.79038  0.73048  0.65502  1.0000
  Zn  Zn2       1.0  0.20963  0.26952  0.15502  1.0000
  H   H1        1.0  0.26225  0.73847  0.66167  1.0000
  H   H2        1.0  0.73774  0.26154  0.16167  1.0000
  H   H3        1.0  0.12580  0.72444  0.74783  1.0000
  H   H4        1.0  0.87419  0.27557  0.24783  1.0000
  H   H5        1.0  0.10135  0.95404  0.59249  1.0000
  H   H6        1.0  0.89865  0.04596  0.09249  1.0000
  H   H7        1.0  0.11681  0.16992  0.59090  1.0000
  H   H8        1.0  0.88319  0.83008  0.09090  1.0000
  H   H9        1.0  0.47649  0.12407  0.73277  1.0000
  H   H10       1.0  0.52352  0.87593  0.23277  1.0000
  H   H11       1.0  0.47941  0.91013  0.72235  1.0000
  H   H12       1.0  0.52059  0.08987  0.22235  1.0000
  H   H13       1.0  0.10207  0.55297  0.59118  1.0000
  H   H14       1.0  0.89795  0.44702  0.09118  1.0000
  H   H15       1.0  0.12199  0.34083  0.59193  1.0000
  H   H16       1.0  0.87802  0.65917  0.09192  1.0000
  H   H17       1.0  0.46926  0.29794  0.72816  1.0000
  H   H18       1.0  0.53074  0.70206  0.22816  1.0000
  H   H19       1.0  0.48199  0.51360  0.72175  1.0000
  H   H20       1.0  0.51802  0.48641  0.22176  1.0000
  H   H21       1.0  0.45789  0.68154  0.90952  1.0000
  H   H22       1.0  0.54211  0.31846  0.40952  1.0000
  H   H23       1.0  0.91829  0.68517  0.94221  1.0000
  H   H24       1.0  0.08171  0.31483  0.44221  1.0000
  H   H25       1.0  0.47598  0.87645  0.85722  1.0000
  H   H26       1.0  0.52401  0.12355  0.35721  1.0000
  H   H27       1.0  0.79219  0.04100  0.90035  1.0000
  H   H28       1.0  0.20780  0.95900  0.40035  1.0000
  H   H29       1.0  0.90938  0.93610  0.83951  1.0000
  H   H30       1.0  0.09061  0.06390  0.33951  1.0000
  H   H31       1.0  0.95340  0.93511  0.94329  1.0000
  H   H32       1.0  0.04659  0.06489  0.44329  1.0000
  H   H33       1.0  0.43273  0.98390  0.98445  1.0000
  H   H34       1.0  0.56726  0.01609  0.48445  1.0000
  H   H35       1.0  0.57085  0.87718  0.03551  1.0000
  H   H36       1.0  0.42915  0.12281  0.53551  1.0000
  H   H37       1.0  0.29409  0.83514  0.98808  1.0000
  H   H38       1.0  0.70591  0.16486  0.48808  1.0000
  H   H39       1.0  0.76651  0.85837  0.46027  1.0000
  H   H40       1.0  0.23349  0.14163  0.96027  1.0000
  H   H41       1.0  0.06422  0.76149  0.51297  1.0000
  H   H42       1.0  0.93579  0.23852  0.01297  1.0000
  H   H43       1.0  0.53309  0.71191  0.37421  1.0000
  H   H44       1.0  0.46691  0.28810  0.87421  1.0000
  H   H45       1.0  0.92856  0.80952  0.32983  1.0000
  H   H46       1.0  0.07145  0.19047  0.82983  1.0000
  H   H47       1.0  0.87839  0.66185  0.29464  1.0000
  H   H48       1.0  0.12161  0.33815  0.79464  1.0000
  H   H49       1.0  0.06989  0.69911  0.37583  1.0000
  H   H50       1.0  0.93010  0.30088  0.87582  1.0000
  H   H51       1.0  0.48817  0.53285  0.45881  1.0000
  H   H52       1.0  0.51183  0.46714  0.95881  1.0000
  H   H53       1.0  0.80056  0.53202  0.45713  1.0000
  H   H54       1.0  0.19943  0.46798  0.95712  1.0000
  H   H55       1.0  0.63345  0.50538  0.36918  1.0000
  H   H56       1.0  0.36655  0.49462  0.86918  1.0000
  C   C1        1.0  0.96568  0.99565  0.62278  1.0000
  C   C2        1.0  0.03433  0.00435  0.12278  1.0000
  C   C3        1.0  0.97595  0.11707  0.62371  1.0000
  C   C4        1.0  0.02405  0.88293  0.12371  1.0000
  C   C5        1.0  0.79871  0.16872  0.66284  1.0000
  C   C6        1.0  0.20129  0.83129  0.16283  1.0000
  C   C7        1.0  0.61994  0.09199  0.70045  1.0000
  C   C8        1.0  0.38006  0.90801  0.20044  1.0000
  C   C9        1.0  0.62028  0.97131  0.69551  1.0000
  C   C10       1.0  0.37973  0.02869  0.19551  1.0000
  C   C11       1.0  0.96558  0.49307  0.62133  1.0000
  C   C12       1.0  0.03444  0.50693  0.12133  1.0000
  C   C13       1.0  0.97618  0.37309  0.62285  1.0000
  C   C14       1.0  0.02382  0.62691  0.12285  1.0000
  C   C15       1.0  0.79707  0.29747  0.66137  1.0000
  C   C16       1.0  0.20293  0.70254  0.16137  1.0000
  C   C17       1.0  0.61522  0.34979  0.69715  1.0000
  C   C18       1.0  0.38478  0.65022  0.19715  1.0000
  C   C19       1.0  0.61941  0.47076  0.69355  1.0000
  C   C20       1.0  0.38060  0.52924  0.19355  1.0000
  C   C21       1.0  0.75126  0.70843  0.82815  1.0000
  C   C22       1.0  0.24873  0.29158  0.32815  1.0000
  C   C23       1.0  0.63299  0.73589  0.90590  1.0000
  C   C24       1.0  0.36701  0.26411  0.40590  1.0000
  C   C25       1.0  0.59410  0.86602  0.90753  1.0000
  C   C26       1.0  0.40589  0.13398  0.40753  1.0000
  C   C27       1.0  0.82568  0.94942  0.89676  1.0000
  C   C28       1.0  0.17431  0.05058  0.39675  1.0000
  C   C29       1.0  0.46520  0.89199  0.98311  1.0000
  C   C30       1.0  0.53479  0.10800  0.48311  1.0000
  C   C31       1.0  0.48141  0.75810  0.52175  1.0000
  C   C32       1.0  0.51859  0.24190  0.02175  1.0000
  C   C33       1.0  0.71997  0.76587  0.47897  1.0000
  C   C34       1.0  0.28003  0.23413  0.97897  1.0000
  C   C35       1.0  0.69250  0.68831  0.40377  1.0000
  C   C36       1.0  0.30751  0.31169  0.90377  1.0000
  C   C37       1.0  0.90410  0.71673  0.34799  1.0000
  C   C38       1.0  0.09590  0.28327  0.84798  1.0000
  C   C39       1.0  0.65012  0.55744  0.42377  1.0000
  C   C40       1.0  0.34988  0.44256  0.92377  1.0000
  N   N1        1.0  0.78975  0.92307  0.65715  1.0000
  N   N2        1.0  0.21026  0.07694  0.15715  1.0000
  N   N3        1.0  0.79102  0.54194  0.65611  1.0000
  N   N4        1.0  0.20899  0.45806  0.15612  1.0000
  O   O1        1.0  0.13976  0.76640  0.69615  1.0000
  O   O2        1.0  0.86024  0.23360  0.19614  1.0000
  O   O3        1.0  0.63253  0.72067  0.76523  1.0000
  O   O4        1.0  0.36747  0.27933  0.26523  1.0000
  O   O5        1.0  0.95788  0.67978  0.83253  1.0000
  O   O6        1.0  0.04212  0.32021  0.33253  1.0000
  O   O7        1.0  0.77773  0.70682  0.97013  1.0000
  O   O8        1.0  0.22228  0.29317  0.47013  1.0000
  O   O9        1.0  0.46437  0.71580  0.59200  1.0000
  O   O10       1.0  0.53564  0.28420  0.09200  1.0000
  O   O11       1.0  0.31445  0.79342  0.48372  1.0000
  O   O12       1.0  0.68555  0.20659  0.98371  1.0000
  O   O13       1.0  0.89380  0.73458  0.53241  1.0000
  O   O14       1.0  0.10620  0.26542  0.03241  1.0000
