data_image0
_chemical_formula_structural       Zn2H44C68N24
_chemical_formula_sum              "Zn2 H44 C68 N24"
_cell_length_a       9.38421
_cell_length_b       9.73247
_cell_length_c       19.7441
_cell_angle_alpha    90
_cell_angle_beta     90
_cell_angle_gamma    90.4687

_space_group_name_H-M_alt    "P 1"
_space_group_IT_number       1

loop_
  _space_group_symop_operation_xyz
  'x, y, z'

loop_
  _atom_site_type_symbol
  _atom_site_label
  _atom_site_symmetry_multiplicity
  _atom_site_fract_x
  _atom_site_fract_y
  _atom_site_fract_z
  _atom_site_occupancy
  Zn  Zn1       1.0  0.50000  0.00000  0.50000  1.0000
  Zn  Zn2       1.0  0.49999  0.50000  0.00000  1.0000
  H   H1        1.0  0.50317  0.23886  0.62363  1.0000
  H   H2        1.0  0.49683  0.26115  0.12363  1.0000
  H   H3        1.0  0.49683  0.76114  0.37637  1.0000
  H   H4        1.0  0.50317  0.73886  0.87637  1.0000
  H   H5        1.0  0.68257  0.42325  0.65976  1.0000
  H   H6        1.0  0.31745  0.07674  0.15975  1.0000
  H   H7        1.0  0.31743  0.57674  0.34025  1.0000
  H   H8        1.0  0.68257  0.92325  0.84024  1.0000
  H   H9        1.0  0.96988  0.27832  0.51701  1.0000
  H   H10       1.0  0.03013  0.22168  0.01702  1.0000
  H   H11       1.0  0.03014  0.72168  0.48299  1.0000
  H   H12       1.0  0.96987  0.77831  0.98299  1.0000
  H   H13       1.0  0.14402  0.01523  0.36892  1.0000
  H   H14       1.0  0.85597  0.48476  0.86892  1.0000
  H   H15       1.0  0.85600  0.98476  0.63109  1.0000
  H   H16       1.0  0.14400  0.51525  0.13108  1.0000
  H   H17       1.0  0.30844  0.93569  0.27863  1.0000
  H   H18       1.0  0.69155  0.56431  0.77863  1.0000
  H   H19       1.0  0.69157  0.06431  0.72137  1.0000
  H   H20       1.0  0.30843  0.43569  0.22137  1.0000
  H   H21       1.0  0.95223  0.75828  0.17082  1.0000
  H   H22       1.0  0.04777  0.74172  0.67082  1.0000
  H   H23       1.0  0.04777  0.24175  0.82918  1.0000
  H   H24       1.0  0.95223  0.25826  0.32917  1.0000
  H   H25       1.0  0.78914  0.83487  0.26279  1.0000
  H   H26       1.0  0.21086  0.66512  0.76279  1.0000
  H   H27       1.0  0.21087  0.16516  0.73721  1.0000
  H   H28       1.0  0.78913  0.33486  0.23721  1.0000
  H   H29       1.0  0.40046  0.72175  0.23652  1.0000
  H   H30       1.0  0.59954  0.77824  0.73652  1.0000
  H   H31       1.0  0.59954  0.27826  0.76348  1.0000
  H   H32       1.0  0.40046  0.22175  0.26347  1.0000
  H   H33       1.0  0.54165  0.60374  0.14707  1.0000
  H   H34       1.0  0.45835  0.89625  0.64706  1.0000
  H   H35       1.0  0.45835  0.39625  0.85294  1.0000
  H   H36       1.0  0.54165  0.10375  0.35294  1.0000
  H   H37       1.0  0.25854  0.72034  0.99735  1.0000
  H   H38       1.0  0.74146  0.77966  0.49735  1.0000
  H   H39       1.0  0.74147  0.27966  0.00265  1.0000
  H   H40       1.0  0.25853  0.22033  0.50265  1.0000
  H   H41       1.0  0.10460  0.84315  0.08087  1.0000
  H   H42       1.0  0.89541  0.65685  0.58087  1.0000
  H   H43       1.0  0.89542  0.15686  0.91912  1.0000
  H   H44       1.0  0.10458  0.34314  0.41912  1.0000
  C   C1        1.0  0.60758  0.25059  0.59958  1.0000
  C   C2        1.0  0.39242  0.24941  0.09958  1.0000
  C   C3        1.0  0.39243  0.74941  0.40042  1.0000
  C   C4        1.0  0.60758  0.75059  0.90042  1.0000
  C   C5        1.0  0.70688  0.35038  0.61943  1.0000
  C   C6        1.0  0.29313  0.14962  0.11943  1.0000
  C   C7        1.0  0.29313  0.64962  0.38057  1.0000
  C   C8        1.0  0.70687  0.85037  0.88057  1.0000
  C   C9        1.0  0.86490  0.27286  0.54071  1.0000
  C   C10       1.0  0.13511  0.22715  0.04071  1.0000
  C   C11       1.0  0.13512  0.72715  0.45929  1.0000
  C   C12       1.0  0.86489  0.77285  0.95929  1.0000
  C   C13       1.0  0.76476  0.17459  0.51817  1.0000
  C   C14       1.0  0.23524  0.32541  0.01817  1.0000
  C   C15       1.0  0.23525  0.82541  0.48184  1.0000
  C   C16       1.0  0.76475  0.67458  0.98183  1.0000
  C   C17       1.0  0.78782  0.08302  0.46132  1.0000
  C   C18       1.0  0.21218  0.41697  0.96132  1.0000
  C   C19       1.0  0.21219  0.91698  0.53868  1.0000
  C   C20       1.0  0.78782  0.58302  0.03868  1.0000
  C   C21       1.0  0.86402  0.97629  0.37636  1.0000
  C   C22       1.0  0.13598  0.52370  0.87636  1.0000
  C   C23       1.0  0.13599  0.02371  0.62364  1.0000
  C   C24       1.0  0.86401  0.47630  0.12364  1.0000
  C   C25       1.0  0.95676  0.92962  0.32184  1.0000
  C   C26       1.0  0.04324  0.57037  0.82184  1.0000
  C   C27       1.0  0.04326  0.07039  0.67816  1.0000
  C   C28       1.0  0.95675  0.42962  0.17816  1.0000
  C   C29       1.0  0.10350  0.95813  0.32554  1.0000
  C   C30       1.0  0.89649  0.54186  0.82553  1.0000
  C   C31       1.0  0.89651  0.04187  0.67447  1.0000
  C   C32       1.0  0.10349  0.45814  0.17447  1.0000
  C   C33       1.0  0.19461  0.91340  0.27496  1.0000
  C   C34       1.0  0.80538  0.58660  0.77496  1.0000
  C   C35       1.0  0.80540  0.08661  0.72504  1.0000
  C   C36       1.0  0.19460  0.41340  0.22504  1.0000
  C   C37       1.0  0.14105  0.84221  0.21850  1.0000
  C   C38       1.0  0.85894  0.65779  0.71850  1.0000
  C   C39       1.0  0.85895  0.15780  0.78149  1.0000
  C   C40       1.0  0.14105  0.34220  0.28149  1.0000
  C   C41       1.0  0.99377  0.81594  0.21405  1.0000
  C   C42       1.0  0.00623  0.68405  0.71405  1.0000
  C   C43       1.0  0.00624  0.18409  0.78595  1.0000
  C   C44       1.0  0.99376  0.31593  0.28595  1.0000
  C   C45       1.0  0.90294  0.85761  0.26557  1.0000
  C   C46       1.0  0.09706  0.64238  0.76556  1.0000
  C   C47       1.0  0.09707  0.14241  0.73443  1.0000
  C   C48       1.0  0.90293  0.35760  0.23443  1.0000
  C   C49       1.0  0.23707  0.78877  0.16633  1.0000
  C   C50       1.0  0.76292  0.71124  0.66633  1.0000
  C   C51       1.0  0.76293  0.21124  0.83367  1.0000
  C   C52       1.0  0.23707  0.28876  0.33367  1.0000
  C   C53       1.0  0.36617  0.72600  0.18383  1.0000
  C   C54       1.0  0.63383  0.77400  0.68383  1.0000
  C   C55       1.0  0.63383  0.27400  0.81617  1.0000
  C   C56       1.0  0.36617  0.22600  0.31616  1.0000
  C   C57       1.0  0.44507  0.65982  0.13434  1.0000
  C   C58       1.0  0.55493  0.84018  0.63434  1.0000
  C   C59       1.0  0.55493  0.34018  0.86566  1.0000
  C   C60       1.0  0.44507  0.15983  0.36566  1.0000
  C   C61       1.0  0.28621  0.72362  0.05099  1.0000
  C   C62       1.0  0.71379  0.77639  0.55098  1.0000
  C   C63       1.0  0.71379  0.27639  0.94902  1.0000
  C   C64       1.0  0.28621  0.22361  0.44901  1.0000
  C   C65       1.0  0.20034  0.79062  0.09743  1.0000
  C   C66       1.0  0.79966  0.70939  0.59743  1.0000
  C   C67       1.0  0.79966  0.20939  0.90257  1.0000
  C   C68       1.0  0.20033  0.29061  0.40256  1.0000
  N   N1        1.0  0.63626  0.16384  0.54893  1.0000
  N   N2        1.0  0.36374  0.33617  0.04893  1.0000
  N   N3        1.0  0.36375  0.83616  0.45107  1.0000
  N   N4        1.0  0.63625  0.66384  0.95107  1.0000
  N   N5        1.0  0.83578  0.36142  0.59027  1.0000
  N   N6        1.0  0.16423  0.13857  0.09027  1.0000
  N   N7        1.0  0.16423  0.63858  0.40974  1.0000
  N   N8        1.0  0.83577  0.86142  0.90973  1.0000
  N   N9        1.0  0.68202  0.99677  0.44116  1.0000
  N   N10       1.0  0.31798  0.50323  0.94116  1.0000
  N   N11       1.0  0.31799  0.00324  0.55884  1.0000
  N   N12       1.0  0.68201  0.49676  0.05884  1.0000
  N   N13       1.0  0.72941  0.92736  0.38642  1.0000
  N   N14       1.0  0.27059  0.57263  0.88641  1.0000
  N   N15       1.0  0.27060  0.07264  0.61359  1.0000
  N   N16       1.0  0.72940  0.42736  0.11359  1.0000
  N   N17       1.0  0.90450  0.07370  0.42207  1.0000
  N   N18       1.0  0.09549  0.42629  0.92207  1.0000
  N   N19       1.0  0.09551  0.92630  0.57793  1.0000
  N   N20       1.0  0.90450  0.57370  0.07793  1.0000
  N   N21       1.0  0.40469  0.65546  0.06893  1.0000
  N   N22       1.0  0.59531  0.84454  0.56893  1.0000
  N   N23       1.0  0.59531  0.34454  0.93107  1.0000
  N   N24       1.0  0.40469  0.15547  0.43107  1.0000
