data_image0
_chemical_formula_structural       Zn4H24C48O16
_chemical_formula_sum              "Zn4 H24 C48 O16"
_cell_length_a       4.83265
_cell_length_b       12.9284
_cell_length_c       16.829
_cell_angle_alpha    111.221
_cell_angle_beta     89.9998
_cell_angle_gamma    89.9999

_space_group_name_H-M_alt    "P 1"
_space_group_IT_number       1

loop_
  _space_group_symop_operation_xyz
  'x, y, z'

loop_
  _atom_site_type_symbol
  _atom_site_label
  _atom_site_symmetry_multiplicity
  _atom_site_fract_x
  _atom_site_fract_y
  _atom_site_fract_z
  _atom_site_occupancy
  Zn  Zn1       1.0  0.28571  0.92674  0.05400  1.0000
  Zn  Zn2       1.0  0.78571  0.57326  0.94600  1.0000
  Zn  Zn3       1.0  0.71430  0.07326  0.94600  1.0000
  Zn  Zn4       1.0  0.21430  0.42674  0.05400  1.0000
  H   H1        1.0  0.84707  0.56545  0.23957  1.0000
  H   H2        1.0  0.34707  0.93455  0.76043  1.0000
  H   H3        1.0  0.15293  0.43455  0.76043  1.0000
  H   H4        1.0  0.65292  0.06545  0.23957  1.0000
  H   H5        1.0  0.81678  0.72511  0.37337  1.0000
  H   H6        1.0  0.31678  0.77489  0.62663  1.0000
  H   H7        1.0  0.18322  0.27489  0.62663  1.0000
  H   H8        1.0  0.68322  0.22511  0.37337  1.0000
  H   H9        1.0  0.52145  0.71708  0.49316  1.0000
  H   H10       1.0  0.02145  0.78292  0.50684  1.0000
  H   H11       1.0  0.47855  0.28292  0.50684  1.0000
  H   H12       1.0  0.97855  0.21708  0.49316  1.0000
  H   H13       1.0  0.25581  0.54578  0.47649  1.0000
  H   H14       1.0  0.75581  0.95422  0.52351  1.0000
  H   H15       1.0  0.74419  0.45422  0.52351  1.0000
  H   H16       1.0  0.24418  0.04578  0.47649  1.0000
  H   H17       1.0  0.12763  0.35300  0.39049  1.0000
  H   H18       1.0  0.62764  0.14700  0.60952  1.0000
  H   H19       1.0  0.87236  0.64699  0.60951  1.0000
  H   H20       1.0  0.37236  0.85300  0.39049  1.0000
  H   H21       1.0  0.17478  0.18813  0.25718  1.0000
  H   H22       1.0  0.67479  0.31187  0.74282  1.0000
  H   H23       1.0  0.82523  0.81187  0.74282  1.0000
  H   H24       1.0  0.32522  0.68813  0.25718  1.0000
  C   C1        1.0  0.46845  0.16680  0.11800  1.0000
  C   C2        1.0  0.96845  0.33320  0.88200  1.0000
  C   C3        1.0  0.53153  0.83320  0.88201  1.0000
  C   C4        1.0  0.03153  0.66681  0.11799  1.0000
  C   C5        1.0  0.73857  0.37951  0.12942  1.0000
  C   C6        1.0  0.23857  0.12049  0.87058  1.0000
  C   C7        1.0  0.26144  0.62049  0.87058  1.0000
  C   C8        1.0  0.76143  0.87951  0.12942  1.0000
  C   C9        1.0  0.44703  0.26883  0.19618  1.0000
  C   C10       1.0  0.94703  0.23117  0.80382  1.0000
  C   C11       1.0  0.55298  0.73117  0.80382  1.0000
  C   C12       1.0  0.05297  0.76883  0.19618  1.0000
  C   C13       1.0  0.58210  0.36624  0.20235  1.0000
  C   C14       1.0  0.08210  0.13375  0.79765  1.0000
  C   C15       1.0  0.41791  0.63375  0.79765  1.0000
  C   C16       1.0  0.91790  0.86625  0.20235  1.0000
  C   C17       1.0  0.56824  0.46117  0.27940  1.0000
  C   C18       1.0  0.06825  0.03882  0.72060  1.0000
  C   C19       1.0  0.43175  0.53883  0.72060  1.0000
  C   C20       1.0  0.93175  0.96118  0.27940  1.0000
  C   C21       1.0  0.71572  0.56064  0.29070  1.0000
  C   C22       1.0  0.21573  0.93936  0.70930  1.0000
  C   C23       1.0  0.28427  0.43936  0.70930  1.0000
  C   C24       1.0  0.78427  0.06064  0.29070  1.0000
  C   C25       1.0  0.69965  0.65021  0.36635  1.0000
  C   C26       1.0  0.19965  0.84979  0.63365  1.0000
  C   C27       1.0  0.30035  0.34979  0.63365  1.0000
  C   C28       1.0  0.80035  0.15021  0.36635  1.0000
  C   C29       1.0  0.53228  0.64544  0.43382  1.0000
  C   C30       1.0  0.03229  0.85456  0.56618  1.0000
  C   C31       1.0  0.46771  0.35457  0.56618  1.0000
  C   C32       1.0  0.96771  0.14544  0.43382  1.0000
  C   C33       1.0  0.38478  0.55048  0.42468  1.0000
  C   C34       1.0  0.88479  0.94952  0.57532  1.0000
  C   C35       1.0  0.61521  0.44952  0.57532  1.0000
  C   C36       1.0  0.11521  0.05048  0.42468  1.0000
  C   C37       1.0  0.40058  0.45603  0.34832  1.0000
  C   C38       1.0  0.90058  0.04397  0.65168  1.0000
  C   C39       1.0  0.59942  0.54397  0.65168  1.0000
  C   C40       1.0  0.09941  0.95603  0.34832  1.0000
  C   C41       1.0  0.25722  0.35635  0.33840  1.0000
  C   C42       1.0  0.75723  0.14365  0.66161  1.0000
  C   C43       1.0  0.74277  0.64366  0.66160  1.0000
  C   C44       1.0  0.24276  0.85635  0.33840  1.0000
  C   C45       1.0  0.28257  0.26503  0.26482  1.0000
  C   C46       1.0  0.78258  0.23497  0.73519  1.0000
  C   C47       1.0  0.71743  0.73497  0.73518  1.0000
  C   C48       1.0  0.21742  0.76503  0.26482  1.0000
  O   O1        1.0  0.30445  0.08769  0.11266  1.0000
  O   O2        1.0  0.80445  0.41231  0.88734  1.0000
  O   O3        1.0  0.69556  0.91232  0.88734  1.0000
  O   O4        1.0  0.19557  0.58768  0.11266  1.0000
  O   O5        1.0  0.65307  0.16680  0.06379  1.0000
  O   O6        1.0  0.15307  0.33320  0.93621  1.0000
  O   O7        1.0  0.34696  0.83320  0.93621  1.0000
  O   O8        1.0  0.84695  0.66680  0.06379  1.0000
  O   O9        1.0  0.61280  0.40301  0.07153  1.0000
  O   O10       1.0  0.11280  0.09698  0.92847  1.0000
  O   O11       1.0  0.38721  0.59699  0.92847  1.0000
  O   O12       1.0  0.88720  0.90301  0.07153  1.0000
  O   O13       1.0  0.00069  0.37692  0.13375  1.0000
  O   O14       1.0  0.50069  0.12308  0.86625  1.0000
  O   O15       1.0  0.99932  0.62308  0.86625  1.0000
  O   O16       1.0  0.49931  0.87692  0.13375  1.0000
