data_image0
_chemical_formula_structural       Cd2H24C28N20O12
_chemical_formula_sum              "Cd2 H24 C28 N20 O12"
_cell_length_a       8.91265
_cell_length_b       8.42331
_cell_length_c       11.924
_cell_angle_alpha    89.9957
_cell_angle_beta     105.401
_cell_angle_gamma    89.9938

_space_group_name_H-M_alt    "P 1"
_space_group_IT_number       1

loop_
  _space_group_symop_operation_xyz
  'x, y, z'

loop_
  _atom_site_type_symbol
  _atom_site_label
  _atom_site_symmetry_multiplicity
  _atom_site_fract_x
  _atom_site_fract_y
  _atom_site_fract_z
  _atom_site_occupancy
  Cd  Cd1       1.0  0.00000  0.50000  0.00001  1.0000
  Cd  Cd2       1.0  0.50000  0.99999  1.00000  1.0000
  H   H1        1.0  0.06235  0.08471  0.77722  1.0000
  H   H2        1.0  0.43770  0.58471  0.22271  1.0000
  H   H3        1.0  0.93765  0.91529  0.22277  1.0000
  H   H4        1.0  0.56229  0.41529  0.77727  1.0000
  H   H5        1.0  0.17090  0.05489  0.60603  1.0000
  H   H6        1.0  0.32915  0.55497  0.39391  1.0000
  H   H7        1.0  0.82908  0.94512  0.39395  1.0000
  H   H8        1.0  0.67086  0.44506  0.60609  1.0000
  H   H9        1.0  0.04133  0.56054  0.57978  1.0000
  H   H10       1.0  0.45858  0.06058  0.42022  1.0000
  H   H11       1.0  0.95867  0.43944  0.42022  1.0000
  H   H12       1.0  0.54142  0.93944  0.57979  1.0000
  H   H13       1.0  0.93017  0.59079  0.74771  1.0000
  H   H14       1.0  0.56973  0.09073  0.25229  1.0000
  H   H15       1.0  0.06985  0.40920  0.25231  1.0000
  H   H16       1.0  0.43024  0.90928  0.74771  1.0000
  H   H17       1.0  0.84359  0.22209  0.85231  1.0000
  H   H18       1.0  0.65645  0.72202  0.14771  1.0000
  H   H19       1.0  0.15642  0.77791  0.14769  1.0000
  H   H20       1.0  0.34355  0.27796  0.85229  1.0000
  H   H21       1.0  0.89448  0.31191  0.75239  1.0000
  H   H22       1.0  0.60560  0.81187  0.24763  1.0000
  H   H23       1.0  0.10552  0.68809  0.24761  1.0000
  H   H24       1.0  0.39440  0.18814  0.75237  1.0000
  C   C1        1.0  0.89585  0.85597  0.85789  1.0000
  C   C2        1.0  0.60413  0.35592  0.14209  1.0000
  C   C3        1.0  0.10415  0.14402  0.14212  1.0000
  C   C4        1.0  0.39587  0.64407  0.85790  1.0000
  C   C5        1.0  0.98190  0.84125  0.77001  1.0000
  C   C6        1.0  0.51809  0.34121  0.22998  1.0000
  C   C7        1.0  0.01810  0.15876  0.23000  1.0000
  C   C8        1.0  0.48192  0.65880  0.77002  1.0000
  C   C9        1.0  0.05433  0.97132  0.73227  1.0000
  C   C10       1.0  0.44566  0.47132  0.26768  1.0000
  C   C11       1.0  0.94567  0.02867  0.26774  1.0000
  C   C12       1.0  0.55432  0.52868  0.73231  1.0000
  C   C13       1.0  0.11629  0.95521  0.63762  1.0000
  C   C14       1.0  0.38375  0.45528  0.36235  1.0000
  C   C15       1.0  0.88371  0.04478  0.36237  1.0000
  C   C16       1.0  0.61626  0.54474  0.63765  1.0000
  C   C17       1.0  0.10381  0.80886  0.58039  1.0000
  C   C18       1.0  0.39616  0.30891  0.41957  1.0000
  C   C19       1.0  0.89618  0.19113  0.41959  1.0000
  C   C20       1.0  0.60384  0.69111  0.58044  1.0000
  C   C21       1.0  0.04282  0.67509  0.62149  1.0000
  C   C22       1.0  0.45710  0.17512  0.37850  1.0000
  C   C23       1.0  0.95718  0.32489  0.37853  1.0000
  C   C24       1.0  0.54288  0.82490  0.62150  1.0000
  C   C25       1.0  0.98308  0.69233  0.71680  1.0000
  C   C26       1.0  0.51685  0.19229  0.28319  1.0000
  C   C27       1.0  0.01693  0.30767  0.28322  1.0000
  C   C28       1.0  0.48312  0.80772  0.71680  1.0000
  N   N1        1.0  0.87450  0.73349  0.92585  1.0000
  N   N2        1.0  0.62550  0.23346  0.07412  1.0000
  N   N3        1.0  0.12551  0.26650  0.07416  1.0000
  N   N4        1.0  0.37449  0.76653  0.92587  1.0000
  N   N5        1.0  0.77369  0.78377  0.98286  1.0000
  N   N6        1.0  0.72631  0.28375  0.01710  1.0000
  N   N7        1.0  0.22632  0.21622  0.01713  1.0000
  N   N8        1.0  0.27370  0.71625  0.98290  1.0000
  N   N9        1.0  0.73441  0.93118  0.95005  1.0000
  N   N10       1.0  0.76558  0.43114  0.04993  1.0000
  N   N11       1.0  0.26560  0.06882  0.04995  1.0000
  N   N12       1.0  0.23443  0.56886  0.95008  1.0000
  N   N13       1.0  0.80974  0.98181  0.87270  1.0000
  N   N14       1.0  0.69025  0.48174  0.12727  1.0000
  N   N15       1.0  0.19028  0.01819  0.12730  1.0000
  N   N16       1.0  0.30973  0.51826  0.87272  1.0000
  N   N17       1.0  0.14958  0.79703  0.47266  1.0000
  N   N18       1.0  0.35042  0.29715  0.52732  1.0000
  N   N19       1.0  0.85040  0.20295  0.52732  1.0000
  N   N20       1.0  0.64958  0.70288  0.47269  1.0000
  O   O1        1.0  0.23575  0.89974  0.44890  1.0000
  O   O2        1.0  0.26440  0.39995  0.55111  1.0000
  O   O3        1.0  0.76426  0.10025  0.55110  1.0000
  O   O4        1.0  0.73561  0.60008  0.44888  1.0000
  O   O5        1.0  0.09451  0.68383  0.40583  1.0000
  O   O6        1.0  0.40536  0.18388  0.59417  1.0000
  O   O7        1.0  0.90545  0.31614  0.59418  1.0000
  O   O8        1.0  0.59464  0.81613  0.40583  1.0000
  O   O9        1.0  0.88262  0.32481  0.83143  1.0000
  O   O10       1.0  0.61747  0.82478  0.16859  1.0000
  O   O11       1.0  0.11739  0.67519  0.16857  1.0000
  O   O12       1.0  0.38253  0.17521  0.83141  1.0000
