data_image0
_chemical_formula_structural       Cu4H64C48N4O24
_chemical_formula_sum              "Cu4 H64 C48 N4 O24"
_cell_length_a       9.86751
_cell_length_b       11.3322
_cell_length_c       12.7223
_cell_angle_alpha    107.114
_cell_angle_beta     97.8154
_cell_angle_gamma    90.8513

_space_group_name_H-M_alt    "P 1"
_space_group_IT_number       1

loop_
  _space_group_symop_operation_xyz
  'x, y, z'

loop_
  _atom_site_type_symbol
  _atom_site_label
  _atom_site_symmetry_multiplicity
  _atom_site_fract_x
  _atom_site_fract_y
  _atom_site_fract_z
  _atom_site_occupancy
  Cu  Cu1       1.0  0.13179  0.51162  0.50274  1.0000
  Cu  Cu2       1.0  0.86820  0.48838  0.49726  1.0000
  Cu  Cu3       1.0  0.36808  0.00342  0.50032  1.0000
  Cu  Cu4       1.0  0.63193  0.99658  0.49969  1.0000
  H   H1        1.0  0.35551  0.31960  0.48871  1.0000
  H   H2        1.0  0.64449  0.68040  0.51128  1.0000
  H   H3        1.0  0.38833  0.69278  0.51440  1.0000
  H   H4        1.0  0.61167  0.30723  0.48560  1.0000
  H   H5        1.0  0.98266  0.12519  0.22708  1.0000
  H   H6        1.0  0.01733  0.87481  0.77292  1.0000
  H   H7        1.0  0.86397  0.21086  0.16715  1.0000
  H   H8        1.0  0.13604  0.78914  0.83285  1.0000
  H   H9        1.0  0.13616  0.35293  0.78500  1.0000
  H   H10       1.0  0.86385  0.64707  0.21501  1.0000
  H   H11       1.0  0.10946  0.21250  0.67876  1.0000
  H   H12       1.0  0.89054  0.78749  0.32123  1.0000
  H   H13       1.0  0.07444  0.15787  0.06687  1.0000
  H   H14       1.0  0.92555  0.84212  0.93312  1.0000
  H   H15       1.0  0.17817  0.24816  0.18837  1.0000
  H   H16       1.0  0.82183  0.75183  0.81162  1.0000
  H   H17       1.0  0.90263  0.34810  0.82456  1.0000
  H   H18       1.0  0.09737  0.65190  0.17543  1.0000
  H   H19       1.0  0.84271  0.24184  0.69573  1.0000
  H   H20       1.0  0.15729  0.75815  0.30427  1.0000
  H   H21       1.0  0.11730  0.45627  0.00157  1.0000
  H   H22       1.0  0.88269  0.54372  0.99843  1.0000
  H   H23       1.0  0.16427  0.29824  0.96530  1.0000
  H   H24       1.0  0.83573  0.70176  0.03470  1.0000
  H   H25       1.0  0.25229  0.40523  0.08608  1.0000
  H   H26       1.0  0.74771  0.59477  0.91392  1.0000
  H   H27       1.0  0.85890  0.06434  0.90915  1.0000
  H   H28       1.0  0.14109  0.93567  0.09085  1.0000
  H   H29       1.0  0.73662  0.11060  0.81398  1.0000
  H   H30       1.0  0.26338  0.88940  0.18602  1.0000
  H   H31       1.0  0.81528  0.22310  0.93554  1.0000
  H   H32       1.0  0.18472  0.77690  0.06446  1.0000
  H   H33       1.0  0.11718  0.14046  0.42510  1.0000
  H   H34       1.0  0.88283  0.85954  0.57490  1.0000
  H   H35       1.0  0.13997  0.85863  0.57292  1.0000
  H   H36       1.0  0.86004  0.14137  0.42708  1.0000
  H   H37       1.0  0.37318  0.68482  0.18918  1.0000
  H   H38       1.0  0.62683  0.31518  0.81083  1.0000
  H   H39       1.0  0.38408  0.60607  0.28952  1.0000
  H   H40       1.0  0.61592  0.39394  0.71048  1.0000
  H   H41       1.0  0.61082  0.65038  0.16033  1.0000
  H   H42       1.0  0.38918  0.34962  0.83967  1.0000
  H   H43       1.0  0.65223  0.61398  0.28514  1.0000
  H   H44       1.0  0.34777  0.38602  0.71486  1.0000
  H   H45       1.0  0.59291  0.31303  0.02788  1.0000
  H   H46       1.0  0.40709  0.68696  0.97212  1.0000
  H   H47       1.0  0.64979  0.46217  0.02118  1.0000
  H   H48       1.0  0.35021  0.53783  0.97882  1.0000
  H   H49       1.0  0.73621  0.40200  0.12240  1.0000
  H   H50       1.0  0.26378  0.59800  0.87760  1.0000
  H   H51       1.0  0.35761  0.11272  0.19311  1.0000
  H   H52       1.0  0.64240  0.88728  0.80690  1.0000
  H   H53       1.0  0.45582  0.24833  0.27270  1.0000
  H   H54       1.0  0.54418  0.75167  0.72730  1.0000
  H   H55       1.0  0.67329  0.14228  0.22622  1.0000
  H   H56       1.0  0.32670  0.85772  0.77378  1.0000
  H   H57       1.0  0.56745  0.15841  0.10950  1.0000
  H   H58       1.0  0.43255  0.84159  0.89050  1.0000
  H   H59       1.0  0.66148  0.83768  0.99347  1.0000
  H   H60       1.0  0.33851  0.16232  0.00653  1.0000
  H   H61       1.0  0.70851  0.99564  0.00417  1.0000
  H   H62       1.0  0.29148  0.00436  0.99584  1.0000
  H   H63       1.0  0.78082  0.93040  0.10814  1.0000
  H   H64       1.0  0.21918  0.06960  0.89186  1.0000
  C   C1        1.0  0.97727  0.31490  0.32276  1.0000
  C   C2        1.0  0.02272  0.68510  0.67723  1.0000
  C   C3        1.0  0.03388  0.36820  0.63312  1.0000
  C   C4        1.0  0.96611  0.63179  0.36687  1.0000
  C   C5        1.0  0.42022  0.40041  0.49360  1.0000
  C   C6        1.0  0.57978  0.59959  0.50640  1.0000
  C   C7        1.0  0.43877  0.60647  0.50818  1.0000
  C   C8        1.0  0.56123  0.39353  0.49182  1.0000
  C   C9        1.0  0.96826  0.21509  0.21131  1.0000
  C   C10       1.0  0.03174  0.78491  0.78869  1.0000
  C   C11       1.0  0.05930  0.29714  0.71734  1.0000
  C   C12       1.0  0.94071  0.70286  0.28266  1.0000
  C   C13       1.0  0.07396  0.23758  0.14160  1.0000
  C   C14       1.0  0.92604  0.76242  0.85840  1.0000
  C   C15       1.0  0.93249  0.26681  0.76187  1.0000
  C   C16       1.0  0.06751  0.73319  0.23813  1.0000
  C   C17       1.0  0.05231  0.35208  0.10438  1.0000
  C   C18       1.0  0.94768  0.64792  0.89561  1.0000
  C   C19       1.0  0.94492  0.15928  0.80851  1.0000
  C   C20       1.0  0.05508  0.84073  0.19149  1.0000
  C   C21       1.0  0.15117  0.38052  0.03415  1.0000
  C   C22       1.0  0.84883  0.61948  0.96585  1.0000
  C   C23       1.0  0.83346  0.13807  0.87144  1.0000
  C   C24       1.0  0.16655  0.86193  0.12856  1.0000
  C   C25       1.0  0.06410  0.07753  0.45843  1.0000
  C   C26       1.0  0.93590  0.92247  0.54157  1.0000
  C   C27       1.0  0.07717  0.92206  0.54052  1.0000
  C   C28       1.0  0.92284  0.07794  0.45948  1.0000
  C   C29       1.0  0.47089  0.79025  0.34817  1.0000
  C   C30       1.0  0.52911  0.20975  0.65184  1.0000
  C   C31       1.0  0.44301  0.66757  0.25746  1.0000
  C   C32       1.0  0.55700  0.33244  0.74255  1.0000
  C   C33       1.0  0.56869  0.60529  0.21537  1.0000
  C   C34       1.0  0.43132  0.39471  0.78464  1.0000
  C   C35       1.0  0.54176  0.46794  0.15845  1.0000
  C   C36       1.0  0.45824  0.53206  0.84155  1.0000
  C   C37       1.0  0.63406  0.40649  0.07657  1.0000
  C   C38       1.0  0.36594  0.59350  0.92343  1.0000
  C   C39       1.0  0.47120  0.09803  0.34216  1.0000
  C   C40       1.0  0.52879  0.90198  0.65784  1.0000
  C   C41       1.0  0.45780  0.14697  0.24276  1.0000
  C   C42       1.0  0.54220  0.85303  0.75725  1.0000
  C   C43       1.0  0.57319  0.11117  0.17413  1.0000
  C   C44       1.0  0.42680  0.88883  0.82587  1.0000
  C   C45       1.0  0.57372  0.97363  0.11768  1.0000
  C   C46       1.0  0.42627  0.02637  0.88231  1.0000
  C   C47       1.0  0.68707  0.93115  0.05032  1.0000
  C   C48       1.0  0.31292  0.06885  0.94968  1.0000
  N   N1        1.0  0.35893  0.50704  0.50181  1.0000
  N   N2        1.0  0.64107  0.49297  0.49819  1.0000
  N   N3        1.0  0.14122  0.99963  0.49882  1.0000
  N   N4        1.0  0.85879  0.00037  0.50118  1.0000
  O   O1        1.0  0.09657  0.36273  0.36776  1.0000
  O   O2        1.0  0.90343  0.63725  0.63222  1.0000
  O   O3        1.0  0.14124  0.40587  0.60389  1.0000
  O   O4        1.0  0.85875  0.59413  0.39612  1.0000
  O   O5        1.0  0.13430  0.65950  0.63753  1.0000
  O   O6        1.0  0.86569  0.34051  0.36248  1.0000
  O   O7        1.0  0.08957  0.61611  0.40213  1.0000
  O   O8        1.0  0.91043  0.38390  0.59785  1.0000
  O   O9        1.0  0.95868  0.41989  0.13205  1.0000
  O   O10       1.0  0.04131  0.58011  0.86794  1.0000
  O   O11       1.0  0.03890  0.08820  0.79215  1.0000
  O   O12       1.0  0.96110  0.91181  0.20785  1.0000
  O   O13       1.0  0.59423  0.83164  0.38356  1.0000
  O   O14       1.0  0.40578  0.16836  0.61644  1.0000
  O   O15       1.0  0.36406  0.84109  0.38285  1.0000
  O   O16       1.0  0.63595  0.15892  0.61716  1.0000
  O   O17       1.0  0.45022  0.40809  0.18108  1.0000
  O   O18       1.0  0.54977  0.59191  0.81892  1.0000
  O   O19       1.0  0.59164  0.07739  0.38071  1.0000
  O   O20       1.0  0.40836  0.92261  0.61929  1.0000
  O   O21       1.0  0.36094  0.08399  0.38015  1.0000
  O   O22       1.0  0.63906  0.91601  0.61986  1.0000
  O   O23       1.0  0.48582  0.89994  0.12631  1.0000
  O   O24       1.0  0.51417  0.10006  0.87370  1.0000
