data_image0
_chemical_formula_structural       Zn4H48C40N20O24
_chemical_formula_sum              "Zn4 H48 C40 N20 O24"
_cell_length_a       7.17929
_cell_length_b       7.58435
_cell_length_c       26.381
_cell_angle_alpha    90
_cell_angle_beta     90
_cell_angle_gamma    110.33

_space_group_name_H-M_alt    "P 1"
_space_group_IT_number       1

loop_
  _space_group_symop_operation_xyz
  'x, y, z'

loop_
  _atom_site_type_symbol
  _atom_site_label
  _atom_site_symmetry_multiplicity
  _atom_site_fract_x
  _atom_site_fract_y
  _atom_site_fract_z
  _atom_site_occupancy
  Zn  Zn1       1.0  0.00982  0.71502  0.84577  1.0000
  Zn  Zn2       1.0  0.99018  0.78499  0.34577  1.0000
  Zn  Zn3       1.0  0.99018  0.28498  0.15423  1.0000
  Zn  Zn4       1.0  0.00982  0.21501  0.65423  1.0000
  H   H1        1.0  0.42465  0.05925  0.85266  1.0000
  H   H2        1.0  0.57536  0.44075  0.35265  1.0000
  H   H3        1.0  0.57535  0.94075  0.14734  1.0000
  H   H4        1.0  0.42464  0.55925  0.64735  1.0000
  H   H5        1.0  0.65829  0.28034  0.78855  1.0000
  H   H6        1.0  0.34172  0.21966  0.28855  1.0000
  H   H7        1.0  0.34171  0.71966  0.21145  1.0000
  H   H8        1.0  0.65828  0.78034  0.71145  1.0000
  H   H9        1.0  0.06668  0.13957  0.89068  1.0000
  H   H10       1.0  0.93332  0.36044  0.39068  1.0000
  H   H11       1.0  0.93332  0.86044  0.10932  1.0000
  H   H12       1.0  0.06669  0.63957  0.60932  1.0000
  H   H13       1.0  0.20941  0.70636  0.96125  1.0000
  H   H14       1.0  0.79059  0.79364  0.46125  1.0000
  H   H15       1.0  0.79059  0.29364  0.03875  1.0000
  H   H16       1.0  0.20941  0.20636  0.53875  1.0000
  H   H17       1.0  0.16468  0.30221  0.01773  1.0000
  H   H18       1.0  0.83532  0.19779  0.51773  1.0000
  H   H19       1.0  0.83532  0.69779  0.98227  1.0000
  H   H20       1.0  0.16468  0.80221  0.48227  1.0000
  H   H21       1.0  0.20428  0.38889  0.95404  1.0000
  H   H22       1.0  0.79572  0.11112  0.45403  1.0000
  H   H23       1.0  0.79572  0.61111  0.04596  1.0000
  H   H24       1.0  0.20429  0.88889  0.54597  1.0000
  H   H25       1.0  0.55560  0.37758  0.96037  1.0000
  H   H26       1.0  0.44440  0.12242  0.46037  1.0000
  H   H27       1.0  0.44440  0.62242  0.03963  1.0000
  H   H28       1.0  0.55560  0.87758  0.53963  1.0000
  H   H29       1.0  0.50829  0.32097  0.02573  1.0000
  H   H30       1.0  0.49171  0.17903  0.52573  1.0000
  H   H31       1.0  0.49171  0.67903  0.97427  1.0000
  H   H32       1.0  0.50829  0.82097  0.47427  1.0000
  H   H33       1.0  0.67874  0.76936  0.81443  1.0000
  H   H34       1.0  0.32125  0.73064  0.31443  1.0000
  H   H35       1.0  0.32126  0.23064  0.18557  1.0000
  H   H36       1.0  0.67875  0.26936  0.68557  1.0000
  H   H37       1.0  0.83821  0.97158  0.82798  1.0000
  H   H38       1.0  0.16178  0.52842  0.32798  1.0000
  H   H39       1.0  0.16179  0.02842  0.17202  1.0000
  H   H40       1.0  0.83822  0.47158  0.67202  1.0000
  H   H41       1.0  0.84134  0.36181  0.85905  1.0000
  H   H42       1.0  0.15865  0.13819  0.35904  1.0000
  H   H43       1.0  0.15866  0.63819  0.14095  1.0000
  H   H44       1.0  0.84135  0.86181  0.64096  1.0000
  H   H45       1.0  0.65934  0.43753  0.86830  1.0000
  H   H46       1.0  0.34066  0.06247  0.36830  1.0000
  H   H47       1.0  0.34066  0.56247  0.13170  1.0000
  H   H48       1.0  0.65934  0.93753  0.63170  1.0000
  C   C1        1.0  0.39766  0.04468  0.81203  1.0000
  C   C2        1.0  0.60235  0.45532  0.31203  1.0000
  C   C3        1.0  0.60234  0.95532  0.18796  1.0000
  C   C4        1.0  0.39765  0.54468  0.68797  1.0000
  C   C5        1.0  0.31207  0.98752  0.65387  1.0000
  C   C6        1.0  0.68793  0.51249  0.15387  1.0000
  C   C7        1.0  0.68793  0.01248  0.34613  1.0000
  C   C8        1.0  0.31207  0.48751  0.84613  1.0000
  C   C9        1.0  0.32898  0.00288  0.71109  1.0000
  C   C10       1.0  0.67102  0.49713  0.21109  1.0000
  C   C11       1.0  0.67102  0.99712  0.28891  1.0000
  C   C12       1.0  0.32897  0.50287  0.78891  1.0000
  C   C13       1.0  0.01254  0.71997  0.73190  1.0000
  C   C14       1.0  0.98747  0.78004  0.23191  1.0000
  C   C15       1.0  0.98746  0.28003  0.26810  1.0000
  C   C16       1.0  0.01253  0.21996  0.76809  1.0000
  C   C17       1.0  0.19631  0.88433  0.74619  1.0000
  C   C18       1.0  0.80369  0.61568  0.24618  1.0000
  C   C19       1.0  0.80369  0.11567  0.25381  1.0000
  C   C20       1.0  0.19631  0.38433  0.75381  1.0000
  C   C21       1.0  0.52650  0.16421  0.77702  1.0000
  C   C22       1.0  0.47351  0.33580  0.27702  1.0000
  C   C23       1.0  0.47350  0.83579  0.22298  1.0000
  C   C24       1.0  0.52649  0.66420  0.72298  1.0000
  C   C25       1.0  0.11547  0.05619  0.91746  1.0000
  C   C26       1.0  0.88453  0.44381  0.41746  1.0000
  C   C27       1.0  0.88453  0.94381  0.08254  1.0000
  C   C28       1.0  0.11548  0.55619  0.58254  1.0000
  C   C29       1.0  0.19157  0.84032  0.95440  1.0000
  C   C30       1.0  0.80844  0.65969  0.45440  1.0000
  C   C31       1.0  0.80843  0.15968  0.04560  1.0000
  C   C32       1.0  0.19157  0.34032  0.54560  1.0000
  C   C33       1.0  0.25045  0.30814  0.98294  1.0000
  C   C34       1.0  0.74955  0.19186  0.48294  1.0000
  C   C35       1.0  0.74955  0.69186  0.01706  1.0000
  C   C36       1.0  0.25045  0.80814  0.51706  1.0000
  C   C37       1.0  0.47211  0.39592  0.99371  1.0000
  C   C38       1.0  0.52789  0.10408  0.49371  1.0000
  C   C39       1.0  0.52789  0.60408  0.00629  1.0000
  C   C40       1.0  0.47211  0.89592  0.50629  1.0000
  N   N1        1.0  0.23433  0.90765  0.79617  1.0000
  N   N2        1.0  0.76567  0.59235  0.29617  1.0000
  N   N3        1.0  0.76567  0.09234  0.20383  1.0000
  N   N4        1.0  0.23433  0.40765  0.70383  1.0000
  N   N5        1.0  0.49262  0.14177  0.72730  1.0000
  N   N6        1.0  0.50738  0.35823  0.22730  1.0000
  N   N7        1.0  0.50737  0.85823  0.27270  1.0000
  N   N8        1.0  0.49262  0.64177  0.77270  1.0000
  N   N9        1.0  0.10880  0.87892  0.91095  1.0000
  N   N10       1.0  0.89120  0.62109  0.41095  1.0000
  N   N11       1.0  0.89120  0.12108  0.08905  1.0000
  N   N12       1.0  0.10881  0.37892  0.58905  1.0000
  N   N13       1.0  0.19867  0.11860  0.96248  1.0000
  N   N14       1.0  0.80133  0.38140  0.46248  1.0000
  N   N15       1.0  0.80133  0.88140  0.03752  1.0000
  N   N16       1.0  0.19868  0.61860  0.53752  1.0000
  N   N17       1.0  0.24748  0.98237  0.98697  1.0000
  N   N18       1.0  0.75252  0.51764  0.48697  1.0000
  N   N19       1.0  0.75252  0.01763  0.01303  1.0000
  N   N20       1.0  0.24748  0.48237  0.51303  1.0000
  O   O1        1.0  0.92605  0.60894  0.76742  1.0000
  O   O2        1.0  0.07395  0.89106  0.26741  1.0000
  O   O3        1.0  0.07395  0.39105  0.23258  1.0000
  O   O4        1.0  0.92605  0.10894  0.73258  1.0000
  O   O5        1.0  0.41566  0.90379  0.63283  1.0000
  O   O6        1.0  0.58434  0.59621  0.13283  1.0000
  O   O7        1.0  0.58434  0.09621  0.36717  1.0000
  O   O8        1.0  0.41566  0.40379  0.86717  1.0000
  O   O9        1.0  0.96163  0.70174  0.68548  1.0000
  O   O10       1.0  0.03837  0.79827  0.18547  1.0000
  O   O11       1.0  0.03837  0.29826  0.31452  1.0000
  O   O12       1.0  0.96163  0.20173  0.81453  1.0000
  O   O13       1.0  0.20654  0.06645  0.63131  1.0000
  O   O14       1.0  0.79346  0.43355  0.13130  1.0000
  O   O15       1.0  0.79346  0.93355  0.36869  1.0000
  O   O16       1.0  0.20653  0.56644  0.86870  1.0000
  O   O17       1.0  0.78581  0.83725  0.83919  1.0000
  O   O18       1.0  0.21419  0.66275  0.33919  1.0000
  O   O19       1.0  0.21419  0.16276  0.16081  1.0000
  O   O20       1.0  0.78581  0.33725  0.66081  1.0000
  O   O21       1.0  0.80368  0.46229  0.87444  1.0000
  O   O22       1.0  0.19632  0.03771  0.37444  1.0000
  O   O23       1.0  0.19632  0.53771  0.12556  1.0000
  O   O24       1.0  0.80368  0.96229  0.62556  1.0000
