data_image0
_chemical_formula_structural       Ag4H28C14S4N8
_chemical_formula_sum              "Ag4 H28 C14 S4 N8"
_cell_length_a       5.92664
_cell_length_b       6.77266
_cell_length_c       15.7366
_cell_angle_alpha    84.4536
_cell_angle_beta     83.3254
_cell_angle_gamma    78.2411

_space_group_name_H-M_alt    "P 1"
_space_group_IT_number       1

loop_
  _space_group_symop_operation_xyz
  'x, y, z'

loop_
  _atom_site_type_symbol
  _atom_site_label
  _atom_site_symmetry_multiplicity
  _atom_site_fract_x
  _atom_site_fract_y
  _atom_site_fract_z
  _atom_site_occupancy
  Ag  Ag1       1.0  0.34964  0.23151  0.97649  1.0000
  Ag  Ag2       1.0  0.65034  0.76851  0.02351  1.0000
  Ag  Ag3       1.0  0.56302  0.72807  0.54889  1.0000
  Ag  Ag4       1.0  0.43704  0.27193  0.45113  1.0000
  H   H1        1.0  0.76105  0.34251  0.94169  1.0000
  H   H2        1.0  0.23893  0.65752  0.05831  1.0000
  H   H3        1.0  0.57504  0.50978  0.88985  1.0000
  H   H4        1.0  0.42494  0.49023  0.11015  1.0000
  H   H5        1.0  0.28715  0.04719  0.61612  1.0000
  H   H6        1.0  0.71286  0.95281  0.38388  1.0000
  H   H7        1.0  0.40908  0.91558  0.69833  1.0000
  H   H8        1.0  0.59090  0.08442  0.30167  1.0000
  H   H9        1.0  0.59414  0.29338  0.77722  1.0000
  H   H10       1.0  0.40586  0.70662  0.22278  1.0000
  H   H11       1.0  0.77019  0.09855  0.83656  1.0000
  H   H12       1.0  0.22979  0.90146  0.16345  1.0000
  H   H13       1.0  0.00982  0.25098  0.72257  1.0000
  H   H14       1.0  0.99018  0.74901  0.27744  1.0000
  H   H15       1.0  0.08340  0.29618  0.82325  1.0000
  H   H16       1.0  0.91658  0.70382  0.17675  1.0000
  H   H17       1.0  0.85439  0.65115  0.80817  1.0000
  H   H18       1.0  0.14561  0.34885  0.19182  1.0000
  H   H19       1.0  0.76729  0.60114  0.70962  1.0000
  H   H20       1.0  0.23272  0.39885  0.29038  1.0000
  H   H21       1.0  0.18038  0.53614  0.64674  1.0000
  H   H22       1.0  0.81964  0.46384  0.35326  1.0000
  H   H23       1.0  0.27136  0.57394  0.74621  1.0000
  H   H24       1.0  0.72864  0.42606  0.25380  1.0000
  H   H25       1.0  0.98063  0.88750  0.62916  1.0000
  H   H26       1.0  0.01938  0.11248  0.37083  1.0000
  H   H27       1.0  0.01831  0.92852  0.73584  1.0000
  H   H28       1.0  0.98168  0.07148  0.26415  1.0000
  C   C1        1.0  0.14443  0.82931  0.92013  1.0000
  C   C2        1.0  0.85556  0.17069  0.07987  1.0000
  C   C3        1.0  0.09403  0.72524  0.45272  1.0000
  C   C4        1.0  0.90602  0.27475  0.54728  1.0000
  C   C5        1.0  0.72966  0.26290  0.82147  1.0000
  C   C6        1.0  0.27032  0.73711  0.17853  1.0000
  C   C7        1.0  0.94557  0.33620  0.77944  1.0000
  C   C8        1.0  0.05442  0.66380  0.22056  1.0000
  C   C9        1.0  0.90879  0.56162  0.75185  1.0000
  C   C10       1.0  0.09121  0.43837  0.24815  1.0000
  C   C11       1.0  0.12858  0.61961  0.70483  1.0000
  C   C12       1.0  0.87143  0.38038  0.29517  1.0000
  C   C13       1.0  0.09831  0.84482  0.67973  1.0000
  C   C14       1.0  0.90169  0.15517  0.32026  1.0000
  S   S1        1.0  0.38464  0.88830  0.87348  1.0000
  S   S2        1.0  0.61534  0.11170  0.12652  1.0000
  S   S3        1.0  0.36323  0.67913  0.41052  1.0000
  S   S4        1.0  0.63678  0.32088  0.58948  1.0000
  N   N1        1.0  0.97449  0.78299  0.95664  1.0000
  N   N2        1.0  0.02548  0.21701  0.04336  1.0000
  N   N3        1.0  0.89813  0.75931  0.48188  1.0000
  N   N4        1.0  0.10192  0.24068  0.51812  1.0000
  N   N5        1.0  0.63108  0.35695  0.90234  1.0000
  N   N6        1.0  0.36889  0.64307  0.09766  1.0000
  N   N7        1.0  0.32022  0.90591  0.64738  1.0000
  N   N8        1.0  0.67979  0.09408  0.35263  1.0000
