data_image0
_chemical_formula_structural       Ag6H44C22S6N14
_chemical_formula_sum              "Ag6 H44 C22 S6 N14"
_cell_length_a       8.72988
_cell_length_b       9.65298
_cell_length_c       12.2637
_cell_angle_alpha    71.8848
_cell_angle_beta     75.58
_cell_angle_gamma    82.3881

_space_group_name_H-M_alt    "P 1"
_space_group_IT_number       1

loop_
  _space_group_symop_operation_xyz
  'x, y, z'

loop_
  _atom_site_type_symbol
  _atom_site_label
  _atom_site_symmetry_multiplicity
  _atom_site_fract_x
  _atom_site_fract_y
  _atom_site_fract_z
  _atom_site_occupancy
  Ag  Ag1       1.0  0.07589  0.88321  0.95324  1.0000
  Ag  Ag2       1.0  0.92411  0.11679  0.04677  1.0000
  Ag  Ag3       1.0  0.21846  0.15068  0.45542  1.0000
  Ag  Ag4       1.0  0.78154  0.84933  0.54458  1.0000
  Ag  Ag5       1.0  0.29097  0.39675  0.57064  1.0000
  Ag  Ag6       1.0  0.70904  0.60326  0.42936  1.0000
  H   H1        1.0  0.09801  0.10137  0.28497  1.0000
  H   H2        1.0  0.90199  0.89863  0.71504  1.0000
  H   H3        1.0  0.94560  0.10542  0.39362  1.0000
  H   H4        1.0  0.05440  0.89458  0.60638  1.0000
  H   H5        1.0  0.12146  0.71696  0.17955  1.0000
  H   H6        1.0  0.87854  0.28304  0.82045  1.0000
  H   H7        1.0  0.31867  0.80196  0.78379  1.0000
  H   H8        1.0  0.68134  0.19804  0.21621  1.0000
  H   H9        1.0  0.40043  0.35988  0.76757  1.0000
  H   H10       1.0  0.59957  0.64012  0.23243  1.0000
  H   H11       1.0  0.54798  0.39938  0.65059  1.0000
  H   H12       1.0  0.45202  0.60062  0.34941  1.0000
  H   H13       1.0  0.88411  0.34545  0.32899  1.0000
  H   H14       1.0  0.11589  0.65455  0.67101  1.0000
  H   H15       1.0  0.94462  0.29138  0.19796  1.0000
  H   H16       1.0  0.05538  0.70862  0.80205  1.0000
  H   H17       1.0  0.22527  0.36312  0.18635  1.0000
  H   H18       1.0  0.77472  0.63687  0.81365  1.0000
  H   H19       1.0  0.13481  0.44670  0.29857  1.0000
  H   H20       1.0  0.86519  0.55330  0.70143  1.0000
  H   H21       1.0  0.07406  0.52171  0.05045  1.0000
  H   H22       1.0  0.92594  0.47829  0.94955  1.0000
  H   H23       1.0  0.93655  0.58008  0.16184  1.0000
  H   H24       1.0  0.06344  0.41992  0.83816  1.0000
  H   H25       1.0  0.37305  0.56053  0.11895  1.0000
  H   H26       1.0  0.62695  0.43946  0.88105  1.0000
  H   H27       1.0  0.37388  0.75202  0.08148  1.0000
  H   H28       1.0  0.62613  0.24797  0.91852  1.0000
  H   H29       1.0  0.50090  0.64690  0.91504  1.0000
  H   H30       1.0  0.49910  0.35310  0.08496  1.0000
  H   H31       1.0  0.31577  0.58615  0.92035  1.0000
  H   H32       1.0  0.68422  0.41385  0.07964  1.0000
  H   H33       1.0  0.56067  0.88481  0.78794  1.0000
  H   H34       1.0  0.43933  0.11519  0.21207  1.0000
  H   H35       1.0  0.46205  0.93151  0.91816  1.0000
  H   H36       1.0  0.53795  0.06849  0.08185  1.0000
  H   H37       1.0  0.28381  0.11252  0.81480  1.0000
  H   H38       1.0  0.71620  0.88749  0.18520  1.0000
  H   H39       1.0  0.35973  0.06233  0.68336  1.0000
  H   H40       1.0  0.64027  0.93767  0.31664  1.0000
  H   H41       1.0  0.57989  0.16207  0.79840  1.0000
  H   H42       1.0  0.42012  0.83793  0.20159  1.0000
  H   H43       1.0  0.61084  0.16154  0.65044  1.0000
  H   H44       1.0  0.38916  0.83847  0.34956  1.0000
  C   C1        1.0  0.98637  0.30449  0.27211  1.0000
  C   C2        1.0  0.01363  0.69551  0.72789  1.0000
  C   C3        1.0  0.11359  0.41494  0.22487  1.0000
  C   C4        1.0  0.88640  0.58506  0.77513  1.0000
  C   C5        1.0  0.06265  0.54944  0.13271  1.0000
  C   C6        1.0  0.93735  0.45056  0.86729  1.0000
  C   C7        1.0  0.32229  0.66319  0.06722  1.0000
  C   C8        1.0  0.67772  0.33681  0.93278  1.0000
  C   C9        1.0  0.37176  0.67047  0.93731  1.0000
  C   C10       1.0  0.62824  0.32953  0.06269  1.0000
  C   C11       1.0  0.44520  0.92298  0.83458  1.0000
  C   C12       1.0  0.55480  0.07702  0.16542  1.0000
  C   C13       1.0  0.39167  0.07189  0.76205  1.0000
  C   C14       1.0  0.60833  0.92811  0.23795  1.0000
  C   C15       1.0  0.52030  0.17994  0.72534  1.0000
  C   C16       1.0  0.47970  0.82006  0.27466  1.0000
  C   C17       1.0  0.59643  0.17129  0.42881  1.0000
  C   C18       1.0  0.40356  0.82872  0.57119  1.0000
  C   C19       1.0  0.91018  0.33323  0.58397  1.0000
  C   C20       1.0  0.08981  0.66677  0.41604  1.0000
  C   C21       1.0  0.74513  0.79207  0.99653  1.0000
  C   C22       1.0  0.25487  0.20793  0.00347  1.0000
  S   S1        1.0  0.46513  0.29756  0.37896  1.0000
  S   S2        1.0  0.53486  0.70245  0.62104  1.0000
  S   S3        1.0  0.04001  0.21770  0.64674  1.0000
  S   S4        1.0  0.95998  0.78229  0.35327  1.0000
  S   S5        1.0  0.81549  0.95008  0.91023  1.0000
  S   S6        1.0  0.18451  0.04992  0.08977  1.0000
  N   N1        1.0  0.04280  0.16094  0.34170  1.0000
  N   N2        1.0  0.95719  0.83906  0.65830  1.0000
  N   N3        1.0  0.14953  0.68088  0.10633  1.0000
  N   N4        1.0  0.85047  0.31912  0.89367  1.0000
  N   N5        1.0  0.32724  0.81461  0.86171  1.0000
  N   N6        1.0  0.67276  0.18540  0.13829  1.0000
  N   N7        1.0  0.45572  0.33294  0.69157  1.0000
  N   N8        1.0  0.54428  0.66706  0.30843  1.0000
  N   N9        1.0  0.69465  0.08119  0.46078  1.0000
  N   N10       1.0  0.30535  0.91880  0.53922  1.0000
  N   N11       1.0  0.81415  0.41668  0.54181  1.0000
  N   N12       1.0  0.18584  0.58332  0.45819  1.0000
  N   N13       1.0  0.69352  0.67945  0.05730  1.0000
  N   N14       1.0  0.30648  0.32054  0.94271  1.0000
