data_image0
_chemical_formula_structural       Zn2H20C28N4O10
_chemical_formula_sum              "Zn2 H20 C28 N4 O10"
_cell_length_a       6.09956
_cell_length_b       7.37868
_cell_length_c       14.5391
_cell_angle_alpha    93.467
_cell_angle_beta     91.0117
_cell_angle_gamma    92.4724

_space_group_name_H-M_alt    "P 1"
_space_group_IT_number       1

loop_
  _space_group_symop_operation_xyz
  'x, y, z'

loop_
  _atom_site_type_symbol
  _atom_site_label
  _atom_site_symmetry_multiplicity
  _atom_site_fract_x
  _atom_site_fract_y
  _atom_site_fract_z
  _atom_site_occupancy
  Zn  Zn1       1.0  0.30876  0.24790  0.99778  1.0000
  Zn  Zn2       1.0  0.69130  0.75216  0.00222  1.0000
  H   H1        1.0  0.90203  0.34016  0.96590  1.0000
  H   H2        1.0  0.88590  0.15064  0.01223  1.0000
  H   H3        1.0  0.09799  0.65991  0.03415  1.0000
  H   H4        1.0  0.11414  0.84943  0.98784  1.0000
  H   H5        1.0  0.00467  0.44214  0.17677  1.0000
  H   H6        1.0  0.02949  0.04921  0.82338  1.0000
  H   H7        1.0  0.99544  0.55781  0.82318  1.0000
  H   H8        1.0  0.97040  0.95080  0.17661  1.0000
  H   H9        1.0  0.86490  0.41035  0.33607  1.0000
  H   H10       1.0  0.88357  0.08594  0.66369  1.0000
  H   H11       1.0  0.13514  0.58956  0.66387  1.0000
  H   H12       1.0  0.11638  0.91402  0.33629  1.0000
  H   H13       1.0  0.48492  0.63026  0.44895  1.0000
  H   H14       1.0  0.47698  0.87489  0.55178  1.0000
  H   H15       1.0  0.51502  0.36972  0.55105  1.0000
  H   H16       1.0  0.52300  0.12508  0.44824  1.0000
  H   H17       1.0  0.61811  0.67465  0.28984  1.0000
  H   H18       1.0  0.61585  0.82623  0.71098  1.0000
  H   H19       1.0  0.38192  0.32535  0.71019  1.0000
  H   H20       1.0  0.38410  0.17379  0.28905  1.0000
  C   C1        1.0  0.40004  0.58567  0.12906  1.0000
  C   C2        1.0  0.41110  0.90544  0.87154  1.0000
  C   C3        1.0  0.60009  0.41435  0.87094  1.0000
  C   C4        1.0  0.58882  0.09463  0.12847  1.0000
  C   C5        1.0  0.31888  0.56255  0.22384  1.0000
  C   C6        1.0  0.32949  0.93231  0.77644  1.0000
  C   C7        1.0  0.68121  0.43746  0.77614  1.0000
  C   C8        1.0  0.67045  0.06770  0.22359  1.0000
  C   C9        1.0  0.10681  0.48663  0.23685  1.0000
  C   C10       1.0  0.12346  0.00709  0.76329  1.0000
  C   C11       1.0  0.89328  0.51331  0.76311  1.0000
  C   C12       1.0  0.87646  0.99290  0.23671  1.0000
  C   C13       1.0  0.02858  0.46875  0.32498  1.0000
  C   C14       1.0  0.04241  0.02811  0.67504  1.0000
  C   C15       1.0  0.97146  0.53117  0.67497  1.0000
  C   C16       1.0  0.95751  0.97185  0.32496  1.0000
  C   C17       1.0  0.16486  0.52370  0.40179  1.0000
  C   C18       1.0  0.16926  0.97662  0.59849  1.0000
  C   C19       1.0  0.83513  0.47621  0.59817  1.0000
  C   C20       1.0  0.83070  0.02335  0.40152  1.0000
  C   C21       1.0  0.37935  0.59375  0.38895  1.0000
  C   C22       1.0  0.37845  0.90848  0.61161  1.0000
  C   C23       1.0  0.62063  0.40621  0.61104  1.0000
  C   C24       1.0  0.62152  0.09150  0.38840  1.0000
  C   C25       1.0  0.45414  0.61659  0.30054  1.0000
  C   C26       1.0  0.45632  0.88308  0.70007  1.0000
  C   C27       1.0  0.54591  0.38340  0.69946  1.0000
  C   C28       1.0  0.54363  0.11693  0.29994  1.0000
  N   N1        1.0  0.10259  0.50878  0.49428  1.0000
  N   N2        1.0  0.10245  0.99334  0.50603  1.0000
  N   N3        1.0  0.89737  0.49113  0.50569  1.0000
  N   N4        1.0  0.89753  0.00664  0.49397  1.0000
  O   O1        1.0  0.28402  0.52112  0.05916  1.0000
  O   O2        1.0  0.30161  0.96385  0.94051  1.0000
  O   O3        1.0  0.71613  0.47899  0.94081  1.0000
  O   O4        1.0  0.69829  0.03625  0.05949  1.0000
  O   O5        1.0  0.58186  0.67513  0.12172  1.0000
  O   O6        1.0  0.58763  0.81988  0.87997  1.0000
  O   O7        1.0  0.41828  0.32490  0.87830  1.0000
  O   O8        1.0  0.41226  0.18016  0.12007  1.0000
  O   O9        1.0  0.98609  0.22978  0.97641  1.0000
  O   O10       1.0  0.01395  0.77030  0.02367  1.0000
