data_image0
_chemical_formula_structural       Ag4H20C10S4N8
_chemical_formula_sum              "Ag4 H20 C10 S4 N8"
_cell_length_a       5.94793
_cell_length_b       6.23385
_cell_length_c       14.1116
_cell_angle_alpha    90.0057
_cell_angle_beta     92.9433
_cell_angle_gamma    90.0054

_space_group_name_H-M_alt    "P 1"
_space_group_IT_number       1

loop_
  _space_group_symop_operation_xyz
  'x, y, z'

loop_
  _atom_site_type_symbol
  _atom_site_label
  _atom_site_symmetry_multiplicity
  _atom_site_fract_x
  _atom_site_fract_y
  _atom_site_fract_z
  _atom_site_occupancy
  Ag  Ag1       1.0  0.39358  0.21527  0.04265  1.0000
  Ag  Ag2       1.0  0.39360  0.78475  0.54266  1.0000
  Ag  Ag3       1.0  0.60641  0.78486  0.95735  1.0000
  Ag  Ag4       1.0  0.60639  0.21513  0.45734  1.0000
  H   H1        1.0  0.60045  0.46341  0.17852  1.0000
  H   H2        1.0  0.60039  0.53660  0.67848  1.0000
  H   H3        1.0  0.39958  0.53665  0.82149  1.0000
  H   H4        1.0  0.39962  0.46334  0.32154  1.0000
  H   H5        1.0  0.76554  0.43977  0.09163  1.0000
  H   H6        1.0  0.76551  0.56026  0.59160  1.0000
  H   H7        1.0  0.23448  0.56029  0.90837  1.0000
  H   H8        1.0  0.23449  0.43968  0.40841  1.0000
  H   H9        1.0  0.72087  0.11369  0.24155  1.0000
  H   H10       1.0  0.72091  0.88630  0.74157  1.0000
  H   H11       1.0  0.27911  0.88633  0.75844  1.0000
  H   H12       1.0  0.27907  0.11367  0.25843  1.0000
  H   H13       1.0  0.89847  0.09511  0.14540  1.0000
  H   H14       1.0  0.89853  0.90490  0.64543  1.0000
  H   H15       1.0  0.10151  0.90492  0.85459  1.0000
  H   H16       1.0  0.10143  0.09507  0.35457  1.0000
  H   H17       1.0  0.08556  0.44464  0.20056  1.0000
  H   H18       1.0  0.08550  0.55535  0.70054  1.0000
  H   H19       1.0  0.91447  0.55536  0.79945  1.0000
  H   H20       1.0  0.91452  0.44464  0.29946  1.0000
  C   C1        1.0  0.10542  0.77179  0.06826  1.0000
  C   C2        1.0  0.10540  0.22822  0.56827  1.0000
  C   C3        1.0  0.89458  0.22825  0.93173  1.0000
  C   C4        1.0  0.89460  0.77174  0.43173  1.0000
  C   C5        1.0  0.82203  0.20861  0.19374  1.0000
  C   C6        1.0  0.82205  0.79139  0.69375  1.0000
  C   C7        1.0  0.17796  0.79142  0.80626  1.0000
  C   C8        1.0  0.17794  0.20858  0.30625  1.0000
  C   C9        1.0  0.00001  0.33877  0.25000  1.0000
  C   C10       1.0  1.00000  0.66123  0.75000  1.0000
  S   S1        1.0  0.35259  0.81294  0.12098  1.0000
  S   S2        1.0  0.35256  0.18708  0.62099  1.0000
  S   S3        1.0  0.64741  0.18712  0.87901  1.0000
  S   S4        1.0  0.64744  0.81287  0.37901  1.0000
  N   N1        1.0  0.92679  0.74055  0.02993  1.0000
  N   N2        1.0  0.92679  0.25946  0.52994  1.0000
  N   N3        1.0  0.07321  0.25951  0.97006  1.0000
  N   N4        1.0  0.07321  0.74049  0.47007  1.0000
  N   N5        1.0  0.67046  0.35096  0.13606  1.0000
  N   N6        1.0  0.67046  0.64906  0.63605  1.0000
  N   N7        1.0  0.32955  0.64909  0.86394  1.0000
  N   N8        1.0  0.32954  0.35088  0.36396  1.0000
