data_image0
_chemical_formula_structural       Hg4H48C24N16
_chemical_formula_sum              "Hg4 H48 C24 N16"
_cell_length_a       8.86059
_cell_length_b       10.0506
_cell_length_c       10.8182
_cell_angle_alpha    90
_cell_angle_beta     90
_cell_angle_gamma    90.0001

_space_group_name_H-M_alt    "P 1"
_space_group_IT_number       1

loop_
  _space_group_symop_operation_xyz
  'x, y, z'

loop_
  _atom_site_type_symbol
  _atom_site_label
  _atom_site_symmetry_multiplicity
  _atom_site_fract_x
  _atom_site_fract_y
  _atom_site_fract_z
  _atom_site_occupancy
  Hg  Hg1       1.0  0.06758  0.20496  0.60184  1.0000
  Hg  Hg2       1.0  0.56758  0.79504  0.39816  1.0000
  Hg  Hg3       1.0  0.06758  0.70496  0.89816  1.0000
  Hg  Hg4       1.0  0.56758  0.29505  0.10184  1.0000
  H   H1        1.0  0.96253  0.11553  0.85531  1.0000
  H   H2        1.0  0.46253  0.88447  0.14469  1.0000
  H   H3        1.0  0.96253  0.61554  0.64469  1.0000
  H   H4        1.0  0.46253  0.38446  0.35531  1.0000
  H   H5        1.0  0.06176  0.25378  0.86684  1.0000
  H   H6        1.0  0.56176  0.74622  0.13317  1.0000
  H   H7        1.0  0.06176  0.75378  0.63316  1.0000
  H   H8        1.0  0.56176  0.24622  0.36684  1.0000
  H   H9        1.0  0.32848  0.38595  0.61079  1.0000
  H   H10       1.0  0.82849  0.61405  0.38921  1.0000
  H   H11       1.0  0.32848  0.88595  0.88921  1.0000
  H   H12       1.0  0.82848  0.11405  0.11080  1.0000
  H   H13       1.0  0.27186  0.35926  0.75445  1.0000
  H   H14       1.0  0.77186  0.64074  0.24555  1.0000
  H   H15       1.0  0.27186  0.85926  0.74555  1.0000
  H   H16       1.0  0.77186  0.14074  0.25445  1.0000
  H   H17       1.0  0.85447  0.38160  0.78141  1.0000
  H   H18       1.0  0.35447  0.61840  0.21859  1.0000
  H   H19       1.0  0.85447  0.88160  0.71859  1.0000
  H   H20       1.0  0.35447  0.11840  0.28141  1.0000
  H   H21       1.0  0.80923  0.30595  0.92388  1.0000
  H   H22       1.0  0.30923  0.69405  0.07612  1.0000
  H   H23       1.0  0.80924  0.80595  0.57612  1.0000
  H   H24       1.0  0.30923  0.19405  0.42388  1.0000
  H   H25       1.0  0.74257  0.17220  0.67487  1.0000
  H   H26       1.0  0.24257  0.82780  0.32513  1.0000
  H   H27       1.0  0.74257  0.67220  0.82513  1.0000
  H   H28       1.0  0.24257  0.32780  0.17487  1.0000
  H   H29       1.0  0.67446  0.12506  0.82202  1.0000
  H   H30       1.0  0.17447  0.87494  0.17798  1.0000
  H   H31       1.0  0.67446  0.62506  0.67798  1.0000
  H   H32       1.0  0.17446  0.37494  0.32202  1.0000
  H   H33       1.0  0.59926  0.38129  0.67929  1.0000
  H   H34       1.0  0.09926  0.61872  0.32071  1.0000
  H   H35       1.0  0.59926  0.88129  0.82071  1.0000
  H   H36       1.0  0.09926  0.11871  0.17929  1.0000
  H   H37       1.0  0.53813  0.35185  0.83232  1.0000
  H   H38       1.0  0.03813  0.64815  0.16768  1.0000
  H   H39       1.0  0.53813  0.85185  0.66768  1.0000
  H   H40       1.0  0.03813  0.14815  0.33232  1.0000
  H   H41       1.0  0.46118  0.17404  0.61041  1.0000
  H   H42       1.0  0.96117  0.82596  0.38959  1.0000
  H   H43       1.0  0.46118  0.67404  0.88959  1.0000
  H   H44       1.0  0.96117  0.32596  0.11041  1.0000
  H   H45       1.0  0.39862  0.14925  0.76377  1.0000
  H   H46       1.0  0.89862  0.85076  0.23623  1.0000
  H   H47       1.0  0.39862  0.64924  0.73623  1.0000
  H   H48       1.0  0.89862  0.35075  0.26377  1.0000
  C   C1        1.0  0.14487  0.01150  0.57305  1.0000
  C   C2        1.0  0.64487  0.98850  0.42694  1.0000
  C   C3        1.0  0.14488  0.51150  0.92695  1.0000
  C   C4        1.0  0.64487  0.48850  0.07306  1.0000
  C   C5        1.0  0.94889  0.37220  0.53948  1.0000
  C   C6        1.0  0.44889  0.62781  0.46052  1.0000
  C   C7        1.0  0.94888  0.87219  0.96052  1.0000
  C   C8        1.0  0.44889  0.12781  0.03948  1.0000
  C   C9        1.0  0.83676  0.28465  0.82639  1.0000
  C   C10       1.0  0.33676  0.71535  0.17361  1.0000
  C   C11       1.0  0.83676  0.78465  0.67361  1.0000
  C   C12       1.0  0.33676  0.21534  0.32639  1.0000
  C   C13       1.0  0.70589  0.21173  0.76509  1.0000
  C   C14       1.0  0.20589  0.78827  0.23491  1.0000
  C   C15       1.0  0.70589  0.71173  0.73491  1.0000
  C   C16       1.0  0.20589  0.28827  0.26509  1.0000
  C   C17       1.0  0.56932  0.30187  0.74517  1.0000
  C   C18       1.0  0.06932  0.69814  0.25483  1.0000
  C   C19       1.0  0.56932  0.80186  0.75482  1.0000
  C   C20       1.0  0.06932  0.19813  0.24517  1.0000
  C   C21       1.0  0.43223  0.22609  0.69666  1.0000
  C   C22       1.0  0.93223  0.77391  0.30334  1.0000
  C   C23       1.0  0.43223  0.72609  0.80334  1.0000
  C   C24       1.0  0.93223  0.27391  0.19666  1.0000
  N   N1        1.0  0.19405  0.90382  0.56355  1.0000
  N   N2        1.0  0.69405  0.09618  0.43645  1.0000
  N   N3        1.0  0.19405  0.40382  0.93645  1.0000
  N   N4        1.0  0.69405  0.59618  0.06355  1.0000
  N   N5        1.0  0.88703  0.47028  0.51068  1.0000
  N   N6        1.0  0.38703  0.52972  0.48932  1.0000
  N   N7        1.0  0.88703  0.97027  0.98932  1.0000
  N   N8        1.0  0.38703  0.02973  0.01068  1.0000
  N   N9        1.0  0.97796  0.20779  0.81690  1.0000
  N   N10       1.0  0.47797  0.79221  0.18310  1.0000
  N   N11       1.0  0.97796  0.70778  0.68310  1.0000
  N   N12       1.0  0.47796  0.29222  0.31690  1.0000
  N   N13       1.0  0.30110  0.31273  0.67352  1.0000
  N   N14       1.0  0.80111  0.68727  0.32648  1.0000
  N   N15       1.0  0.30111  0.81273  0.82648  1.0000
  N   N16       1.0  0.80110  0.18727  0.17352  1.0000
