data_image0
_chemical_formula_structural       Ni4H48C56N8O28
_chemical_formula_sum              "Ni4 H48 C56 N8 O28"
_cell_length_a       7.97917
_cell_length_b       10.8485
_cell_length_c       16.6595
_cell_angle_alpha    90
_cell_angle_beta     92.5753
_cell_angle_gamma    90

_space_group_name_H-M_alt    "P 1"
_space_group_IT_number       1

loop_
  _space_group_symop_operation_xyz
  'x, y, z'

loop_
  _atom_site_type_symbol
  _atom_site_label
  _atom_site_symmetry_multiplicity
  _atom_site_fract_x
  _atom_site_fract_y
  _atom_site_fract_z
  _atom_site_occupancy
  Ni  Ni1       1.0  0.44965  0.41463  0.35001  1.0000
  Ni  Ni2       1.0  0.56342  0.91419  0.14759  1.0000
  Ni  Ni3       1.0  0.55035  0.58537  0.64998  1.0000
  Ni  Ni4       1.0  0.43657  0.08581  0.85241  1.0000
  H   H1        1.0  0.75074  0.06719  0.39094  1.0000
  H   H2        1.0  0.25607  0.56994  0.10649  1.0000
  H   H3        1.0  0.24928  0.93280  0.60906  1.0000
  H   H4        1.0  0.74391  0.43007  0.89350  1.0000
  H   H5        1.0  0.82092  0.86553  0.61295  1.0000
  H   H6        1.0  0.17561  0.36386  0.88676  1.0000
  H   H7        1.0  0.17909  0.13447  0.38706  1.0000
  H   H8        1.0  0.82438  0.63614  0.11324  1.0000
  H   H9        1.0  0.50943  0.18833  0.60363  1.0000
  H   H10       1.0  0.49494  0.68273  0.89128  1.0000
  H   H11       1.0  0.49059  0.81167  0.39637  1.0000
  H   H12       1.0  0.50506  0.31727  0.10871  1.0000
  H   H13       1.0  0.11255  0.79812  0.25702  1.0000
  H   H14       1.0  0.88853  0.29806  0.24288  1.0000
  H   H15       1.0  0.88746  0.20187  0.74299  1.0000
  H   H16       1.0  0.11145  0.70196  0.75712  1.0000
  H   H17       1.0  0.32904  0.63430  0.24449  1.0000
  H   H18       1.0  0.67519  0.13250  0.25618  1.0000
  H   H19       1.0  0.67095  0.36568  0.75551  1.0000
  H   H20       1.0  0.32479  0.86752  0.74382  1.0000
  H   H21       1.0  0.22064  0.48486  0.46577  1.0000
  H   H22       1.0  0.77913  0.98632  0.03319  1.0000
  H   H23       1.0  0.77939  0.51514  0.53424  1.0000
  H   H24       1.0  0.22086  0.01368  0.96682  1.0000
  H   H25       1.0  0.99998  0.63778  0.48693  1.0000
  H   H26       1.0  0.99741  0.14088  0.01145  1.0000
  H   H27       1.0  0.00006  0.36223  0.51309  1.0000
  H   H28       1.0  0.00257  0.85912  0.98855  1.0000
  H   H29       1.0  0.94245  0.80302  0.50386  1.0000
  H   H30       1.0  0.05788  0.30488  0.99526  1.0000
  H   H31       1.0  0.05757  0.19698  0.49615  1.0000
  H   H32       1.0  0.94211  0.69513  0.00474  1.0000
  H   H33       1.0  0.59945  0.59706  0.43263  1.0000
  H   H34       1.0  0.40345  0.09184  0.07230  1.0000
  H   H35       1.0  0.40054  0.40292  0.56736  1.0000
  H   H36       1.0  0.59654  0.90816  0.92770  1.0000
  H   H37       1.0  0.67079  0.57243  0.34385  1.0000
  H   H38       1.0  0.33622  0.05890  0.16137  1.0000
  H   H39       1.0  0.32922  0.42755  0.65614  1.0000
  H   H40       1.0  0.66377  0.94109  0.83863  1.0000
  H   H41       1.0  0.27571  0.22069  0.29074  1.0000
  H   H42       1.0  0.72815  0.72598  0.20699  1.0000
  H   H43       1.0  0.72431  0.77932  0.70926  1.0000
  H   H44       1.0  0.27183  0.27402  0.79301  1.0000
  H   H45       1.0  0.19335  0.34671  0.26159  1.0000
  H   H46       1.0  0.81263  0.85053  0.23677  1.0000
  H   H47       1.0  0.80665  0.65330  0.73840  1.0000
  H   H48       1.0  0.18736  0.14947  0.76322  1.0000
  C   C1        1.0  0.55536  0.24701  0.44591  1.0000
  C   C2        1.0  0.45921  0.74669  0.04605  1.0000
  C   C3        1.0  0.44465  0.75298  0.55409  1.0000
  C   C4        1.0  0.54078  0.25332  0.95394  1.0000
  C   C5        1.0  0.62778  0.14156  0.49335  1.0000
  C   C6        1.0  0.37819  0.64019  0.00232  1.0000
  C   C7        1.0  0.37223  0.85843  0.50665  1.0000
  C   C8        1.0  0.62179  0.35981  0.99768  1.0000
  C   C9        1.0  0.72806  0.05624  0.45424  1.0000
  C   C10       1.0  0.27686  0.55742  0.04307  1.0000
  C   C11       1.0  0.27196  0.94375  0.54577  1.0000
  C   C12       1.0  0.72314  0.44258  0.95693  1.0000
  C   C13       1.0  0.79409  0.95553  0.49722  1.0000
  C   C14       1.0  0.20704  0.45655  0.00119  1.0000
  C   C15       1.0  0.20592  0.04447  0.50278  1.0000
  C   C16       1.0  0.79295  0.54344  0.99881  1.0000
  C   C17       1.0  0.76593  0.94282  0.57929  1.0000
  C   C18       1.0  0.23337  0.44132  0.91912  1.0000
  C   C19       1.0  0.23408  0.05719  0.42071  1.0000
  C   C20       1.0  0.76663  0.55867  0.08088  1.0000
  C   C21       1.0  0.66247  0.02575  0.61719  1.0000
  C   C22       1.0  0.33815  0.52148  0.87965  1.0000
  C   C23       1.0  0.33754  0.97425  0.38281  1.0000
  C   C24       1.0  0.66185  0.47851  0.12035  1.0000
  C   C25       1.0  0.59209  0.12504  0.57378  1.0000
  C   C26       1.0  0.41130  0.62096  0.92173  1.0000
  C   C27       1.0  0.40793  0.87495  0.42622  1.0000
  C   C28       1.0  0.58870  0.37904  0.07827  1.0000
  C   C29       1.0  0.92654  0.84240  0.38522  1.0000
  C   C30       1.0  0.07308  0.34475  0.11377  1.0000
  C   C31       1.0  0.07347  0.15760  0.61478  1.0000
  C   C32       1.0  0.92691  0.65524  0.88622  1.0000
  C   C33       1.0  0.03949  0.73427  0.37356  1.0000
  C   C34       1.0  0.96001  0.23630  0.12550  1.0000
  C   C35       1.0  0.96054  0.26573  0.62645  1.0000
  C   C36       1.0  0.03997  0.76371  0.87450  1.0000
  C   C37       1.0  0.13057  0.72885  0.30387  1.0000
  C   C38       1.0  0.87029  0.22943  0.19562  1.0000
  C   C39       1.0  0.86945  0.27115  0.69613  1.0000
  C   C40       1.0  0.12970  0.77058  0.80438  1.0000
  C   C41       1.0  0.25148  0.63768  0.29661  1.0000
  C   C42       1.0  0.75092  0.13712  0.20346  1.0000
  C   C43       1.0  0.74853  0.36232  0.70339  1.0000
  C   C44       1.0  0.24906  0.86289  0.79654  1.0000
  C   C45       1.0  0.19056  0.55459  0.42035  1.0000
  C   C46       1.0  0.80983  0.05586  0.07868  1.0000
  C   C47       1.0  0.80945  0.44541  0.57966  1.0000
  C   C48       1.0  0.19015  0.94414  0.92132  1.0000
  C   C49       1.0  0.06865  0.64287  0.43193  1.0000
  C   C50       1.0  0.93017  0.14521  0.06690  1.0000
  C   C51       1.0  0.93138  0.35714  0.56808  1.0000
  C   C52       1.0  0.06982  0.85479  0.93310  1.0000
  C   C53       1.0  0.62048  0.00786  0.70347  1.0000
  C   C54       1.0  0.37813  0.49915  0.79364  1.0000
  C   C55       1.0  0.37953  0.99215  0.29653  1.0000
  C   C56       1.0  0.62186  0.50084  0.20636  1.0000
  N   N1        1.0  0.89021  0.86274  0.46306  1.0000
  N   N2        1.0  0.10927  0.36516  0.03592  1.0000
  N   N3        1.0  0.10981  0.13726  0.53695  1.0000
  N   N4        1.0  0.89073  0.63484  0.96409  1.0000
  N   N5        1.0  0.28219  0.55267  0.35437  1.0000
  N   N6        1.0  0.72037  0.05229  0.14549  1.0000
  N   N7        1.0  0.71782  0.44733  0.64563  1.0000
  N   N8        1.0  0.27962  0.94772  0.85451  1.0000
  O   O1        1.0  0.59688  0.25923  0.37312  1.0000
  O   O2        1.0  0.42725  0.76213  0.12032  1.0000
  O   O3        1.0  0.40311  0.74076  0.62687  1.0000
  O   O4        1.0  0.57274  0.23788  0.87967  1.0000
  O   O5        1.0  0.45231  0.32279  0.47627  1.0000
  O   O6        1.0  0.55883  0.81777  0.01059  1.0000
  O   O7        1.0  0.54771  0.67721  0.52373  1.0000
  O   O8        1.0  0.44116  0.18223  0.98940  1.0000
  O   O9        1.0  0.51660  0.08351  0.73077  1.0000
  O   O10       1.0  0.48326  0.57354  0.76481  1.0000
  O   O11       1.0  0.48340  0.91649  0.26923  1.0000
  O   O12       1.0  0.51675  0.42646  0.23519  1.0000
  O   O13       1.0  0.69018  0.91932  0.74372  1.0000
  O   O14       1.0  0.30808  0.40990  0.75510  1.0000
  O   O15       1.0  0.30981  0.08067  0.25627  1.0000
  O   O16       1.0  0.69191  0.59011  0.24490  1.0000
  O   O17       1.0  0.87720  0.90983  0.32836  1.0000
  O   O18       1.0  0.12291  0.41196  0.17058  1.0000
  O   O19       1.0  0.12281  0.09016  0.67165  1.0000
  O   O20       1.0  0.87709  0.58805  0.82942  1.0000
  O   O21       1.0  0.64622  0.53388  0.39695  1.0000
  O   O22       1.0  0.36462  0.02401  0.10704  1.0000
  O   O23       1.0  0.35377  0.46609  0.60304  1.0000
  O   O24       1.0  0.63536  0.97599  0.89296  1.0000
  O   O25       1.0  0.24196  0.30447  0.31023  1.0000
  O   O26       1.0  0.76572  0.80894  0.18723  1.0000
  O   O27       1.0  0.75807  0.69554  0.68978  1.0000
  O   O28       1.0  0.23426  0.19106  0.81277  1.0000
