data_image0
_chemical_formula_structural       Ni2H36C46N8O12
_chemical_formula_sum              "Ni2 H36 C46 N8 O12"
_cell_length_a       7.89459
_cell_length_b       10.1229
_cell_length_c       12.8373
_cell_angle_alpha    96.4681
_cell_angle_beta     100.482
_cell_angle_gamma    92.0106

_space_group_name_H-M_alt    "P 1"
_space_group_IT_number       1

loop_
  _space_group_symop_operation_xyz
  'x, y, z'

loop_
  _atom_site_type_symbol
  _atom_site_label
  _atom_site_symmetry_multiplicity
  _atom_site_fract_x
  _atom_site_fract_y
  _atom_site_fract_z
  _atom_site_occupancy
  Ni  Ni1       1.0  0.99622  0.30468  0.89727  1.0000
  Ni  Ni2       1.0  0.00378  0.69532  0.10273  1.0000
  H   H1        1.0  0.99868  0.81260  0.36457  1.0000
  H   H2        1.0  0.00132  0.18740  0.63543  1.0000
  H   H3        1.0  0.58065  0.40095  0.15851  1.0000
  H   H4        1.0  0.41935  0.59905  0.84149  1.0000
  H   H5        1.0  0.33358  0.49295  0.00390  1.0000
  H   H6        1.0  0.66642  0.50705  0.99610  1.0000
  H   H7        1.0  0.19374  0.09455  0.03475  1.0000
  H   H8        1.0  0.80626  0.90545  0.96526  1.0000
  H   H9        1.0  0.62563  0.13611  0.19943  1.0000
  H   H10       1.0  0.37437  0.86389  0.80057  1.0000
  H   H11       1.0  0.42772  0.03983  0.17529  1.0000
  H   H12       1.0  0.57228  0.96017  0.82471  1.0000
  H   H13       1.0  0.29824  0.35458  0.25681  1.0000
  H   H14       1.0  0.70177  0.64543  0.74319  1.0000
  H   H15       1.0  0.26742  0.44517  0.43854  1.0000
  H   H16       1.0  0.73258  0.55483  0.56146  1.0000
  H   H17       1.0  0.57447  0.13807  0.56761  1.0000
  H   H18       1.0  0.42552  0.86193  0.43239  1.0000
  H   H19       1.0  0.60829  0.04871  0.38649  1.0000
  H   H20       1.0  0.39170  0.95129  0.61351  1.0000
  H   H21       1.0  0.40320  0.47005  0.62700  1.0000
  H   H22       1.0  0.59680  0.52995  0.37300  1.0000
  H   H23       1.0  0.26443  0.33336  0.63731  1.0000
  H   H24       1.0  0.73557  0.66664  0.36269  1.0000
  H   H25       1.0  0.76173  0.39414  0.68265  1.0000
  H   H26       1.0  0.23826  0.60586  0.31735  1.0000
  H   H27       1.0  0.64578  0.19741  0.93584  1.0000
  H   H28       1.0  0.35422  0.80258  0.06416  1.0000
  H   H29       1.0  0.33777  0.22584  0.79408  1.0000
  H   H30       1.0  0.66223  0.77416  0.20592  1.0000
  H   H31       1.0  0.05516  0.84408  0.91647  1.0000
  H   H32       1.0  0.94484  0.15592  0.08353  1.0000
  H   H33       1.0  0.08510  0.55489  0.64832  1.0000
  H   H34       1.0  0.91491  0.44510  0.35168  1.0000
  H   H35       1.0  0.02604  0.96655  0.60344  1.0000
  H   H36       1.0  0.97395  0.03344  0.39656  1.0000
  C   C1        1.0  0.46559  0.35198  0.10814  1.0000
  C   C2        1.0  0.53442  0.64803  0.89185  1.0000
  C   C3        1.0  0.34432  0.39563  0.03073  1.0000
  C   C4        1.0  0.65568  0.60437  0.96926  1.0000
  C   C5        1.0  0.26522  0.18999  0.04378  1.0000
  C   C6        1.0  0.73478  0.81001  0.95622  1.0000
  C   C7        1.0  0.48649  0.14146  0.19837  1.0000
  C   C8        1.0  0.51351  0.85854  0.80163  1.0000
  C   C9        1.0  0.45705  0.19576  0.30826  1.0000
  C   C10       1.0  0.54295  0.80425  0.69174  1.0000
  C   C11       1.0  0.36004  0.30650  0.32439  1.0000
  C   C12       1.0  0.63996  0.69350  0.67561  1.0000
  C   C13       1.0  0.34238  0.35801  0.42688  1.0000
  C   C14       1.0  0.65762  0.64199  0.57312  1.0000
  C   C15       1.0  0.41916  0.29897  0.51562  1.0000
  C   C16       1.0  0.58084  0.70104  0.48438  1.0000
  C   C17       1.0  0.51258  0.18590  0.49977  1.0000
  C   C18       1.0  0.48742  0.81410  0.50023  1.0000
  C   C19       1.0  0.53160  0.13514  0.39713  1.0000
  C   C20       1.0  0.46840  0.86486  0.60287  1.0000
  C   C21       1.0  0.39385  0.36100  0.62397  1.0000
  C   C22       1.0  0.60615  0.63900  0.37603  1.0000
  C   C23       1.0  0.68936  0.34687  0.73389  1.0000
  C   C24       1.0  0.31064  0.65313  0.26611  1.0000
  C   C25       1.0  0.62304  0.24054  0.86149  1.0000
  C   C26       1.0  0.37695  0.75946  0.13851  1.0000
  C   C27       1.0  0.47122  0.25449  0.79310  1.0000
  C   C28       1.0  0.52878  0.74551  0.20690  1.0000
  C   C29       1.0  0.03534  0.92089  0.76460  1.0000
  C   C30       1.0  0.96467  0.07911  0.23540  1.0000
  C   C31       1.0  0.05420  0.82041  0.83154  1.0000
  C   C32       1.0  0.94580  0.17959  0.16846  1.0000
  C   C33       1.0  0.07220  0.68851  0.79031  1.0000
  C   C34       1.0  0.92780  0.31149  0.20970  1.0000
  C   C35       1.0  0.07667  0.65766  0.68181  1.0000
  C   C36       1.0  0.92333  0.34234  0.31819  1.0000
  C   C37       1.0  0.06144  0.75870  0.61515  1.0000
  C   C38       1.0  0.93857  0.24130  0.38485  1.0000
  C   C39       1.0  0.03994  0.88956  0.65638  1.0000
  C   C40       1.0  0.96006  0.11044  0.34362  1.0000
  C   C41       1.0  0.01321  0.06103  0.80837  1.0000
  C   C42       1.0  0.98679  0.93896  0.19163  1.0000
  C   C43       1.0  0.08036  0.58355  0.86538  1.0000
  C   C44       1.0  0.91964  0.41645  0.13462  1.0000
  C   C45       1.0  0.06144  0.72656  0.49887  1.0000
  C   C46       1.0  0.93855  0.27346  0.50114  1.0000
  N   N1        1.0  0.21992  0.29391  0.99098  1.0000
  N   N2        1.0  0.78008  0.70609  0.00901  1.0000
  N   N3        1.0  0.41404  0.22176  0.11549  1.0000
  N   N4        1.0  0.58597  0.77824  0.88451  1.0000
  N   N5        1.0  0.51527  0.32194  0.71321  1.0000
  N   N6        1.0  0.48472  0.67806  0.28678  1.0000
  N   N7        1.0  0.75714  0.29841  0.82348  1.0000
  N   N8        1.0  0.24286  0.70159  0.17652  1.0000
  O   O1        1.0  0.00709  0.82752  0.44466  1.0000
  O   O2        1.0  0.99291  0.17248  0.55534  1.0000
  O   O3        1.0  0.10358  0.61993  0.45795  1.0000
  O   O4        1.0  0.89642  0.38006  0.54204  1.0000
  O   O5        1.0  0.05271  0.46217  0.82233  1.0000
  O   O6        1.0  0.94729  0.53783  0.17767  1.0000
  O   O7        1.0  0.11592  0.62167  0.96411  1.0000
  O   O8        1.0  0.88408  0.37833  0.03589  1.0000
  O   O9        1.0  0.05537  0.15676  0.75889  1.0000
  O   O10       1.0  0.94463  0.84324  0.24111  1.0000
  O   O11       1.0  0.95781  0.08292  0.89552  1.0000
  O   O12       1.0  0.04219  0.91708  0.10448  1.0000
