data_image0
_chemical_formula_structural       Cu4H36C56N20O16
_chemical_formula_sum              "Cu4 H36 C56 N20 O16"
_cell_length_a       8.35446
_cell_length_b       12.0083
_cell_length_c       14.932
_cell_angle_alpha    96.9386
_cell_angle_beta     90
_cell_angle_gamma    110.357

_space_group_name_H-M_alt    "P 1"
_space_group_IT_number       1

loop_
  _space_group_symop_operation_xyz
  'x, y, z'

loop_
  _atom_site_type_symbol
  _atom_site_label
  _atom_site_symmetry_multiplicity
  _atom_site_fract_x
  _atom_site_fract_y
  _atom_site_fract_z
  _atom_site_occupancy
  Cu  Cu1       1.0  0.55395  0.40819  0.09911  1.0000
  Cu  Cu2       1.0  0.14570  0.59190  0.40097  1.0000
  Cu  Cu3       1.0  0.44612  0.59180  0.90096  1.0000
  Cu  Cu4       1.0  0.85439  0.40811  0.59896  1.0000
  H   H1        1.0  0.78290  0.15499  0.79783  1.0000
  H   H2        1.0  0.62805  0.84471  0.70223  1.0000
  H   H3        1.0  0.21712  0.84497  0.20216  1.0000
  H   H4        1.0  0.37201  0.15536  0.29779  1.0000
  H   H5        1.0  0.95575  0.37128  0.84868  1.0000
  H   H6        1.0  0.58409  0.62833  0.65138  1.0000
  H   H7        1.0  0.04426  0.62869  0.15127  1.0000
  H   H8        1.0  0.41593  0.37173  0.34871  1.0000
  H   H9        1.0  0.06544  0.91758  0.05866  1.0000
  H   H10       1.0  0.14814  0.08257  0.44137  1.0000
  H   H11       1.0  0.93456  0.08245  0.94131  1.0000
  H   H12       1.0  0.85181  0.91738  0.55863  1.0000
  H   H13       1.0  0.51368  0.05642  0.87432  1.0000
  H   H14       1.0  0.45776  0.94356  0.62574  1.0000
  H   H15       1.0  0.48637  0.94355  0.12569  1.0000
  H   H16       1.0  0.54233  0.05649  0.37424  1.0000
  H   H17       1.0  0.22809  0.28029  0.19405  1.0000
  H   H18       1.0  0.94786  0.71981  0.30612  1.0000
  H   H19       1.0  0.77209  0.71969  0.80603  1.0000
  H   H20       1.0  0.05239  0.28020  0.69377  1.0000
  H   H21       1.0  0.84588  0.48153  0.97471  1.0000
  H   H22       1.0  0.36405  0.51838  0.52523  1.0000
  H   H23       1.0  0.15408  0.51849  0.02519  1.0000
  H   H24       1.0  0.63588  0.48161  0.47492  1.0000
  H   H25       1.0  0.30160  0.98653  0.95194  1.0000
  H   H26       1.0  0.31540  0.01366  0.54814  1.0000
  H   H27       1.0  0.69836  0.01351  0.04801  1.0000
  H   H28       1.0  0.68449  0.98630  0.45190  1.0000
  H   H29       1.0  0.02741  0.06654  0.18118  1.0000
  H   H30       1.0  0.96130  0.93362  0.31884  1.0000
  H   H31       1.0  0.97265  0.93348  0.81883  1.0000
  H   H32       1.0  0.03876  0.06635  0.68112  1.0000
  H   H33       1.0  0.73721  0.83162  0.21322  1.0000
  H   H34       1.0  0.90564  0.16847  0.28697  1.0000
  H   H35       1.0  0.26276  0.16835  0.78678  1.0000
  H   H36       1.0  0.09437  0.83155  0.71302  1.0000
  C   C1        1.0  0.49223  0.67864  0.26527  1.0000
  C   C2        1.0  0.81380  0.32142  0.23466  1.0000
  C   C3        1.0  0.50764  0.32140  0.73473  1.0000
  C   C4        1.0  0.18605  0.67852  0.76534  1.0000
  C   C5        1.0  0.55256  0.80650  0.30219  1.0000
  C   C6        1.0  0.74633  0.19351  0.19780  1.0000
  C   C7        1.0  0.44744  0.19353  0.69783  1.0000
  C   C8        1.0  0.25365  0.80644  0.80218  1.0000
  C   C9        1.0  0.55927  0.62154  0.19603  1.0000
  C   C10       1.0  0.93803  0.37860  0.30386  1.0000
  C   C11       1.0  0.44058  0.37845  0.80400  1.0000
  C   C12       1.0  0.06185  0.62141  0.69611  1.0000
  C   C13       1.0  0.74111  0.20548  0.85264  1.0000
  C   C14       1.0  0.53564  0.79429  0.64744  1.0000
  C   C15       1.0  0.25891  0.79449  0.14734  1.0000
  C   C16       1.0  0.46439  0.20576  0.35260  1.0000
  C   C17       1.0  0.54134  0.21680  0.96577  1.0000
  C   C18       1.0  0.32468  0.78325  0.53431  1.0000
  C   C19       1.0  0.45870  0.78321  0.03422  1.0000
  C   C20       1.0  0.67535  0.21676  0.46571  1.0000
  C   C21       1.0  0.83756  0.32553  0.88037  1.0000
  C   C22       1.0  0.51181  0.67422  0.61973  1.0000
  C   C23       1.0  0.16245  0.67446  0.11959  1.0000
  C   C24       1.0  0.48821  0.32582  0.38034  1.0000
  C   C25       1.0  0.15117  0.01072  0.06569  1.0000
  C   C26       1.0  0.14068  0.98943  0.43442  1.0000
  C   C27       1.0  0.84886  0.98931  0.93431  1.0000
  C   C28       1.0  0.85933  0.01054  0.56556  1.0000
  C   C29       1.0  0.59077  0.15017  0.89508  1.0000
  C   C30       1.0  0.44080  0.84975  0.60502  1.0000
  C   C31       1.0  0.40926  0.84981  0.10492  1.0000
  C   C32       1.0  0.55924  0.15028  0.39499  1.0000
  C   C33       1.0  0.24030  0.21165  0.14225  1.0000
  C   C34       1.0  0.02870  0.78845  0.35793  1.0000
  C   C35       1.0  0.75986  0.78834  0.85782  1.0000
  C   C36       1.0  0.97150  0.21157  0.64199  1.0000
  C   C37       1.0  0.70313  0.65825  0.13555  1.0000
  C   C38       1.0  0.04508  0.34188  0.36438  1.0000
  C   C39       1.0  0.29683  0.34167  0.86455  1.0000
  C   C40       1.0  0.95493  0.65818  0.63555  1.0000
  C   C41       1.0  0.77945  0.38714  0.95032  1.0000
  C   C42       1.0  0.39213  0.61276  0.54973  1.0000
  C   C43       1.0  0.22054  0.61288  0.04961  1.0000
  C   C44       1.0  0.60783  0.38725  0.45037  1.0000
  C   C45       1.0  0.39067  0.16845  0.01915  1.0000
  C   C46       1.0  0.22237  0.83168  0.48099  1.0000
  C   C47       1.0  0.60942  0.83156  0.98087  1.0000
  C   C48       1.0  0.77773  0.16832  0.51898  1.0000
  C   C49       1.0  0.28168  0.04905  0.00628  1.0000
  C   C50       1.0  0.23287  0.95112  0.49385  1.0000
  C   C51       1.0  0.71834  0.95097  0.99371  1.0000
  C   C52       1.0  0.76713  0.04886  0.50614  1.0000
  C   C53       1.0  0.13020  0.09286  0.13480  1.0000
  C   C54       1.0  0.03755  0.90728  0.36531  1.0000
  C   C55       1.0  0.86988  0.90715  0.86521  1.0000
  C   C56       1.0  0.96254  0.09270  0.63465  1.0000
  N   N1        1.0  0.45956  0.50449  0.18639  1.0000
  N   N2        1.0  0.95526  0.49563  0.31351  1.0000
  N   N3        1.0  0.54017  0.49551  0.81361  1.0000
  N   N4        1.0  0.04449  0.50436  0.68648  1.0000
  N   N5        1.0  0.36835  0.24781  0.08619  1.0000
  N   N6        1.0  0.12056  0.75231  0.41400  1.0000
  N   N7        1.0  0.63183  0.75216  0.91388  1.0000
  N   N8        1.0  0.87967  0.24772  0.58591  1.0000
  N   N9        1.0  0.63587  0.33337  0.99190  1.0000
  N   N10       1.0  0.30247  0.66665  0.50817  1.0000
  N   N11       1.0  0.36412  0.66666  0.00805  1.0000
  N   N12       1.0  0.69749  0.33333  0.49191  1.0000
  N   N13       1.0  0.33631  0.48771  0.24594  1.0000
  N   N14       1.0  0.84864  0.51234  0.25400  1.0000
  N   N15       1.0  0.66335  0.51235  0.75401  1.0000
  N   N16       1.0  0.15100  0.48759  0.74602  1.0000
  N   N17       1.0  0.35402  0.59283  0.29416  1.0000
  N   N18       1.0  0.76126  0.40719  0.20580  1.0000
  N   N19       1.0  0.64573  0.40725  0.70580  1.0000
  N   N20       1.0  0.23844  0.59271  0.79423  1.0000
  O   O1        1.0  0.71564  0.57442  0.07732  1.0000
  O   O2        1.0  0.14105  0.42562  0.42277  1.0000
  O   O3        1.0  0.28441  0.42546  0.92284  1.0000
  O   O4        1.0  0.85904  0.57448  0.57710  1.0000
  O   O5        1.0  0.68982  0.87678  0.26590  1.0000
  O   O6        1.0  0.81275  0.12318  0.23442  1.0000
  O   O7        1.0  0.31018  0.12322  0.73409  1.0000
  O   O8        1.0  0.18728  0.87681  0.76557  1.0000
  O   O9        1.0  0.48120  0.84755  0.36316  1.0000
  O   O10       1.0  0.63432  0.15245  0.13663  1.0000
  O   O11       1.0  0.51893  0.15251  0.63690  1.0000
  O   O12       1.0  0.36572  0.84747  0.86332  1.0000
  O   O13       1.0  0.80293  0.76656  0.14255  1.0000
  O   O14       1.0  0.03679  0.23360  0.35728  1.0000
  O   O15       1.0  0.19709  0.23335  0.85751  1.0000
  O   O16       1.0  0.96326  0.76647  0.64268  1.0000
