data_image0
_chemical_formula_structural       Cd2H40C36N8O10
_chemical_formula_sum              "Cd2 H40 C36 N8 O10"
_cell_length_a       9.34411
_cell_length_b       11.4369
_cell_length_c       11.4369
_cell_angle_alpha    85.5307
_cell_angle_beta     68.5968
_cell_angle_gamma    68.5969

_space_group_name_H-M_alt    "P 1"
_space_group_IT_number       1

loop_
  _space_group_symop_operation_xyz
  'x, y, z'

loop_
  _atom_site_type_symbol
  _atom_site_label
  _atom_site_symmetry_multiplicity
  _atom_site_fract_x
  _atom_site_fract_y
  _atom_site_fract_z
  _atom_site_occupancy
  Cd  Cd1       1.0  0.76120  0.66582  0.41989  1.0000
  Cd  Cd2       1.0  0.26120  0.41989  0.66582  1.0000
  H   H1        1.0  0.40753  0.68405  0.62553  1.0000
  H   H2        1.0  0.90754  0.62553  0.68405  1.0000
  H   H3        1.0  0.19033  0.80963  0.82092  1.0000
  H   H4        1.0  0.69034  0.82092  0.80963  1.0000
  H   H5        1.0  0.44652  0.07000  0.75037  1.0000
  H   H6        1.0  0.94652  0.75037  0.07000  1.0000
  H   H7        1.0  0.65892  0.93002  0.56046  1.0000
  H   H8        1.0  0.15892  0.56046  0.93002  1.0000
  H   H9        1.0  0.46432  0.78970  0.14121  1.0000
  H   H10       1.0  0.96432  0.14121  0.78970  1.0000
  H   H11       1.0  0.56787  0.62704  0.10376  1.0000
  H   H12       1.0  0.06787  0.10376  0.62703  1.0000
  H   H13       1.0  0.32692  0.59021  0.27592  1.0000
  H   H14       1.0  0.82692  0.27592  0.59021  1.0000
  H   H15       1.0  0.15214  0.87461  0.26827  1.0000
  H   H16       1.0  0.65215  0.26826  0.87460  1.0000
  H   H17       1.0  0.21509  0.80024  0.39385  1.0000
  H   H18       1.0  0.71509  0.39385  0.80024  1.0000
  H   H19       1.0  0.17275  0.12707  0.91810  1.0000
  H   H20       1.0  0.67275  0.91810  0.12707  1.0000
  H   H21       1.0  0.86379  0.94827  0.17321  1.0000
  H   H22       1.0  0.36379  0.17321  0.94827  1.0000
  H   H23       1.0  0.59244  0.41209  0.44132  1.0000
  H   H24       1.0  0.09243  0.44132  0.41209  1.0000
  H   H25       1.0  0.82478  0.27839  0.25662  1.0000
  H   H26       1.0  0.32478  0.25662  0.27839  1.0000
  H   H27       1.0  0.59465  0.00030  0.34351  1.0000
  H   H28       1.0  0.09464  0.34351  0.00030  1.0000
  H   H29       1.0  0.36975  0.14680  0.52415  1.0000
  H   H30       1.0  0.86975  0.52415  0.14680  1.0000
  H   H31       1.0  0.24786  0.74704  0.06087  1.0000
  H   H32       1.0  0.74786  0.06087  0.74704  1.0000
  H   H33       1.0  0.15668  0.63858  0.14306  1.0000
  H   H34       1.0  0.65668  0.14306  0.63858  1.0000
  H   H35       1.0  0.36934  0.58331  0.04672  1.0000
  H   H36       1.0  0.86935  0.04672  0.58331  1.0000
  H   H37       1.0  0.86000  0.46705  0.59010  1.0000
  H   H38       1.0  0.36000  0.59010  0.46705  1.0000
  H   H39       1.0  0.66631  0.50188  0.61835  1.0000
  H   H40       1.0  0.16631  0.61835  0.50188  1.0000
  C   C1        1.0  0.41324  0.76919  0.65696  1.0000
  C   C2        1.0  0.91324  0.65696  0.76919  1.0000
  C   C3        1.0  0.29264  0.83898  0.76572  1.0000
  C   C4        1.0  0.79264  0.76572  0.83898  1.0000
  C   C5        1.0  0.30230  0.94948  0.80213  1.0000
  C   C6        1.0  0.80230  0.80213  0.94948  1.0000
  C   C7        1.0  0.43519  0.98427  0.72665  1.0000
  C   C8        1.0  0.93519  0.72665  0.98427  1.0000
  C   C9        1.0  0.55250  0.90749  0.62082  1.0000
  C   C10       1.0  0.05250  0.62082  0.90749  1.0000
  C   C11       1.0  0.55799  0.68471  0.27787  1.0000
  C   C12       1.0  0.05799  0.27787  0.68471  1.0000
  C   C13       1.0  0.47684  0.69750  0.18131  1.0000
  C   C14       1.0  0.97685  0.18130  0.69750  1.0000
  C   C15       1.0  0.31280  0.67732  0.22537  1.0000
  C   C16       1.0  0.81280  0.22537  0.67731  1.0000
  C   C17       1.0  0.17502  0.78741  0.31800  1.0000
  C   C18       1.0  0.67502  0.31800  0.78741  1.0000
  C   C19       1.0  0.01723  0.75988  0.37509  1.0000
  C   C20       1.0  0.51723  0.37509  0.75988  1.0000
  C   C21       1.0  0.17811  0.03030  0.91263  1.0000
  C   C22       1.0  0.67811  0.91263  0.03030  1.0000
  C   C23       1.0  0.85842  0.04498  0.17859  1.0000
  C   C24       1.0  0.35842  0.17859  0.04498  1.0000
  C   C25       1.0  0.59683  0.32069  0.41627  1.0000
  C   C26       1.0  0.09683  0.41627  0.32069  1.0000
  C   C27       1.0  0.72563  0.24642  0.31363  1.0000
  C   C28       1.0  0.22563  0.31363  0.24642  1.0000
  C   C29       1.0  0.72771  0.12860  0.28474  1.0000
  C   C30       1.0  0.22771  0.28474  0.12860  1.0000
  C   C31       1.0  0.59760  0.09139  0.36164  1.0000
  C   C32       1.0  0.09760  0.36164  0.09139  1.0000
  C   C33       1.0  0.47242  0.17242  0.46176  1.0000
  C   C34       1.0  0.97242  0.46176  0.17242  1.0000
  C   C35       1.0  0.26924  0.66077  0.11248  1.0000
  C   C36       1.0  0.76924  0.11248  0.66077  1.0000
  N   N1        1.0  0.54140  0.80263  0.58558  1.0000
  N   N2        1.0  0.04141  0.58558  0.80262  1.0000
  N   N3        1.0  0.07514  0.99031  0.99941  1.0000
  N   N4        1.0  0.57514  0.99941  0.99032  1.0000
  N   N5        1.0  0.96513  0.08370  0.09423  1.0000
  N   N6        1.0  0.46513  0.09423  0.08370  1.0000
  N   N7        1.0  0.47155  0.28488  0.48946  1.0000
  N   N8        1.0  0.97155  0.48946  0.28488  1.0000
  O   O1        1.0  0.66082  0.73984  0.25721  1.0000
  O   O2        1.0  0.16082  0.25721  0.73984  1.0000
  O   O3        1.0  0.75932  0.53474  0.58483  1.0000
  O   O4        1.0  0.25932  0.58483  0.53474  1.0000
  O   O5        1.0  0.53117  0.61587  0.37050  1.0000
  O   O6        1.0  0.03117  0.37050  0.61587  1.0000
  O   O7        1.0  0.89775  0.81493  0.33792  1.0000
  O   O8        1.0  0.39775  0.33792  0.81493  1.0000
  O   O9        1.0  0.01222  0.67519  0.45525  1.0000
  O   O10       1.0  0.51222  0.45525  0.67519  1.0000
