data_image0
_chemical_formula_structural       Cd2H32C34N8O8
_chemical_formula_sum              "Cd2 H32 C34 N8 O8"
_cell_length_a       8.75878
_cell_length_b       10.1311
_cell_length_c       12.4624
_cell_angle_alpha    90.7035
_cell_angle_beta     110.534
_cell_angle_gamma    113.566

_space_group_name_H-M_alt    "P 1"
_space_group_IT_number       1

loop_
  _space_group_symop_operation_xyz
  'x, y, z'

loop_
  _atom_site_type_symbol
  _atom_site_label
  _atom_site_symmetry_multiplicity
  _atom_site_fract_x
  _atom_site_fract_y
  _atom_site_fract_z
  _atom_site_occupancy
  Cd  Cd1       1.0  0.84787  0.07884  0.89581  1.0000
  Cd  Cd2       1.0  0.15213  0.92117  0.10419  1.0000
  H   H1        1.0  0.95150  0.06590  0.67897  1.0000
  H   H2        1.0  0.04849  0.93410  0.32103  1.0000
  H   H3        1.0  0.94480  0.88579  0.53366  1.0000
  H   H4        1.0  0.05521  0.11421  0.46634  1.0000
  H   H5        1.0  0.61360  0.53958  0.66371  1.0000
  H   H6        1.0  0.38640  0.46043  0.33629  1.0000
  H   H7        1.0  0.63528  0.73246  0.80306  1.0000
  H   H8        1.0  0.36473  0.26754  0.19694  1.0000
  H   H9        1.0  0.70255  0.47158  0.51263  1.0000
  H   H10       1.0  0.29746  0.52843  0.48737  1.0000
  H   H11       1.0  0.03166  0.65375  0.32266  1.0000
  H   H12       1.0  0.96834  0.34624  0.67735  1.0000
  H   H13       1.0  0.69743  0.07406  0.09615  1.0000
  H   H14       1.0  0.30257  0.92594  0.90385  1.0000
  H   H15       1.0  0.70708  0.24135  0.24672  1.0000
  H   H16       1.0  0.29291  0.75865  0.75329  1.0000
  H   H17       1.0  0.13233  0.59238  0.18180  1.0000
  H   H18       1.0  0.86766  0.40762  0.81820  1.0000
  H   H19       1.0  0.10575  0.40623  0.03165  1.0000
  H   H20       1.0  0.89425  0.59377  0.96835  1.0000
  H   H21       1.0  0.47814  0.20089  0.98799  1.0000
  H   H22       1.0  0.52187  0.79911  0.01201  1.0000
  H   H23       1.0  0.49023  0.37487  0.02285  1.0000
  H   H24       1.0  0.50977  0.62514  0.97715  1.0000
  H   H25       1.0  0.60027  0.39900  0.86858  1.0000
  H   H26       1.0  0.39973  0.60100  0.13141  1.0000
  H   H27       1.0  0.37720  0.38343  0.80449  1.0000
  H   H28       1.0  0.62279  0.61657  0.19551  1.0000
  H   H29       1.0  0.27456  0.10490  0.74339  1.0000
  H   H30       1.0  0.72543  0.89510  0.25661  1.0000
  H   H31       1.0  0.39382  0.22700  0.66862  1.0000
  H   H32       1.0  0.60617  0.77299  0.33138  1.0000
  C   C1        1.0  0.87726  0.94793  0.67118  1.0000
  C   C2        1.0  0.12274  0.05207  0.32881  1.0000
  C   C3        1.0  0.87277  0.84887  0.59109  1.0000
  C   C4        1.0  0.12723  0.15114  0.40890  1.0000
  C   C5        1.0  0.77744  0.69804  0.58657  1.0000
  C   C6        1.0  0.22256  0.30196  0.41343  1.0000
  C   C7        1.0  0.68848  0.65504  0.66316  1.0000
  C   C8        1.0  0.31153  0.34496  0.33684  1.0000
  C   C9        1.0  0.70009  0.76167  0.74096  1.0000
  C   C10       1.0  0.29992  0.23834  0.25905  1.0000
  C   C11       1.0  0.76913  0.58734  0.50612  1.0000
  C   C12       1.0  0.23087  0.41266  0.49388  1.0000
  C   C13       1.0  0.92739  0.54150  0.30655  1.0000
  C   C14       1.0  0.07261  0.45850  0.69345  1.0000
  C   C15       1.0  0.79387  0.18890  0.11771  1.0000
  C   C16       1.0  0.20613  0.81110  0.88229  1.0000
  C   C17       1.0  0.79834  0.28345  0.20165  1.0000
  C   C18       1.0  0.20166  0.71654  0.79835  1.0000
  C   C19       1.0  0.91868  0.43224  0.22452  1.0000
  C   C20       1.0  0.08131  0.56775  0.77548  1.0000
  C   C21       1.0  0.03421  0.47796  0.16418  1.0000
  C   C22       1.0  0.96579  0.52203  0.83582  1.0000
  C   C23       1.0  0.02095  0.37562  0.08208  1.0000
  C   C24       1.0  0.97905  0.62438  0.91792  1.0000
  C   C25       1.0  0.54954  0.13537  0.78922  1.0000
  C   C26       1.0  0.45046  0.86463  0.21078  1.0000
  C   C27       1.0  0.22302  0.21193  0.93312  1.0000
  C   C28       1.0  0.77699  0.78807  0.06689  1.0000
  C   C29       1.0  0.42235  0.27810  0.95323  1.0000
  C   C30       1.0  0.57766  0.72191  0.04677  1.0000
  C   C31       1.0  0.45702  0.32359  0.84427  1.0000
  C   C32       1.0  0.54298  0.67640  0.15573  1.0000
  C   C33       1.0  0.40587  0.19244  0.75315  1.0000
  C   C34       1.0  0.59413  0.80755  0.24685  1.0000
  N   N1        1.0  0.79414  0.90523  0.74599  1.0000
  N   N2        1.0  0.20585  0.09477  0.25401  1.0000
  N   N3        1.0  0.83815  0.62442  0.42874  1.0000
  N   N4        1.0  0.16185  0.37558  0.57126  1.0000
  N   N5        1.0  0.81396  0.50663  0.35738  1.0000
  N   N6        1.0  0.18603  0.49337  0.64262  1.0000
  N   N7        1.0  0.90200  0.23416  0.05802  1.0000
  N   N8        1.0  0.09800  0.76584  0.94199  1.0000
  O   O1        1.0  0.11921  0.25937  0.86415  1.0000
  O   O2        1.0  0.88079  0.74062  0.13585  1.0000
  O   O3        1.0  0.53453  0.03395  0.85000  1.0000
  O   O4        1.0  0.46546  0.96604  0.15001  1.0000
  O   O5        1.0  0.16354  0.11054  0.98868  1.0000
  O   O6        1.0  0.83647  0.88946  0.01132  1.0000
  O   O7        1.0  0.68721  0.19778  0.76298  1.0000
  O   O8        1.0  0.31278  0.80222  0.23702  1.0000
