data_image0
_chemical_formula_structural       Ag12H16C28S12N12
_chemical_formula_sum              "Ag12 H16 C28 S12 N12"
_cell_length_a       6.85809
_cell_length_b       11.1238
_cell_length_c       14.9164
_cell_angle_alpha    89.9996
_cell_angle_beta     94.5841
_cell_angle_gamma    89.9998

_space_group_name_H-M_alt    "P 1"
_space_group_IT_number       1

loop_
  _space_group_symop_operation_xyz
  'x, y, z'

loop_
  _atom_site_type_symbol
  _atom_site_label
  _atom_site_symmetry_multiplicity
  _atom_site_fract_x
  _atom_site_fract_y
  _atom_site_fract_z
  _atom_site_occupancy
  Ag  Ag1       1.0  0.11274  0.57630  0.24259  1.0000
  Ag  Ag2       1.0  0.38728  0.07628  0.75741  1.0000
  Ag  Ag3       1.0  0.88723  0.42371  0.75741  1.0000
  Ag  Ag4       1.0  0.61274  0.92371  0.24259  1.0000
  Ag  Ag5       1.0  0.68730  0.58906  0.11610  1.0000
  Ag  Ag6       1.0  0.81271  0.08906  0.88389  1.0000
  Ag  Ag7       1.0  0.31271  0.41094  0.88390  1.0000
  Ag  Ag8       1.0  0.18730  0.91095  0.11611  1.0000
  Ag  Ag9       1.0  0.65305  0.59587  0.39306  1.0000
  Ag  Ag10      1.0  0.84694  0.09588  0.60694  1.0000
  Ag  Ag11      1.0  0.34691  0.40412  0.60694  1.0000
  Ag  Ag12      1.0  0.15307  0.90412  0.39307  1.0000
  H   H1        1.0  0.45517  0.12815  0.37682  1.0000
  H   H2        1.0  0.04481  0.62814  0.62317  1.0000
  H   H3        1.0  0.54483  0.87185  0.62318  1.0000
  H   H4        1.0  0.95518  0.37186  0.37683  1.0000
  H   H5        1.0  0.44065  0.35125  0.38438  1.0000
  H   H6        1.0  0.05934  0.85125  0.61561  1.0000
  H   H7        1.0  0.55934  0.64875  0.61562  1.0000
  H   H8        1.0  0.94066  0.14875  0.38438  1.0000
  H   H9        1.0  0.56159  0.35775  0.10415  1.0000
  H   H10       1.0  0.93842  0.85774  0.89585  1.0000
  H   H11       1.0  0.43842  0.64224  0.89584  1.0000
  H   H12       1.0  0.06158  0.14226  0.10415  1.0000
  H   H13       1.0  0.58164  0.13602  0.10946  1.0000
  H   H14       1.0  0.91836  0.63601  0.89053  1.0000
  H   H15       1.0  0.41837  0.86397  0.89054  1.0000
  H   H16       1.0  0.08163  0.36400  0.10946  1.0000
  C   C1        1.0  0.47927  0.18222  0.31774  1.0000
  C   C2        1.0  0.02073  0.68222  0.68226  1.0000
  C   C3        1.0  0.52074  0.81778  0.68226  1.0000
  C   C4        1.0  0.97927  0.31778  0.31775  1.0000
  C   C5        1.0  0.47026  0.30684  0.32172  1.0000
  C   C6        1.0  0.02973  0.80685  0.67827  1.0000
  C   C7        1.0  0.52973  0.69315  0.67827  1.0000
  C   C8        1.0  0.97027  0.19316  0.32173  1.0000
  C   C9        1.0  0.50277  0.37434  0.24470  1.0000
  C   C10       1.0  0.99723  0.87435  0.75530  1.0000
  C   C11       1.0  0.49723  0.62566  0.75529  1.0000
  C   C12       1.0  0.00278  0.12565  0.24470  1.0000
  C   C13       1.0  0.53808  0.31070  0.16641  1.0000
  C   C14       1.0  0.96194  0.81070  0.83358  1.0000
  C   C15       1.0  0.46193  0.68929  0.83359  1.0000
  C   C16       1.0  0.03806  0.18930  0.16642  1.0000
  C   C17       1.0  0.54795  0.18632  0.16903  1.0000
  C   C18       1.0  0.95206  0.68631  0.83097  1.0000
  C   C19       1.0  0.45207  0.81367  0.83098  1.0000
  C   C20       1.0  0.04794  0.31369  0.16903  1.0000
  C   C21       1.0  0.16699  0.59897  0.03945  1.0000
  C   C22       1.0  0.33301  0.09897  0.96055  1.0000
  C   C23       1.0  0.83301  0.40103  0.96055  1.0000
  C   C24       1.0  0.66699  0.90103  0.03945  1.0000
  C   C25       1.0  0.16348  0.59300  0.45083  1.0000
  C   C26       1.0  0.33652  0.09300  0.54917  1.0000
  C   C27       1.0  0.83652  0.40700  0.54917  1.0000
  C   C28       1.0  0.66349  0.90700  0.45083  1.0000
  S   S1        1.0  0.49757  0.53274  0.24487  1.0000
  S   S2        1.0  0.00244  0.03273  0.75512  1.0000
  S   S3        1.0  0.50242  0.46725  0.75512  1.0000
  S   S4        1.0  0.99757  0.96727  0.24488  1.0000
  S   S5        1.0  0.04261  0.69312  0.09823  1.0000
  S   S6        1.0  0.45738  0.19312  0.90176  1.0000
  S   S7        1.0  0.95738  0.30688  0.90177  1.0000
  S   S8        1.0  0.54262  0.80689  0.09824  1.0000
  S   S9        1.0  0.02939  0.68407  0.38420  1.0000
  S   S10       1.0  0.47060  0.18407  0.61581  1.0000
  S   S11       1.0  0.97060  0.31593  0.61580  1.0000
  S   S12       1.0  0.52940  0.81593  0.38420  1.0000
  N   N1        1.0  0.51972  0.12144  0.24322  1.0000
  N   N2        1.0  0.98028  0.62143  0.75678  1.0000
  N   N3        1.0  0.48029  0.87855  0.75678  1.0000
  N   N4        1.0  0.01971  0.37857  0.24323  1.0000
  N   N5        1.0  0.25469  0.53069  0.99739  1.0000
  N   N6        1.0  0.24532  0.03070  0.00262  1.0000
  N   N7        1.0  0.74530  0.46931  0.00261  1.0000
  N   N8        1.0  0.75469  0.96932  0.99739  1.0000
  N   N9        1.0  0.25744  0.52541  0.49739  1.0000
  N   N10       1.0  0.24255  0.02540  0.50261  1.0000
  N   N11       1.0  0.74256  0.47460  0.50261  1.0000
  N   N12       1.0  0.75744  0.97460  0.49739  1.0000
