data_image0
_chemical_formula_structural       Mn8Sb8H32C48S20N8
_chemical_formula_sum              "Mn8 Sb8 H32 C48 S20 N8"
_cell_length_a       12.0898
_cell_length_b       12.174
_cell_length_c       12.6385
_cell_angle_alpha    90
_cell_angle_beta     112.351
_cell_angle_gamma    90

_space_group_name_H-M_alt    "P 1"
_space_group_IT_number       1

loop_
  _space_group_symop_operation_xyz
  'x, y, z'

loop_
  _atom_site_type_symbol
  _atom_site_label
  _atom_site_symmetry_multiplicity
  _atom_site_fract_x
  _atom_site_fract_y
  _atom_site_fract_z
  _atom_site_occupancy
  Mn  Mn1       1.0  0.73406  0.70954  0.35658  1.0000
  Mn  Mn2       1.0  0.76594  0.20954  0.64341  1.0000
  Mn  Mn3       1.0  0.26594  0.29046  0.64342  1.0000
  Mn  Mn4       1.0  0.23406  0.79046  0.35658  1.0000
  Mn  Mn5       1.0  0.99053  0.84588  0.49123  1.0000
  Mn  Mn6       1.0  0.50948  0.34588  0.50877  1.0000
  Mn  Mn7       1.0  0.00948  0.15412  0.50877  1.0000
  Mn  Mn8       1.0  0.49053  0.65412  0.49123  1.0000
  Sb  Sb1       1.0  0.76725  0.80899  0.62568  1.0000
  Sb  Sb2       1.0  0.73274  0.30899  0.37432  1.0000
  Sb  Sb3       1.0  0.23275  0.19101  0.37432  1.0000
  Sb  Sb4       1.0  0.26725  0.69101  0.62568  1.0000
  Sb  Sb5       1.0  0.77212  0.50003  0.64267  1.0000
  Sb  Sb6       1.0  0.72789  0.00003  0.35732  1.0000
  Sb  Sb7       1.0  0.22788  0.49997  0.35733  1.0000
  Sb  Sb8       1.0  0.27212  0.99997  0.64268  1.0000
  H   H1        1.0  0.47346  0.82398  0.22179  1.0000
  H   H2        1.0  0.02653  0.32398  0.77820  1.0000
  H   H3        1.0  0.52653  0.17602  0.77820  1.0000
  H   H4        1.0  0.97347  0.67602  0.22180  1.0000
  H   H5        1.0  0.33966  0.85068  0.01511  1.0000
  H   H6        1.0  0.16033  0.35069  0.98488  1.0000
  H   H7        1.0  0.66033  0.14932  0.98489  1.0000
  H   H8        1.0  0.83967  0.64930  0.01511  1.0000
  H   H9        1.0  0.37792  0.74393  0.86552  1.0000
  H   H10       1.0  0.12208  0.24394  0.13447  1.0000
  H   H11       1.0  0.62207  0.25607  0.13448  1.0000
  H   H12       1.0  0.87792  0.75606  0.86553  1.0000
  H   H13       1.0  0.83932  0.37726  0.04578  1.0000
  H   H14       1.0  0.66068  0.87726  0.95421  1.0000
  H   H15       1.0  0.16067  0.62273  0.95422  1.0000
  H   H16       1.0  0.33932  0.12273  0.04578  1.0000
  H   H17       1.0  0.96845  0.37799  0.25682  1.0000
  H   H18       1.0  0.53155  0.87799  0.74318  1.0000
  H   H19       1.0  0.03155  0.62201  0.74318  1.0000
  H   H20       1.0  0.46845  0.12200  0.25682  1.0000
  H   H21       1.0  0.92396  0.50978  0.38494  1.0000
  H   H22       1.0  0.57604  0.00978  0.61506  1.0000
  H   H23       1.0  0.07604  0.49022  0.61506  1.0000
  H   H24       1.0  0.42396  0.99021  0.38494  1.0000
  H   H25       1.0  0.50016  0.59433  0.81794  1.0000
  H   H26       1.0  0.99984  0.09433  0.18205  1.0000
  H   H27       1.0  0.49984  0.40567  0.18206  1.0000
  H   H28       1.0  0.00016  0.90567  0.81795  1.0000
  H   H29       1.0  0.66423  0.45994  0.88378  1.0000
  H   H30       1.0  0.83578  0.95994  0.11622  1.0000
  H   H31       1.0  0.33578  0.54006  0.11622  1.0000
  H   H32       1.0  0.16422  0.04005  0.88379  1.0000
  C   C1        1.0  0.48870  0.77893  0.15393  1.0000
  C   C2        1.0  0.01130  0.27893  0.84607  1.0000
  C   C3        1.0  0.51130  0.22107  0.84607  1.0000
  C   C4        1.0  0.98870  0.72106  0.15393  1.0000
  C   C5        1.0  0.41429  0.79365  0.03843  1.0000
  C   C6        1.0  0.08571  0.29365  0.96156  1.0000
  C   C7        1.0  0.58570  0.20636  0.96157  1.0000
  C   C8        1.0  0.91430  0.70635  0.03844  1.0000
  C   C9        1.0  0.43596  0.73394  0.95541  1.0000
  C   C10       1.0  0.06404  0.23394  0.04459  1.0000
  C   C11       1.0  0.56403  0.26606  0.04459  1.0000
  C   C12       1.0  0.93597  0.76605  0.95541  1.0000
  C   C13       1.0  0.53119  0.65792  0.98808  1.0000
  C   C14       1.0  0.96880  0.15793  0.01192  1.0000
  C   C15       1.0  0.46880  0.34208  0.01192  1.0000
  C   C16       1.0  0.03120  0.84207  0.98808  1.0000
  C   C17       1.0  0.60300  0.64998  0.10675  1.0000
  C   C18       1.0  0.89700  0.14998  0.89325  1.0000
  C   C19       1.0  0.39700  0.35003  0.89325  1.0000
  C   C20       1.0  0.10300  0.85002  0.10675  1.0000
  C   C21       1.0  0.70229  0.57530  0.14480  1.0000
  C   C22       1.0  0.79771  0.07530  0.85520  1.0000
  C   C23       1.0  0.29771  0.42470  0.85520  1.0000
  C   C24       1.0  0.20229  0.92470  0.14480  1.0000
  C   C25       1.0  0.72273  0.50540  0.06382  1.0000
  C   C26       1.0  0.77727  0.00540  0.93618  1.0000
  C   C27       1.0  0.27727  0.49460  0.93618  1.0000
  C   C28       1.0  0.22273  0.99459  0.06382  1.0000
  C   C29       1.0  0.82091  0.43257  0.10508  1.0000
  C   C30       1.0  0.67909  0.93257  0.89492  1.0000
  C   C31       1.0  0.17909  0.56743  0.89492  1.0000
  C   C32       1.0  0.32091  0.06743  0.10508  1.0000
  C   C33       1.0  0.89262  0.43331  0.22017  1.0000
  C   C34       1.0  0.60738  0.93331  0.77983  1.0000
  C   C35       1.0  0.10738  0.56669  0.77983  1.0000
  C   C36       1.0  0.39262  0.06669  0.22017  1.0000
  C   C37       1.0  0.86671  0.50625  0.29419  1.0000
  C   C38       1.0  0.63329  0.00625  0.70581  1.0000
  C   C39       1.0  0.13328  0.49375  0.70581  1.0000
  C   C40       1.0  0.36671  0.99375  0.29419  1.0000
  C   C41       1.0  0.55593  0.58806  0.90881  1.0000
  C   C42       1.0  0.94407  0.08806  0.09119  1.0000
  C   C43       1.0  0.44407  0.41195  0.09119  1.0000
  C   C44       1.0  0.05593  0.91194  0.90881  1.0000
  C   C45       1.0  0.64712  0.51345  0.94536  1.0000
  C   C46       1.0  0.85288  0.01345  0.05464  1.0000
  C   C47       1.0  0.35289  0.48655  0.05464  1.0000
  C   C48       1.0  0.14712  0.98655  0.94537  1.0000
  S   S1        1.0  0.60264  0.81033  0.43943  1.0000
  S   S2        1.0  0.89736  0.31034  0.56056  1.0000
  S   S3        1.0  0.39736  0.18966  0.56057  1.0000
  S   S4        1.0  0.10264  0.68966  0.43943  1.0000
  S   S5        1.0  0.88557  0.68999  0.55223  1.0000
  S   S6        1.0  0.61443  0.18999  0.44777  1.0000
  S   S7        1.0  0.11444  0.31001  0.44777  1.0000
  S   S8        1.0  0.38556  0.81001  0.55223  1.0000
  S   S9        1.0  0.66130  0.65448  0.69254  1.0000
  S   S10       1.0  0.83870  0.15448  0.30746  1.0000
  S   S11       1.0  0.33870  0.34552  0.30746  1.0000
  S   S12       1.0  0.16130  0.84552  0.69255  1.0000
  S   S13       1.0  0.66308  0.35382  0.70274  1.0000
  S   S14       1.0  0.83692  0.85382  0.29727  1.0000
  S   S15       1.0  0.33692  0.64618  0.29727  1.0000
  S   S16       1.0  0.16308  0.14618  0.70274  1.0000
  S   S17       1.0  0.62099  0.49924  0.44608  1.0000
  S   S18       1.0  0.87901  0.99923  0.55392  1.0000
  S   S19       1.0  0.37901  0.50076  0.55392  1.0000
  S   S20       1.0  0.12099  0.00076  0.44608  1.0000
  N   N1        1.0  0.58167  0.71030  0.18748  1.0000
  N   N2        1.0  0.91833  0.21030  0.81252  1.0000
  N   N3        1.0  0.41833  0.28971  0.81252  1.0000
  N   N4        1.0  0.08167  0.78970  0.18748  1.0000
  N   N5        1.0  0.77441  0.57608  0.25804  1.0000
  N   N6        1.0  0.72559  0.07608  0.74196  1.0000
  N   N7        1.0  0.22559  0.42392  0.74196  1.0000
  N   N8        1.0  0.27441  0.92392  0.25804  1.0000
