data_image0
_chemical_formula_structural       Nd4H44C52O28
_chemical_formula_sum              "Nd4 H44 C52 O28"
_cell_length_a       7.32643
_cell_length_b       13.185
_cell_length_c       13.592
_cell_angle_alpha    99.0264
_cell_angle_beta     90
_cell_angle_gamma    90

_space_group_name_H-M_alt    "P 1"
_space_group_IT_number       1

loop_
  _space_group_symop_operation_xyz
  'x, y, z'

loop_
  _atom_site_type_symbol
  _atom_site_label
  _atom_site_symmetry_multiplicity
  _atom_site_fract_x
  _atom_site_fract_y
  _atom_site_fract_z
  _atom_site_occupancy
  Nd  Nd1       1.0  0.08599  0.81427  0.52468  1.0000
  Nd  Nd2       1.0  0.58599  0.68573  0.47532  1.0000
  Nd  Nd3       1.0  0.91401  0.18573  0.47532  1.0000
  Nd  Nd4       1.0  0.41401  0.31427  0.52468  1.0000
  H   H1        1.0  0.92079  0.01086  0.65911  1.0000
  H   H2        1.0  0.42079  0.48914  0.34089  1.0000
  H   H3        1.0  0.07921  0.98914  0.34089  1.0000
  H   H4        1.0  0.57921  0.51086  0.65911  1.0000
  H   H5        1.0  0.03564  0.93146  0.71016  1.0000
  H   H6        1.0  0.53564  0.56854  0.28984  1.0000
  H   H7        1.0  0.96436  0.06854  0.28984  1.0000
  H   H8        1.0  0.46436  0.43146  0.71016  1.0000
  H   H9        1.0  0.67505  0.87652  0.74138  1.0000
  H   H10       1.0  0.17505  0.62348  0.25862  1.0000
  H   H11       1.0  0.32495  0.12348  0.25862  1.0000
  H   H12       1.0  0.82495  0.37652  0.74138  1.0000
  H   H13       1.0  0.33455  0.86150  0.87218  1.0000
  H   H14       1.0  0.83455  0.63850  0.12782  1.0000
  H   H15       1.0  0.66545  0.13850  0.12782  1.0000
  H   H16       1.0  0.16545  0.36150  0.87218  1.0000
  H   H17       1.0  0.85416  0.90428  0.87511  1.0000
  H   H18       1.0  0.35416  0.59572  0.12489  1.0000
  H   H19       1.0  0.14584  0.09572  0.12489  1.0000
  H   H20       1.0  0.64584  0.40428  0.87511  1.0000
  H   H21       1.0  0.03892  0.90192  0.02684  1.0000
  H   H22       1.0  0.53892  0.59808  0.97315  1.0000
  H   H23       1.0  0.96108  0.09808  0.97316  1.0000
  H   H24       1.0  0.46108  0.40192  0.02684  1.0000
  H   H25       1.0  0.37035  0.84722  0.03705  1.0000
  H   H26       1.0  0.87035  0.65278  0.96295  1.0000
  H   H27       1.0  0.62965  0.15278  0.96295  1.0000
  H   H28       1.0  0.12965  0.34722  0.03705  1.0000
  H   H29       1.0  0.89278  0.86848  0.18444  1.0000
  H   H30       1.0  0.39278  0.63152  0.81556  1.0000
  H   H31       1.0  0.10722  0.13152  0.81556  1.0000
  H   H32       1.0  0.60722  0.36848  0.18444  1.0000
  H   H33       1.0  0.62526  0.81284  0.26952  1.0000
  H   H34       1.0  0.12526  0.68717  0.73048  1.0000
  H   H35       1.0  0.37474  0.18717  0.73048  1.0000
  H   H36       1.0  0.87474  0.31283  0.26952  1.0000
  H   H37       1.0  0.26102  0.87986  0.18540  1.0000
  H   H38       1.0  0.76101  0.62014  0.81460  1.0000
  H   H39       1.0  0.73898  0.12014  0.81460  1.0000
  H   H40       1.0  0.23899  0.37986  0.18540  1.0000
  H   H41       1.0  0.44026  0.06058  0.56693  1.0000
  H   H42       1.0  0.94026  0.43942  0.43307  1.0000
  H   H43       1.0  0.55974  0.93942  0.43307  1.0000
  H   H44       1.0  0.05974  0.56058  0.56693  1.0000
  C   C1        1.0  0.40108  0.84804  0.68137  1.0000
  C   C2        1.0  0.90107  0.65196  0.31863  1.0000
  C   C3        1.0  0.59893  0.15196  0.31863  1.0000
  C   C4        1.0  0.09893  0.34804  0.68137  1.0000
  C   C5        1.0  0.53338  0.86858  0.76363  1.0000
  C   C6        1.0  0.03338  0.63142  0.23637  1.0000
  C   C7        1.0  0.46663  0.13142  0.23637  1.0000
  C   C8        1.0  0.96662  0.36858  0.76363  1.0000
  C   C9        1.0  0.48052  0.87040  0.85886  1.0000
  C   C10       1.0  0.98052  0.62960  0.14114  1.0000
  C   C11       1.0  0.51948  0.12960  0.14114  1.0000
  C   C12       1.0  0.01948  0.37040  0.85886  1.0000
  C   C13       1.0  0.59746  0.87676  0.94621  1.0000
  C   C14       1.0  0.09746  0.62324  0.05379  1.0000
  C   C15       1.0  0.40254  0.12324  0.05379  1.0000
  C   C16       1.0  0.90255  0.37676  0.94621  1.0000
  C   C17       1.0  0.78789  0.89248  0.94425  1.0000
  C   C18       1.0  0.28789  0.60752  0.05575  1.0000
  C   C19       1.0  0.21211  0.10752  0.05575  1.0000
  C   C20       1.0  0.71211  0.39248  0.94425  1.0000
  C   C21       1.0  0.89177  0.89040  0.02972  1.0000
  C   C22       1.0  0.39177  0.60960  0.97028  1.0000
  C   C23       1.0  0.10823  0.10960  0.97028  1.0000
  C   C24       1.0  0.60823  0.39040  0.02972  1.0000
  C   C25       1.0  0.51688  0.86136  0.03613  1.0000
  C   C26       1.0  0.01688  0.63864  0.96387  1.0000
  C   C27       1.0  0.48312  0.13864  0.96387  1.0000
  C   C28       1.0  0.98311  0.36136  0.03613  1.0000
  C   C29       1.0  0.81011  0.87246  0.11829  1.0000
  C   C30       1.0  0.31011  0.62755  0.88171  1.0000
  C   C31       1.0  0.18989  0.12755  0.88171  1.0000
  C   C32       1.0  0.68989  0.37245  0.11829  1.0000
  C   C33       1.0  0.61998  0.85855  0.12269  1.0000
  C   C34       1.0  0.11997  0.64145  0.87731  1.0000
  C   C35       1.0  0.38003  0.14145  0.87731  1.0000
  C   C36       1.0  0.88003  0.35855  0.12269  1.0000
  C   C37       1.0  0.53496  0.83918  0.21483  1.0000
  C   C38       1.0  0.03495  0.66082  0.78517  1.0000
  C   C39       1.0  0.46504  0.16082  0.78517  1.0000
  C   C40       1.0  0.96504  0.33918  0.21483  1.0000
  C   C41       1.0  0.35562  0.85058  0.23617  1.0000
  C   C42       1.0  0.85562  0.64942  0.76383  1.0000
  C   C43       1.0  0.64438  0.14942  0.76383  1.0000
  C   C44       1.0  0.14438  0.35058  0.23617  1.0000
  C   C45       1.0  0.27333  0.83085  0.32979  1.0000
  C   C46       1.0  0.77333  0.66915  0.67021  1.0000
  C   C47       1.0  0.72667  0.16915  0.67021  1.0000
  C   C48       1.0  0.22667  0.33085  0.32979  1.0000
  C   C49       1.0  0.29580  0.06548  0.54482  1.0000
  C   C50       1.0  0.79580  0.43452  0.45518  1.0000
  C   C51       1.0  0.70420  0.93452  0.45518  1.0000
  C   C52       1.0  0.20420  0.56548  0.54482  1.0000
  O   O1        1.0  0.22950  0.84532  0.69872  1.0000
  O   O2        1.0  0.72950  0.65468  0.30128  1.0000
  O   O3        1.0  0.77050  0.15468  0.30128  1.0000
  O   O4        1.0  0.27050  0.34532  0.69872  1.0000
  O   O5        1.0  0.46141  0.83097  0.59186  1.0000
  O   O6        1.0  0.96141  0.66903  0.40814  1.0000
  O   O7        1.0  0.53859  0.16903  0.40814  1.0000
  O   O8        1.0  0.03859  0.33097  0.59186  1.0000
  O   O9        1.0  0.10941  0.86185  0.34944  1.0000
  O   O10       1.0  0.60941  0.63815  0.65057  1.0000
  O   O11       1.0  0.89059  0.13815  0.65057  1.0000
  O   O12       1.0  0.39059  0.36185  0.34943  1.0000
  O   O13       1.0  0.20129  0.98554  0.52973  1.0000
  O   O14       1.0  0.70129  0.51446  0.47027  1.0000
  O   O15       1.0  0.79870  0.01446  0.47027  1.0000
  O   O16       1.0  0.29870  0.48554  0.52973  1.0000
  O   O17       1.0  0.23529  0.15486  0.53661  1.0000
  O   O18       1.0  0.73529  0.34514  0.46339  1.0000
  O   O19       1.0  0.76471  0.84514  0.46339  1.0000
  O   O20       1.0  0.26471  0.65486  0.53661  1.0000
  O   O21       1.0  0.36046  0.78526  0.39213  1.0000
  O   O22       1.0  0.86046  0.71474  0.60787  1.0000
  O   O23       1.0  0.63954  0.21474  0.60787  1.0000
  O   O24       1.0  0.13954  0.28526  0.39213  1.0000
  O   O25       1.0  0.92863  0.93727  0.66768  1.0000
  O   O26       1.0  0.42862  0.56273  0.33232  1.0000
  O   O27       1.0  0.07138  0.06273  0.33232  1.0000
  O   O28       1.0  0.57138  0.43727  0.66768  1.0000
