data_image0
_chemical_formula_structural       Ag6H26C34N12O12
_chemical_formula_sum              "Ag6 H26 C34 N12 O12"
_cell_length_a       7.29421
_cell_length_b       9.76886
_cell_length_c       13.4076
_cell_angle_alpha    96.9843
_cell_angle_beta     98.237
_cell_angle_gamma    94.1387

_space_group_name_H-M_alt    "P 1"
_space_group_IT_number       1

loop_
  _space_group_symop_operation_xyz
  'x, y, z'

loop_
  _atom_site_type_symbol
  _atom_site_label
  _atom_site_symmetry_multiplicity
  _atom_site_fract_x
  _atom_site_fract_y
  _atom_site_fract_z
  _atom_site_occupancy
  Ag  Ag1       1.0  0.84704  0.95253  0.92611  1.0000
  Ag  Ag2       1.0  0.15297  0.04747  0.07389  1.0000
  Ag  Ag3       1.0  0.42037  0.06464  0.92079  1.0000
  Ag  Ag4       1.0  0.57964  0.93537  0.07922  1.0000
  Ag  Ag5       1.0  0.64407  0.51550  0.42167  1.0000
  Ag  Ag6       1.0  0.35592  0.48450  0.57833  1.0000
  H   H1        1.0  0.69512  0.06751  0.73503  1.0000
  H   H2        1.0  0.30488  0.93248  0.26497  1.0000
  H   H3        1.0  0.90822  0.02977  0.58177  1.0000
  H   H4        1.0  0.09178  0.97023  0.41823  1.0000
  H   H5        1.0  0.46815  0.02046  0.57054  1.0000
  H   H6        1.0  0.53185  0.97953  0.42946  1.0000
  H   H7        1.0  0.06956  0.71325  0.74292  1.0000
  H   H8        1.0  0.93044  0.28675  0.25709  1.0000
  H   H9        1.0  0.86648  0.29164  0.74859  1.0000
  H   H10       1.0  0.13353  0.70836  0.25141  1.0000
  H   H11       1.0  0.26129  0.50404  0.99772  1.0000
  H   H12       1.0  0.73871  0.49597  0.00228  1.0000
  H   H13       1.0  0.05359  0.23475  0.50931  1.0000
  H   H14       1.0  0.94641  0.76525  0.49069  1.0000
  H   H15       1.0  0.07043  0.97771  0.75185  1.0000
  H   H16       1.0  0.92957  0.02229  0.24815  1.0000
  H   H17       1.0  0.33548  0.76904  0.51429  1.0000
  H   H18       1.0  0.66452  0.23095  0.48571  1.0000
  H   H19       1.0  0.67038  0.67157  0.87227  1.0000
  H   H20       1.0  0.32962  0.32842  0.12773  1.0000
  H   H21       1.0  0.51860  0.55020  0.78471  1.0000
  H   H22       1.0  0.48140  0.44980  0.21529  1.0000
  H   H23       1.0  0.57229  0.28641  0.83114  1.0000
  H   H24       1.0  0.42772  0.71359  0.16886  1.0000
  H   H25       1.0  0.59218  0.35379  0.71564  1.0000
  H   H26       1.0  0.40782  0.64621  0.28436  1.0000
  C   C1        1.0  0.62130  0.96551  0.70805  1.0000
  C   C2        1.0  0.37870  0.03448  0.29195  1.0000
  C   C3        1.0  0.03405  0.09069  0.62112  1.0000
  C   C4        1.0  0.96595  0.90931  0.37888  1.0000
  C   C5        1.0  0.50015  0.93888  0.61664  1.0000
  C   C6        1.0  0.49985  0.06111  0.38336  1.0000
  C   C7        1.0  0.04803  0.25479  0.92808  1.0000
  C   C8        1.0  0.95197  0.74522  0.07192  1.0000
  C   C9        1.0  0.17658  0.62184  0.87564  1.0000
  C   C10       1.0  0.82342  0.37816  0.12436  1.0000
  C   C11       1.0  0.06795  0.62073  0.78046  1.0000
  C   C12       1.0  0.93205  0.37927  0.21954  1.0000
  C   C13       1.0  0.95256  0.38497  0.78412  1.0000
  C   C14       1.0  0.04744  0.61503  0.21588  1.0000
  C   C15       1.0  0.17526  0.50278  0.92420  1.0000
  C   C16       1.0  0.82474  0.49722  0.07580  1.0000
  C   C17       1.0  0.11334  0.20182  0.58106  1.0000
  C   C18       1.0  0.88665  0.79818  0.41894  1.0000
  C   C19       1.0  0.06117  0.38380  0.87864  1.0000
  C   C20       1.0  0.93883  0.61621  0.12136  1.0000
  C   C21       1.0  0.29044  0.75272  0.92505  1.0000
  C   C22       1.0  0.70956  0.24729  0.07495  1.0000
  C   C23       1.0  0.56522  0.73993  0.73870  1.0000
  C   C24       1.0  0.43478  0.26007  0.26130  1.0000
  C   C25       1.0  0.12253  0.06236  0.71441  1.0000
  C   C26       1.0  0.87747  0.93764  0.28559  1.0000
  C   C27       1.0  0.83019  0.50049  0.63437  1.0000
  C   C28       1.0  0.16981  0.49951  0.36563  1.0000
  C   C29       1.0  0.34925  0.24068  0.71883  1.0000
  C   C30       1.0  0.65076  0.75932  0.28117  1.0000
  C   C31       1.0  0.42251  0.80306  0.58771  1.0000
  C   C32       1.0  0.57749  0.19694  0.41229  1.0000
  C   C33       1.0  0.95481  0.50226  0.73429  1.0000
  C   C34       1.0  0.04519  0.49774  0.26571  1.0000
  N   N1        1.0  0.58828  0.64600  0.80288  1.0000
  N   N2        1.0  0.41172  0.35399  0.19712  1.0000
  N   N3        1.0  0.26861  0.27722  0.62898  1.0000
  N   N4        1.0  0.73139  0.72277  0.37102  1.0000
  N   N5        1.0  0.65565  0.86858  0.76866  1.0000
  N   N6        1.0  0.34435  0.13142  0.23134  1.0000
  N   N7        1.0  0.50934  0.31479  0.76473  1.0000
  N   N8        1.0  0.49066  0.68521  0.23526  1.0000
  N   N9        1.0  0.45429  0.70310  0.64664  1.0000
  N   N10       1.0  0.54570  0.29689  0.35336  1.0000
  N   N11       1.0  0.27843  0.13585  0.76342  1.0000
  N   N12       1.0  0.72158  0.86414  0.23658  1.0000
  O   O1        1.0  0.26902  0.85809  0.87836  1.0000
  O   O2        1.0  0.73098  0.14191  0.12164  1.0000
  O   O3        1.0  0.92656  0.15858  0.88328  1.0000
  O   O4        1.0  0.07344  0.84142  0.11672  1.0000
  O   O5        1.0  0.15829  0.24963  0.01038  1.0000
  O   O6        1.0  0.84171  0.75038  0.98962  1.0000
  O   O7        1.0  0.69860  0.40194  0.61154  1.0000
  O   O8        1.0  0.30140  0.59806  0.38846  1.0000
  O   O9        1.0  0.85913  0.59455  0.58013  1.0000
  O   O10       1.0  0.14086  0.40546  0.41988  1.0000
  O   O11       1.0  0.39751  0.74845  0.00830  1.0000
  O   O12       1.0  0.60249  0.25155  0.99170  1.0000
