data_image0
_chemical_formula_structural       Na2H42C24S2N4
_chemical_formula_sum              "Na2 H42 C24 S2 N4"
_cell_length_a       5.84569
_cell_length_b       10.9466
_cell_length_c       11.9581
_cell_angle_alpha    62.0671
_cell_angle_beta     86.951
_cell_angle_gamma    81.2543

_space_group_name_H-M_alt    "P 1"
_space_group_IT_number       1

loop_
  _space_group_symop_operation_xyz
  'x, y, z'

loop_
  _atom_site_type_symbol
  _atom_site_label
  _atom_site_symmetry_multiplicity
  _atom_site_fract_x
  _atom_site_fract_y
  _atom_site_fract_z
  _atom_site_occupancy
  Na  Na1       1.0  0.18412  0.65518  0.90581  1.0000
  Na  Na2       1.0  0.81584  0.34481  0.09419  1.0000
  H   H1        1.0  0.86993  0.44376  0.85460  1.0000
  H   H2        1.0  0.13007  0.55621  0.14541  1.0000
  H   H3        1.0  0.78685  0.43751  0.65789  1.0000
  H   H4        1.0  0.21317  0.56248  0.34211  1.0000
  H   H5        1.0  0.09992  0.35776  0.54751  1.0000
  H   H6        1.0  0.90012  0.64225  0.45248  1.0000
  H   H7        1.0  0.50243  0.28174  0.64011  1.0000
  H   H8        1.0  0.49761  0.71828  0.35988  1.0000
  H   H9        1.0  0.58618  0.28616  0.83797  1.0000
  H   H10       1.0  0.41385  0.71384  0.16204  1.0000
  H   H11       1.0  0.56602  0.60118  0.71777  1.0000
  H   H12       1.0  0.43394  0.39880  0.28227  1.0000
  H   H13       1.0  0.61852  0.73873  0.74786  1.0000
  H   H14       1.0  0.38145  0.26127  0.25216  1.0000
  H   H15       1.0  0.61922  0.76390  0.58810  1.0000
  H   H16       1.0  0.38078  0.23607  0.41194  1.0000
  H   H17       1.0  0.99482  0.75153  0.58107  1.0000
  H   H18       1.0  0.00518  0.24848  0.41893  1.0000
  H   H19       1.0  0.22586  0.61176  0.61631  1.0000
  H   H20       1.0  0.77411  0.38824  0.38370  1.0000
  H   H21       1.0  0.24801  0.78079  0.48659  1.0000
  H   H22       1.0  0.75199  0.21920  0.51342  1.0000
  H   H23       1.0  0.04505  0.94151  0.60071  1.0000
  H   H24       1.0  0.95498  0.05851  0.39926  1.0000
  H   H25       1.0  0.32246  0.96989  0.53531  1.0000
  H   H26       1.0  0.67757  0.03010  0.46469  1.0000
  H   H27       1.0  0.46714  0.92559  0.75066  1.0000
  H   H28       1.0  0.53284  0.07441  0.24934  1.0000
  H   H29       1.0  0.26610  0.07871  0.66787  1.0000
  H   H30       1.0  0.73389  0.92129  0.33213  1.0000
  H   H31       1.0  0.80048  0.93612  0.88891  1.0000
  H   H32       1.0  0.19949  0.06389  0.11107  1.0000
  H   H33       1.0  0.82599  0.96379  0.73127  1.0000
  H   H34       1.0  0.17400  0.03622  0.26871  1.0000
  H   H35       1.0  0.88863  0.09594  0.76850  1.0000
  H   H36       1.0  0.11136  0.90407  0.23149  1.0000
  H   H37       1.0  0.13867  0.89153  0.01527  1.0000
  H   H38       1.0  0.86129  0.10847  0.98473  1.0000
  H   H39       1.0  0.24156  0.04771  0.89955  1.0000
  H   H40       1.0  0.75842  0.95228  0.10046  1.0000
  H   H41       1.0  0.41902  0.88048  0.95155  1.0000
  H   H42       1.0  0.58096  0.11950  0.04846  1.0000
  C   C1        1.0  0.23511  0.36225  0.86462  1.0000
  C   C2        1.0  0.76486  0.63777  0.13537  1.0000
  C   C3        1.0  0.00931  0.40441  0.81009  1.0000
  C   C4        1.0  0.99071  0.59558  0.18990  1.0000
  C   C5        1.0  0.96236  0.40230  0.69800  1.0000
  C   C6        1.0  0.03769  0.59771  0.30200  1.0000
  C   C7        1.0  0.13787  0.35771  0.63566  1.0000
  C   C8        1.0  0.86215  0.64231  0.36432  1.0000
  C   C9        1.0  0.36231  0.31650  0.68737  1.0000
  C   C10       1.0  0.63772  0.68353  0.31262  1.0000
  C   C11       1.0  0.41018  0.31851  0.79942  1.0000
  C   C12       1.0  0.58985  0.68150  0.20058  1.0000
  C   C13       1.0  0.53549  0.71478  0.68159  1.0000
  C   C14       1.0  0.46449  0.28520  0.31844  1.0000
  C   C15       1.0  0.18380  0.72432  0.58433  1.0000
  C   C16       1.0  0.81621  0.27567  0.41567  1.0000
  C   C17       1.0  0.23081  0.91276  0.62493  1.0000
  C   C18       1.0  0.76921  0.08725  0.37507  1.0000
  C   C19       1.0  0.28563  0.96288  0.71815  1.0000
  C   C20       1.0  0.71436  0.03712  0.28185  1.0000
  C   C21       1.0  0.90274  0.98161  0.80320  1.0000
  C   C22       1.0  0.09725  0.01839  0.19679  1.0000
  C   C23       1.0  0.24095  0.93552  0.92928  1.0000
  C   C24       1.0  0.75902  0.06448  0.07072  1.0000
  S   S1        1.0  0.29690  0.36542  0.00522  1.0000
  S   S2        1.0  0.70311  0.63457  0.99478  1.0000
  N   N1        1.0  0.28590  0.76134  0.67131  1.0000
  N   N2        1.0  0.71409  0.23865  0.32870  1.0000
  N   N3        1.0  0.14273  0.91304  0.83138  1.0000
  N   N4        1.0  0.85724  0.08697  0.16861  1.0000
