data_image0
_chemical_formula_structural       H36Pb4C24S4N8O8
_chemical_formula_sum              "H36 Pb4 C24 S4 N8 O8"
_cell_length_a       7.56371
_cell_length_b       9.87092
_cell_length_c       12.5485
_cell_angle_alpha    106.144
_cell_angle_beta     90.0002
_cell_angle_gamma    90.0003

_space_group_name_H-M_alt    "P 1"
_space_group_IT_number       1

loop_
  _space_group_symop_operation_xyz
  'x, y, z'

loop_
  _atom_site_type_symbol
  _atom_site_label
  _atom_site_symmetry_multiplicity
  _atom_site_fract_x
  _atom_site_fract_y
  _atom_site_fract_z
  _atom_site_occupancy
  H   H1        1.0  0.31817  0.00788  0.95524  1.0000
  H   H2        1.0  0.81817  0.49212  0.54477  1.0000
  H   H3        1.0  0.68182  0.99212  0.04476  1.0000
  H   H4        1.0  0.18183  0.50788  0.45523  1.0000
  H   H5        1.0  0.52707  0.16798  0.34944  1.0000
  H   H6        1.0  0.02708  0.33202  0.15055  1.0000
  H   H7        1.0  0.47292  0.83202  0.65056  1.0000
  H   H8        1.0  0.97292  0.66798  0.84944  1.0000
  H   H9        1.0  0.62878  0.04824  0.23292  1.0000
  H   H10       1.0  0.12878  0.45176  0.26708  1.0000
  H   H11       1.0  0.37122  0.95177  0.76708  1.0000
  H   H12       1.0  0.87122  0.54823  0.73292  1.0000
  H   H13       1.0  0.77979  0.28908  0.29582  1.0000
  H   H14       1.0  0.27979  0.21092  0.20418  1.0000
  H   H15       1.0  0.22021  0.71092  0.70418  1.0000
  H   H16       1.0  0.72021  0.78908  0.79581  1.0000
  H   H17       1.0  0.82564  0.25478  0.42403  1.0000
  H   H18       1.0  0.32564  0.24522  0.07597  1.0000
  H   H19       1.0  0.17436  0.74522  0.57597  1.0000
  H   H20       1.0  0.67436  0.75478  0.92403  1.0000
  H   H21       1.0  0.07700  0.17788  0.33810  1.0000
  H   H22       1.0  0.57700  0.32213  0.16190  1.0000
  H   H23       1.0  0.92300  0.82212  0.66190  1.0000
  H   H24       1.0  0.42300  0.67788  0.83810  1.0000
  H   H25       1.0  0.98758  0.11360  0.21067  1.0000
  H   H26       1.0  0.48758  0.38639  0.28933  1.0000
  H   H27       1.0  0.01242  0.88640  0.78933  1.0000
  H   H28       1.0  0.51241  0.61360  0.71067  1.0000
  H   H29       1.0  0.41617  0.07800  0.63525  1.0000
  H   H30       1.0  0.91617  0.42200  0.86475  1.0000
  H   H31       1.0  0.58383  0.92201  0.36475  1.0000
  H   H32       1.0  0.08383  0.57800  0.13525  1.0000
  H   H33       1.0  0.33132  0.95023  0.53392  1.0000
  H   H34       1.0  0.83132  0.54977  0.96608  1.0000
  H   H35       1.0  0.66868  0.04977  0.46608  1.0000
  H   H36       1.0  0.16868  0.45023  0.03392  1.0000
  Pb  Pb1       1.0  0.98329  0.88416  0.33495  1.0000
  Pb  Pb2       1.0  0.48330  0.61584  0.16505  1.0000
  Pb  Pb3       1.0  0.01671  0.11584  0.66505  1.0000
  Pb  Pb4       1.0  0.51671  0.38416  0.83495  1.0000
  C   C1        1.0  0.25182  0.81587  0.06585  1.0000
  C   C2        1.0  0.75182  0.68414  0.43416  1.0000
  C   C3        1.0  0.74818  0.18413  0.93416  1.0000
  C   C4        1.0  0.24818  0.31586  0.56584  1.0000
  C   C5        1.0  0.11963  0.90934  0.03124  1.0000
  C   C6        1.0  0.61963  0.59066  0.46877  1.0000
  C   C7        1.0  0.88037  0.09066  0.96876  1.0000
  C   C8        1.0  0.38037  0.40934  0.53124  1.0000
  C   C9        1.0  0.93852  0.90257  0.05725  1.0000
  C   C10       1.0  0.43852  0.59743  0.44275  1.0000
  C   C11       1.0  0.06149  0.09743  0.94275  1.0000
  C   C12       1.0  0.56149  0.40257  0.55725  1.0000
  C   C13       1.0  0.17776  0.00421  0.97443  1.0000
  C   C14       1.0  0.67775  0.49578  0.52557  1.0000
  C   C15       1.0  0.82224  0.99578  0.02557  1.0000
  C   C16       1.0  0.32225  0.50421  0.47443  1.0000
  C   C17       1.0  0.64749  0.10550  0.32069  1.0000
  C   C18       1.0  0.14750  0.39450  0.17931  1.0000
  C   C19       1.0  0.35250  0.89450  0.67931  1.0000
  C   C20       1.0  0.85250  0.60550  0.82069  1.0000
  C   C21       1.0  0.80646  0.20429  0.33513  1.0000
  C   C22       1.0  0.30646  0.29571  0.16487  1.0000
  C   C23       1.0  0.19354  0.79571  0.66487  1.0000
  C   C24       1.0  0.69354  0.70429  0.83513  1.0000
  S   S1        1.0  0.85671  0.78023  0.12379  1.0000
  S   S2        1.0  0.35671  0.71977  0.37621  1.0000
  S   S3        1.0  0.14329  0.21977  0.87621  1.0000
  S   S4        1.0  0.64329  0.28023  0.62379  1.0000
  N   N1        1.0  0.97019  0.12799  0.29369  1.0000
  N   N2        1.0  0.47020  0.37201  0.20631  1.0000
  N   N3        1.0  0.02980  0.87201  0.70630  1.0000
  N   N4        1.0  0.52980  0.62799  0.79369  1.0000
  N   N5        1.0  0.67726  0.00066  0.38251  1.0000
  N   N6        1.0  0.17727  0.49934  0.11749  1.0000
  N   N7        1.0  0.32274  0.99934  0.61749  1.0000
  N   N8        1.0  0.82274  0.50066  0.88251  1.0000
  O   O1        1.0  0.32552  0.71932  0.99088  1.0000
  O   O2        1.0  0.82551  0.78067  0.50911  1.0000
  O   O3        1.0  0.67449  0.28067  0.00911  1.0000
  O   O4        1.0  0.17449  0.21933  0.49089  1.0000
  O   O5        1.0  0.28134  0.84049  0.16996  1.0000
  O   O6        1.0  0.78134  0.65951  0.33004  1.0000
  O   O7        1.0  0.71867  0.15952  0.83004  1.0000
  O   O8        1.0  0.21866  0.34048  0.66996  1.0000
