data_image0
_chemical_formula_structural       Cd4H24C28N24O8
_chemical_formula_sum              "Cd4 H24 C28 N24 O8"
_cell_length_a       6.77439
_cell_length_b       9.85552
_cell_length_c       13.2305
_cell_angle_alpha    89.9998
_cell_angle_beta     89.9997
_cell_angle_gamma    89.9993

_space_group_name_H-M_alt    "P 1"
_space_group_IT_number       1

loop_
  _space_group_symop_operation_xyz
  'x, y, z'

loop_
  _atom_site_type_symbol
  _atom_site_label
  _atom_site_symmetry_multiplicity
  _atom_site_fract_x
  _atom_site_fract_y
  _atom_site_fract_z
  _atom_site_occupancy
  Cd  Cd1       1.0  0.74999  0.86845  0.50000  1.0000
  Cd  Cd2       1.0  0.25000  0.13156  0.00000  1.0000
  Cd  Cd3       1.0  0.25001  0.13156  0.50000  1.0000
  Cd  Cd4       1.0  0.75000  0.86844  1.00000  1.0000
  H   H1        1.0  0.43066  0.87584  0.68446  1.0000
  H   H2        1.0  0.56934  0.12416  0.18446  1.0000
  H   H3        1.0  0.06935  0.87585  0.31555  1.0000
  H   H4        1.0  0.93065  0.12415  0.81555  1.0000
  H   H5        1.0  0.56934  0.12416  0.31554  1.0000
  H   H6        1.0  0.43066  0.87584  0.81554  1.0000
  H   H7        1.0  0.93065  0.12415  0.68445  1.0000
  H   H8        1.0  0.06935  0.87585  0.18445  1.0000
  H   H9        1.0  0.87223  0.34801  0.65052  1.0000
  H   H10       1.0  0.12777  0.65199  0.15051  1.0000
  H   H11       1.0  0.62778  0.34801  0.34949  1.0000
  H   H12       1.0  0.37222  0.65199  0.84949  1.0000
  H   H13       1.0  0.12777  0.65199  0.34948  1.0000
  H   H14       1.0  0.87223  0.34801  0.84949  1.0000
  H   H15       1.0  0.37222  0.65199  0.65051  1.0000
  H   H16       1.0  0.62778  0.34801  0.15052  1.0000
  H   H17       1.0  0.86470  0.60250  0.64465  1.0000
  H   H18       1.0  0.13530  0.39750  0.14465  1.0000
  H   H19       1.0  0.63530  0.60249  0.35535  1.0000
  H   H20       1.0  0.36470  0.39750  0.85535  1.0000
  H   H21       1.0  0.13530  0.39750  0.35535  1.0000
  H   H22       1.0  0.86470  0.60250  0.85535  1.0000
  H   H23       1.0  0.36469  0.39751  0.64464  1.0000
  H   H24       1.0  0.63530  0.60249  0.14465  1.0000
  C   C1        1.0  0.75004  0.17630  0.50001  1.0000
  C   C2        1.0  0.24997  0.82370  0.00000  1.0000
  C   C3        1.0  0.24997  0.82370  0.49999  1.0000
  C   C4        1.0  0.75002  0.17630  1.00000  1.0000
  C   C5        1.0  0.75001  0.32847  0.50000  1.0000
  C   C6        1.0  0.25000  0.67153  1.00000  1.0000
  C   C7        1.0  0.24999  0.67153  0.50000  1.0000
  C   C8        1.0  0.75000  0.32847  0.00000  1.0000
  C   C9        1.0  0.81753  0.40110  0.58390  1.0000
  C   C10       1.0  0.18247  0.59890  0.08390  1.0000
  C   C11       1.0  0.68248  0.40110  0.41610  1.0000
  C   C12       1.0  0.31753  0.59890  0.91610  1.0000
  C   C13       1.0  0.18247  0.59890  0.41610  1.0000
  C   C14       1.0  0.81754  0.40109  0.91610  1.0000
  C   C15       1.0  0.31752  0.59890  0.58390  1.0000
  C   C16       1.0  0.68248  0.40109  0.08390  1.0000
  C   C17       1.0  0.81331  0.54211  0.58086  1.0000
  C   C18       1.0  0.18670  0.45789  0.08085  1.0000
  C   C19       1.0  0.68670  0.54211  0.41915  1.0000
  C   C20       1.0  0.31330  0.45789  0.91915  1.0000
  C   C21       1.0  0.18669  0.45789  0.41914  1.0000
  C   C22       1.0  0.81331  0.54211  0.91915  1.0000
  C   C23       1.0  0.31330  0.45789  0.58085  1.0000
  C   C24       1.0  0.68670  0.54211  0.08085  1.0000
  C   C25       1.0  0.69825  0.85108  0.75000  1.0000
  C   C26       1.0  0.30175  0.14892  0.25000  1.0000
  C   C27       1.0  0.80178  0.85108  0.25000  1.0000
  C   C28       1.0  0.19822  0.14892  0.75000  1.0000
  N   N1        1.0  0.75000  0.61245  0.50000  1.0000
  N   N2        1.0  0.25000  0.38755  0.00000  1.0000
  N   N3        1.0  0.25000  0.38755  0.50000  1.0000
  N   N4        1.0  0.75000  0.61244  1.00000  1.0000
  N   N5        1.0  0.49817  0.84683  0.74999  1.0000
  N   N6        1.0  0.50183  0.15317  0.25000  1.0000
  N   N7        1.0  0.00181  0.84683  0.25000  1.0000
  N   N8        1.0  0.99819  0.15317  0.75000  1.0000
  N   N9        1.0  0.81425  0.84755  0.66696  1.0000
  N   N10       1.0  0.18575  0.15246  0.16696  1.0000
  N   N11       1.0  0.68575  0.84755  0.33304  1.0000
  N   N12       1.0  0.31425  0.15245  0.83304  1.0000
  N   N13       1.0  0.18575  0.15245  0.33304  1.0000
  N   N14       1.0  0.81425  0.84755  0.83304  1.0000
  N   N15       1.0  0.31425  0.15245  0.66696  1.0000
  N   N16       1.0  0.68575  0.84755  0.16696  1.0000
  N   N17       1.0  0.00439  0.83815  0.70095  1.0000
  N   N18       1.0  0.99561  0.16185  0.20096  1.0000
  N   N19       1.0  0.49561  0.83815  0.29904  1.0000
  N   N20       1.0  0.50439  0.16185  0.79904  1.0000
  N   N21       1.0  0.99561  0.16185  0.29905  1.0000
  N   N22       1.0  0.00439  0.83815  0.79904  1.0000
  N   N23       1.0  0.50439  0.16185  0.70096  1.0000
  N   N24       1.0  0.49561  0.83815  0.20096  1.0000
  O   O1        1.0  0.89589  0.11378  0.53874  1.0000
  O   O2        1.0  0.10411  0.88622  0.03873  1.0000
  O   O3        1.0  0.60411  0.11377  0.46126  1.0000
  O   O4        1.0  0.39589  0.88623  0.96126  1.0000
  O   O5        1.0  0.10411  0.88622  0.46126  1.0000
  O   O6        1.0  0.89588  0.11378  0.96127  1.0000
  O   O7        1.0  0.39589  0.88623  0.53873  1.0000
  O   O8        1.0  0.60410  0.11377  0.03874  1.0000
