data_image0
_chemical_formula_structural       Zn4H60C48Br4N20Cl4O4
_chemical_formula_sum              "Zn4 H60 C48 Br4 N20 Cl4 O4"
_cell_length_a       7.20898
_cell_length_b       9.34534
_cell_length_c       22.685
_cell_angle_alpha    90
_cell_angle_beta     90
_cell_angle_gamma    94.9068

_space_group_name_H-M_alt    "P 1"
_space_group_IT_number       1

loop_
  _space_group_symop_operation_xyz
  'x, y, z'

loop_
  _atom_site_type_symbol
  _atom_site_label
  _atom_site_symmetry_multiplicity
  _atom_site_fract_x
  _atom_site_fract_y
  _atom_site_fract_z
  _atom_site_occupancy
  Zn  Zn1       1.0  0.18388  0.31602  0.25867  1.0000
  Zn  Zn2       1.0  0.31612  0.68398  0.75867  1.0000
  Zn  Zn3       1.0  0.81612  0.68398  0.74133  1.0000
  Zn  Zn4       1.0  0.68388  0.31602  0.24133  1.0000
  H   H1        1.0  0.18398  0.62471  0.00330  1.0000
  H   H2        1.0  0.31602  0.37528  0.50330  1.0000
  H   H3        1.0  0.81602  0.37529  0.99670  1.0000
  H   H4        1.0  0.68397  0.62471  0.49670  1.0000
  H   H5        1.0  0.12714  0.84337  0.16835  1.0000
  H   H6        1.0  0.37286  0.15663  0.66835  1.0000
  H   H7        1.0  0.87286  0.15663  0.83165  1.0000
  H   H8        1.0  0.62715  0.84337  0.33165  1.0000
  H   H9        1.0  0.15909  0.74156  0.25503  1.0000
  H   H10       1.0  0.34091  0.25844  0.75503  1.0000
  H   H11       1.0  0.84091  0.25844  0.74497  1.0000
  H   H12       1.0  0.65909  0.74156  0.24497  1.0000
  H   H13       1.0  0.03612  0.59161  0.34905  1.0000
  H   H14       1.0  0.46388  0.40838  0.84905  1.0000
  H   H15       1.0  0.96389  0.40839  0.65095  1.0000
  H   H16       1.0  0.53611  0.59161  0.15095  1.0000
  H   H17       1.0  0.27309  0.65979  0.35023  1.0000
  H   H18       1.0  0.22691  0.34021  0.85023  1.0000
  H   H19       1.0  0.72691  0.34020  0.64977  1.0000
  H   H20       1.0  0.77309  0.65980  0.14977  1.0000
  H   H21       1.0  0.37579  0.42548  0.37436  1.0000
  H   H22       1.0  0.12421  0.57452  0.87436  1.0000
  H   H23       1.0  0.62421  0.57451  0.62564  1.0000
  H   H24       1.0  0.87579  0.42549  0.12564  1.0000
  H   H25       1.0  0.18921  0.45722  0.42252  1.0000
  H   H26       1.0  0.31079  0.54278  0.92252  1.0000
  H   H27       1.0  0.81078  0.54278  0.57748  1.0000
  H   H28       1.0  0.68921  0.45722  0.07748  1.0000
  H   H29       1.0  0.15641  0.20086  0.43621  1.0000
  H   H30       1.0  0.34359  0.79913  0.93621  1.0000
  H   H31       1.0  0.84359  0.79914  0.56379  1.0000
  H   H32       1.0  0.65641  0.20087  0.06379  1.0000
  H   H33       1.0  0.32604  0.16598  0.38288  1.0000
  H   H34       1.0  0.17396  0.83402  0.88288  1.0000
  H   H35       1.0  0.67396  0.83402  0.61712  1.0000
  H   H36       1.0  0.82604  0.16598  0.11713  1.0000
  H   H37       1.0  0.07960  0.01506  0.32599  1.0000
  H   H38       1.0  0.42040  0.98493  0.82599  1.0000
  H   H39       1.0  0.92039  0.98493  0.67401  1.0000
  H   H40       1.0  0.57961  0.01507  0.17401  1.0000
  H   H41       1.0  0.91105  0.05812  0.37813  1.0000
  H   H42       1.0  0.58895  0.94188  0.87813  1.0000
  H   H43       1.0  0.08895  0.94188  0.62187  1.0000
  H   H44       1.0  0.41105  0.05812  0.12187  1.0000
  H   H45       1.0  0.25606  0.89484  0.40442  1.0000
  H   H46       1.0  0.24394  0.10515  0.90442  1.0000
  H   H47       1.0  0.74394  0.10516  0.59558  1.0000
  H   H48       1.0  0.75606  0.89485  0.09558  1.0000
  H   H49       1.0  0.02271  0.81711  0.39939  1.0000
  H   H50       1.0  0.47729  0.18289  0.89939  1.0000
  H   H51       1.0  0.97729  0.18289  0.60061  1.0000
  H   H52       1.0  0.52271  0.81711  0.10061  1.0000
  H   H53       1.0  0.08886  0.93697  0.45773  1.0000
  H   H54       1.0  0.41114  0.06303  0.95773  1.0000
  H   H55       1.0  0.91113  0.06304  0.54228  1.0000
  H   H56       1.0  0.58886  0.93697  0.04227  1.0000
  H   H57       1.0  0.98724  0.30997  0.35538  1.0000
  H   H58       1.0  0.51276  0.69003  0.85538  1.0000
  H   H59       1.0  0.01276  0.69003  0.64462  1.0000
  H   H60       1.0  0.48724  0.30997  0.14462  1.0000
  C   C1        1.0  0.17989  0.61986  0.17524  1.0000
  C   C2        1.0  0.32011  0.38014  0.67524  1.0000
  C   C3        1.0  0.82012  0.38014  0.82476  1.0000
  C   C4        1.0  0.67989  0.61986  0.32476  1.0000
  C   C5        1.0  0.21183  0.48861  0.14478  1.0000
  C   C6        1.0  0.28817  0.51139  0.64478  1.0000
  C   C7        1.0  0.78817  0.51139  0.85522  1.0000
  C   C8        1.0  0.71183  0.48861  0.35522  1.0000
  C   C9        1.0  0.21403  0.49892  0.08163  1.0000
  C   C10       1.0  0.28598  0.50107  0.58163  1.0000
  C   C11       1.0  0.78598  0.50108  0.91837  1.0000
  C   C12       1.0  0.71402  0.49892  0.41837  1.0000
  C   C13       1.0  0.18389  0.62327  0.05125  1.0000
  C   C14       1.0  0.31611  0.37672  0.55125  1.0000
  C   C15       1.0  0.81611  0.37673  0.94875  1.0000
  C   C16       1.0  0.68388  0.62327  0.44875  1.0000
  C   C17       1.0  0.15292  0.74825  0.08285  1.0000
  C   C18       1.0  0.34709  0.25175  0.58285  1.0000
  C   C19       1.0  0.84709  0.25175  0.91715  1.0000
  C   C20       1.0  0.65291  0.74825  0.41715  1.0000
  C   C21       1.0  0.15194  0.74673  0.14372  1.0000
  C   C22       1.0  0.34807  0.25327  0.64372  1.0000
  C   C23       1.0  0.84807  0.25327  0.85628  1.0000
  C   C24       1.0  0.65194  0.74673  0.35628  1.0000
  C   C25       1.0  0.17625  0.63268  0.23858  1.0000
  C   C26       1.0  0.32375  0.36732  0.73858  1.0000
  C   C27       1.0  0.82376  0.36732  0.76142  1.0000
  C   C28       1.0  0.67625  0.63268  0.26142  1.0000
  C   C29       1.0  0.17857  0.56510  0.33912  1.0000
  C   C30       1.0  0.32143  0.43490  0.83912  1.0000
  C   C31       1.0  0.82144  0.43490  0.66088  1.0000
  C   C32       1.0  0.67856  0.56511  0.16088  1.0000
  C   C33       1.0  0.22570  0.43746  0.37616  1.0000
  C   C34       1.0  0.27430  0.56254  0.87616  1.0000
  C   C35       1.0  0.77430  0.56254  0.62384  1.0000
  C   C36       1.0  0.72570  0.43746  0.12384  1.0000
  C   C37       1.0  0.17668  0.17856  0.38886  1.0000
  C   C38       1.0  0.32332  0.82144  0.88886  1.0000
  C   C39       1.0  0.82332  0.82144  0.61114  1.0000
  C   C40       1.0  0.67668  0.17856  0.11114  1.0000
  C   C41       1.0  0.05942  0.04103  0.37267  1.0000
  C   C42       1.0  0.44058  0.95896  0.87267  1.0000
  C   C43       1.0  0.94058  0.95897  0.62733  1.0000
  C   C44       1.0  0.55942  0.04104  0.12733  1.0000
  C   C45       1.0  0.10956  0.91526  0.41066  1.0000
  C   C46       1.0  0.39044  0.08474  0.91066  1.0000
  C   C47       1.0  0.89043  0.08474  0.58935  1.0000
  C   C48       1.0  0.60956  0.91526  0.08934  1.0000
  Br  Br1       1.0  0.25736  0.33096  0.03781  1.0000
  Br  Br2       1.0  0.24264  0.66903  0.53780  1.0000
  Br  Br3       1.0  0.74264  0.66903  0.96220  1.0000
  Br  Br4       1.0  0.75735  0.33096  0.46220  1.0000
  N   N1        1.0  0.19096  0.53048  0.27641  1.0000
  N   N2        1.0  0.30904  0.46951  0.77641  1.0000
  N   N3        1.0  0.80905  0.46952  0.72359  1.0000
  N   N4        1.0  0.69095  0.53049  0.22359  1.0000
  N   N5        1.0  0.12947  0.30314  0.35374  1.0000
  N   N6        1.0  0.37053  0.69685  0.85374  1.0000
  N   N7        1.0  0.87053  0.69685  0.64626  1.0000
  N   N8        1.0  0.62947  0.30315  0.14626  1.0000
  N   N9        1.0  0.42372  0.20654  0.26165  1.0000
  N   N10       1.0  0.07629  0.79346  0.76165  1.0000
  N   N11       1.0  0.57628  0.79345  0.73835  1.0000
  N   N12       1.0  0.92371  0.20654  0.23835  1.0000
  N   N13       1.0  0.41340  0.07757  0.26947  1.0000
  N   N14       1.0  0.08660  0.92244  0.76947  1.0000
  N   N15       1.0  0.58660  0.92244  0.73053  1.0000
  N   N16       1.0  0.91340  0.07757  0.23053  1.0000
  N   N17       1.0  0.40430  0.95410  0.27644  1.0000
  N   N18       1.0  0.09571  0.04590  0.77644  1.0000
  N   N19       1.0  0.59571  0.04590  0.72356  1.0000
  N   N20       1.0  0.90429  0.95410  0.22356  1.0000
  Cl  Cl1       1.0  0.12158  0.90525  0.04485  1.0000
  Cl  Cl2       1.0  0.37843  0.09474  0.54485  1.0000
  Cl  Cl3       1.0  0.87842  0.09475  0.95515  1.0000
  Cl  Cl4       1.0  0.62157  0.90525  0.45515  1.0000
  O   O1        1.0  0.24138  0.36906  0.17086  1.0000
  O   O2        1.0  0.25862  0.63094  0.67086  1.0000
  O   O3        1.0  0.75863  0.63094  0.82914  1.0000
  O   O4        1.0  0.74138  0.36906  0.32914  1.0000
