data_image0
_chemical_formula_structural       Zn2P4H48C52I4O4
_chemical_formula_sum              "Zn2 P4 H48 C52 I4 O4"
_cell_length_a       8.77279
_cell_length_b       11.5614
_cell_length_c       15.1824
_cell_angle_alpha    68.9448
_cell_angle_beta     88.5288
_cell_angle_gamma    73.7054

_space_group_name_H-M_alt    "P 1"
_space_group_IT_number       1

loop_
  _space_group_symop_operation_xyz
  'x, y, z'

loop_
  _atom_site_type_symbol
  _atom_site_label
  _atom_site_symmetry_multiplicity
  _atom_site_fract_x
  _atom_site_fract_y
  _atom_site_fract_z
  _atom_site_occupancy
  Zn  Zn1       1.0  0.50927  0.94572  0.75708  1.0000
  Zn  Zn2       1.0  0.49072  0.05428  0.24292  1.0000
  P   P1        1.0  0.47896  0.81655  0.99069  1.0000
  P   P2        1.0  0.52104  0.18345  0.00931  1.0000
  P   P3        1.0  0.49297  0.81340  0.60752  1.0000
  P   P4        1.0  0.50703  0.18660  0.39248  1.0000
  H   H1        1.0  0.33883  0.85966  0.16195  1.0000
  H   H2        1.0  0.66118  0.14034  0.83805  1.0000
  H   H3        1.0  0.06809  0.87592  0.21378  1.0000
  H   H4        1.0  0.93191  0.12408  0.78622  1.0000
  H   H5        1.0  0.86134  0.85226  0.11948  1.0000
  H   H6        1.0  0.13866  0.14775  0.88052  1.0000
  H   H7        1.0  0.92441  0.81756  0.96649  1.0000
  H   H8        1.0  0.07559  0.18244  0.03351  1.0000
  H   H9        1.0  0.19575  0.80361  0.91279  1.0000
  H   H10       1.0  0.80425  0.19639  0.08721  1.0000
  H   H11       1.0  0.58145  0.89375  0.09615  1.0000
  H   H12       1.0  0.41854  0.10625  0.90385  1.0000
  H   H13       1.0  0.67060  0.92568  0.98716  1.0000
  H   H14       1.0  0.32941  0.07432  0.01284  1.0000
  H   H15       1.0  0.72245  0.64097  0.93057  1.0000
  H   H16       1.0  0.27754  0.35903  0.06942  1.0000
  H   H17       1.0  0.91298  0.42475  0.01951  1.0000
  H   H18       1.0  0.08702  0.57525  0.98048  1.0000
  H   H19       1.0  0.91371  0.32416  0.19432  1.0000
  H   H20       1.0  0.08629  0.67583  0.80568  1.0000
  H   H21       1.0  0.71955  0.43705  0.28092  1.0000
  H   H22       1.0  0.28045  0.56295  0.71908  1.0000
  H   H23       1.0  0.52665  0.65018  0.19320  1.0000
  H   H24       1.0  0.47335  0.34982  0.80680  1.0000
  H   H25       1.0  0.15240  0.88609  0.61364  1.0000
  H   H26       1.0  0.84760  0.11391  0.38635  1.0000
  H   H27       1.0  0.93538  0.85926  0.52830  1.0000
  H   H28       1.0  0.06462  0.14074  0.47170  1.0000
  H   H29       1.0  0.99946  0.74441  0.41477  1.0000
  H   H30       1.0  0.00054  0.25559  0.58523  1.0000
  H   H31       1.0  0.28243  0.65027  0.39091  1.0000
  H   H32       1.0  0.71757  0.34973  0.60909  1.0000
  H   H33       1.0  0.50006  0.67680  0.47582  1.0000
  H   H34       1.0  0.49994  0.32320  0.52418  1.0000
  H   H35       1.0  0.76836  0.70042  0.51635  1.0000
  H   H36       1.0  0.23164  0.29959  0.48366  1.0000
  H   H37       1.0  0.00272  0.50798  0.58361  1.0000
  H   H38       1.0  0.99728  0.49202  0.41639  1.0000
  H   H39       1.0  0.02610  0.36713  0.75317  1.0000
  H   H40       1.0  0.97390  0.63286  0.24683  1.0000
  H   H41       1.0  0.81365  0.41781  0.85697  1.0000
  H   H42       1.0  0.18635  0.58219  0.14303  1.0000
  H   H43       1.0  0.58064  0.61459  0.79135  1.0000
  H   H44       1.0  0.41936  0.38541  0.20865  1.0000
  H   H45       1.0  0.66782  0.94297  0.55440  1.0000
  H   H46       1.0  0.33218  0.05703  0.44560  1.0000
  H   H47       1.0  0.60716  0.90042  0.46136  1.0000
  H   H48       1.0  0.39284  0.09958  0.53864  1.0000
  C   C1        1.0  0.24967  0.84842  0.11925  1.0000
  C   C2        1.0  0.75033  0.15158  0.88075  1.0000
  C   C3        1.0  0.09666  0.85743  0.14887  1.0000
  C   C4        1.0  0.90334  0.14258  0.85113  1.0000
  C   C5        1.0  0.98004  0.84527  0.09470  1.0000
  C   C6        1.0  0.01996  0.15474  0.90530  1.0000
  C   C7        1.0  0.01522  0.82487  0.01034  1.0000
  C   C8        1.0  0.98478  0.17514  0.98966  1.0000
  C   C9        1.0  0.16771  0.81665  0.97959  1.0000
  C   C10       1.0  0.83230  0.18336  0.02041  1.0000
  C   C11       1.0  0.28536  0.82759  0.03441  1.0000
  C   C12       1.0  0.71464  0.17242  0.96559  1.0000
  C   C13       1.0  0.55562  0.93092  0.01858  1.0000
  C   C14       1.0  0.44438  0.06908  0.98142  1.0000
  C   C15       1.0  0.61273  0.65906  0.05617  1.0000
  C   C16       1.0  0.38727  0.34094  0.94384  1.0000
  C   C17       1.0  0.72183  0.59555  0.00718  1.0000
  C   C18       1.0  0.27817  0.40445  0.99282  1.0000
  C   C19       1.0  0.82866  0.47465  0.05737  1.0000
  C   C20       1.0  0.17134  0.52535  0.94263  1.0000
  C   C21       1.0  0.82827  0.41788  0.15558  1.0000
  C   C22       1.0  0.17173  0.58212  0.84442  1.0000
  C   C23       1.0  0.71981  0.48139  0.20426  1.0000
  C   C24       1.0  0.28018  0.51861  0.79574  1.0000
  C   C25       1.0  0.61156  0.60161  0.15479  1.0000
  C   C26       1.0  0.38844  0.39838  0.84521  1.0000
  C   C27       1.0  0.18010  0.83525  0.56442  1.0000
  C   C28       1.0  0.81991  0.16475  0.43558  1.0000
  C   C29       1.0  0.05870  0.81967  0.51625  1.0000
  C   C30       1.0  0.94130  0.18033  0.48375  1.0000
  C   C31       1.0  0.09530  0.75403  0.45358  1.0000
  C   C32       1.0  0.90471  0.24597  0.54642  1.0000
  C   C33       1.0  0.25407  0.70185  0.43968  1.0000
  C   C34       1.0  0.74593  0.29814  0.56032  1.0000
  C   C35       1.0  0.37652  0.71652  0.48768  1.0000
  C   C36       1.0  0.62348  0.28348  0.51232  1.0000
  C   C37       1.0  0.33943  0.78408  0.54965  1.0000
  C   C38       1.0  0.66057  0.21592  0.45035  1.0000
  C   C39       1.0  0.65974  0.66979  0.65007  1.0000
  C   C40       1.0  0.34026  0.33021  0.34993  1.0000
  C   C41       1.0  0.77764  0.63935  0.59114  1.0000
  C   C42       1.0  0.22236  0.36065  0.40886  1.0000
  C   C43       1.0  0.90914  0.53037  0.62872  1.0000
  C   C44       1.0  0.09087  0.46963  0.37129  1.0000
  C   C45       1.0  0.92239  0.45149  0.72426  1.0000
  C   C46       1.0  0.07760  0.54851  0.27574  1.0000
  C   C47       1.0  0.80355  0.48043  0.78261  1.0000
  C   C48       1.0  0.19645  0.51956  0.21739  1.0000
  C   C49       1.0  0.67248  0.58976  0.74602  1.0000
  C   C50       1.0  0.32751  0.41024  0.25399  1.0000
  C   C51       1.0  0.56509  0.93527  0.51889  1.0000
  C   C52       1.0  0.43491  0.06472  0.48111  1.0000
  I   I1        1.0  0.32850  0.18293  0.70450  1.0000
  I   I2        1.0  0.67150  0.81707  0.29550  1.0000
  I   I3        1.0  0.80997  0.90969  0.74461  1.0000
  I   I4        1.0  0.19003  0.09031  0.25539  1.0000
  O   O1        1.0  0.46857  0.84004  0.88576  1.0000
  O   O2        1.0  0.53142  0.15997  0.11424  1.0000
  O   O3        1.0  0.42243  0.85819  0.68679  1.0000
  O   O4        1.0  0.57756  0.14181  0.31321  1.0000
