data_image0
_chemical_formula_structural       Cd2Ni2H20C28N12O4
_chemical_formula_sum              "Cd2 Ni2 H20 C28 N12 O4"
_cell_length_a       7.85432
_cell_length_b       10.5272
_cell_length_c       10.5503
_cell_angle_alpha    89.9999
_cell_angle_beta     101.057
_cell_angle_gamma    90.0002

_space_group_name_H-M_alt    "P 1"
_space_group_IT_number       1

loop_
  _space_group_symop_operation_xyz
  'x, y, z'

loop_
  _atom_site_type_symbol
  _atom_site_label
  _atom_site_symmetry_multiplicity
  _atom_site_fract_x
  _atom_site_fract_y
  _atom_site_fract_z
  _atom_site_occupancy
  Cd  Cd1       1.0  0.50000  0.00000  0.50000  1.0000
  Cd  Cd2       1.0  0.50000  0.50000  0.00000  1.0000
  Ni  Ni1       1.0  0.49999  0.50000  0.50000  1.0000
  Ni  Ni2       1.0  0.50000  0.00000  1.00000  1.0000
  H   H1        1.0  0.12801  0.39611  0.84649  1.0000
  H   H2        1.0  0.87199  0.89611  0.65351  1.0000
  H   H3        1.0  0.87199  0.60389  0.15351  1.0000
  H   H4        1.0  0.12801  0.10389  0.34649  1.0000
  H   H5        1.0  0.12277  0.09622  0.58144  1.0000
  H   H6        1.0  0.87723  0.59622  0.91856  1.0000
  H   H7        1.0  0.87723  0.90378  0.41856  1.0000
  H   H8        1.0  0.12277  0.40378  0.08144  1.0000
  H   H9        1.0  0.66387  0.19452  0.73332  1.0000
  H   H10       1.0  0.33612  0.69452  0.76667  1.0000
  H   H11       1.0  0.33612  0.80548  0.26668  1.0000
  H   H12       1.0  0.66388  0.30548  0.23333  1.0000
  H   H13       1.0  0.83885  0.36526  0.86221  1.0000
  H   H14       1.0  0.16115  0.86526  0.63779  1.0000
  H   H15       1.0  0.16116  0.63473  0.13779  1.0000
  H   H16       1.0  0.83884  0.13474  0.36221  1.0000
  H   H17       1.0  0.27857  0.27287  0.71623  1.0000
  H   H18       1.0  0.72143  0.77288  0.78377  1.0000
  H   H19       1.0  0.72143  0.72713  0.28377  1.0000
  H   H20       1.0  0.27857  0.22712  0.21623  1.0000
  C   C1        1.0  0.05608  0.15446  0.64197  1.0000
  C   C2        1.0  0.94392  0.65446  0.85803  1.0000
  C   C3        1.0  0.94391  0.84554  0.35803  1.0000
  C   C4        1.0  0.05609  0.34554  0.14197  1.0000
  C   C5        1.0  0.79884  0.20869  0.72663  1.0000
  C   C6        1.0  0.20116  0.70869  0.77337  1.0000
  C   C7        1.0  0.20116  0.79130  0.27337  1.0000
  C   C8        1.0  0.79884  0.29131  0.22663  1.0000
  C   C9        1.0  0.89331  0.30265  0.79815  1.0000
  C   C10       1.0  0.10669  0.80265  0.70185  1.0000
  C   C11       1.0  0.10670  0.69735  0.20185  1.0000
  C   C12       1.0  0.89330  0.19735  0.29815  1.0000
  C   C13       1.0  0.46450  0.32737  0.49291  1.0000
  C   C14       1.0  0.53550  0.82738  0.00708  1.0000
  C   C15       1.0  0.53549  0.67262  0.50708  1.0000
  C   C16       1.0  0.46451  0.17263  0.99292  1.0000
  C   C17       1.0  0.14315  0.25041  0.71522  1.0000
  C   C18       1.0  0.85686  0.75041  0.78478  1.0000
  C   C19       1.0  0.85685  0.74959  0.28478  1.0000
  C   C20       1.0  0.14315  0.24959  0.21523  1.0000
  C   C21       1.0  0.87808  0.12925  0.64486  1.0000
  C   C22       1.0  0.12192  0.62925  0.85514  1.0000
  C   C23       1.0  0.12192  0.87075  0.35514  1.0000
  C   C24       1.0  0.87809  0.37075  0.14486  1.0000
  C   C25       1.0  0.52541  0.49443  0.67646  1.0000
  C   C26       1.0  0.47459  0.99443  0.82354  1.0000
  C   C27       1.0  0.47459  0.50558  0.32354  1.0000
  C   C28       1.0  0.52541  0.00557  0.17645  1.0000
  N   N1        1.0  0.06193  0.32251  0.79187  1.0000
  N   N2        1.0  0.93807  0.82251  0.70813  1.0000
  N   N3        1.0  0.93807  0.67749  0.20813  1.0000
  N   N4        1.0  0.06193  0.17749  0.29187  1.0000
  N   N5        1.0  0.44197  0.21724  0.48939  1.0000
  N   N6        1.0  0.55803  0.71722  0.01061  1.0000
  N   N7        1.0  0.55803  0.78278  0.51061  1.0000
  N   N8        1.0  0.44198  0.28277  0.98939  1.0000
  N   N9        1.0  0.54102  0.49122  0.78911  1.0000
  N   N10       1.0  0.45898  0.99122  0.71088  1.0000
  N   N11       1.0  0.45898  0.50878  0.21089  1.0000
  N   N12       1.0  0.54102  0.00878  0.28911  1.0000
  O   O1        1.0  0.79709  0.03646  0.57697  1.0000
  O   O2        1.0  0.20291  0.53646  0.92303  1.0000
  O   O3        1.0  0.20291  0.96354  0.42304  1.0000
  O   O4        1.0  0.79709  0.46355  0.07697  1.0000
