data_image0
_chemical_formula_structural       Cu8H40W2C44S8N12
_chemical_formula_sum              "Cu8 H40 W2 C44 S8 N12"
_cell_length_a       12.088
_cell_length_b       12.0686
_cell_length_c       12.307
_cell_angle_alpha    68.0184
_cell_angle_beta     61.1541
_cell_angle_gamma    60.0465

_space_group_name_H-M_alt    "P 1"
_space_group_IT_number       1

loop_
  _space_group_symop_operation_xyz
  'x, y, z'

loop_
  _atom_site_type_symbol
  _atom_site_label
  _atom_site_symmetry_multiplicity
  _atom_site_fract_x
  _atom_site_fract_y
  _atom_site_fract_z
  _atom_site_occupancy
  Cu  Cu1       1.0  0.48608  0.74938  0.25107  1.0000
  Cu  Cu2       1.0  0.51391  0.25062  0.74894  1.0000
  Cu  Cu3       1.0  0.93617  0.74849  0.25096  1.0000
  Cu  Cu4       1.0  0.06383  0.25151  0.74904  1.0000
  Cu  Cu5       1.0  0.65040  0.99869  0.12217  1.0000
  Cu  Cu6       1.0  0.77256  0.49941  0.37870  1.0000
  Cu  Cu7       1.0  0.34960  0.00131  0.87783  1.0000
  Cu  Cu8       1.0  0.22744  0.50058  0.62130  1.0000
  H   H1        1.0  0.11932  0.57439  0.05936  1.0000
  H   H2        1.0  0.75564  0.92448  0.44041  1.0000
  H   H3        1.0  0.88068  0.42561  0.94064  1.0000
  H   H4        1.0  0.24435  0.07553  0.55959  1.0000
  H   H5        1.0  0.36246  0.41379  0.98770  1.0000
  H   H6        1.0  0.76567  0.08755  0.51127  1.0000
  H   H7        1.0  0.63754  0.58621  0.01230  1.0000
  H   H8        1.0  0.23432  0.91246  0.48873  1.0000
  H   H9        1.0  0.51340  0.36726  0.09826  1.0000
  H   H10       1.0  0.97792  0.13523  0.40125  1.0000
  H   H11       1.0  0.48660  0.63274  0.90174  1.0000
  H   H12       1.0  0.02207  0.86478  0.59875  1.0000
  H   H13       1.0  0.41314  0.48858  0.27505  1.0000
  H   H14       1.0  0.17421  0.01292  0.22587  1.0000
  H   H15       1.0  0.58687  0.51142  0.72496  1.0000
  H   H16       1.0  0.82578  0.98709  0.77413  1.0000
  H   H17       1.0  0.17108  0.64396  0.33398  1.0000
  H   H18       1.0  0.14745  0.85490  0.16784  1.0000
  H   H19       1.0  0.82893  0.35605  0.66601  1.0000
  H   H20       1.0  0.85254  0.14511  0.83216  1.0000
  H   H21       1.0  0.49045  0.11690  0.36361  1.0000
  H   H22       1.0  0.97021  0.38254  0.13651  1.0000
  H   H23       1.0  0.50955  0.88310  0.63639  1.0000
  H   H24       1.0  0.02978  0.61746  0.86350  1.0000
  H   H25       1.0  0.49150  0.27873  0.44407  1.0000
  H   H26       1.0  0.21248  0.22341  0.05535  1.0000
  H   H27       1.0  0.50851  0.72127  0.55593  1.0000
  H   H28       1.0  0.78752  0.77658  0.94466  1.0000
  H   H29       1.0  0.68152  0.35902  0.32154  1.0000
  H   H30       1.0  0.36170  0.14341  0.17847  1.0000
  H   H31       1.0  0.31849  0.64098  0.67845  1.0000
  H   H32       1.0  0.63830  0.85659  0.82153  1.0000
  H   H33       1.0  0.86590  0.27012  0.12334  1.0000
  H   H34       1.0  0.26051  0.23064  0.37830  1.0000
  H   H35       1.0  0.13412  0.72988  0.87665  1.0000
  H   H36       1.0  0.73949  0.76936  0.62170  1.0000
  H   H37       1.0  0.84677  0.11258  0.05481  1.0000
  H   H38       1.0  0.01647  0.38589  0.44730  1.0000
  H   H39       1.0  0.15324  0.88742  0.94519  1.0000
  H   H40       1.0  0.98353  0.61411  0.55270  1.0000
  W   W1        1.0  0.71587  0.74947  0.25047  1.0000
  W   W2        1.0  0.28413  0.25052  0.74953  1.0000
  C   C1        1.0  0.31493  0.60495  0.48346  1.0000
  C   C2        1.0  0.40293  0.89599  0.01687  1.0000
  C   C3        1.0  0.68505  0.39504  0.51654  1.0000
  C   C4        1.0  0.59707  0.10401  0.98313  1.0000
  C   C5        1.0  0.18898  0.55264  0.10361  1.0000
  C   C6        1.0  0.84670  0.94673  0.39660  1.0000
  C   C7        1.0  0.81103  0.44736  0.89639  1.0000
  C   C8        1.0  0.15330  0.05327  0.60340  1.0000
  C   C9        1.0  0.32400  0.46324  0.06452  1.0000
  C   C10       1.0  0.85271  0.03750  0.43512  1.0000
  C   C11       1.0  0.67600  0.53676  0.93548  1.0000
  C   C12       1.0  0.14728  0.96250  0.56488  1.0000
  C   C13       1.0  0.40753  0.43759  0.12637  1.0000
  C   C14       1.0  0.97100  0.06380  0.37356  1.0000
  C   C15       1.0  0.59248  0.56241  0.87363  1.0000
  C   C16       1.0  0.02899  0.93621  0.62645  1.0000
  C   C17       1.0  0.35280  0.50341  0.22424  1.0000
  C   C18       1.0  0.07911  0.99742  0.27643  1.0000
  C   C19       1.0  0.64721  0.49659  0.77575  1.0000
  C   C20       1.0  0.92089  0.00259  0.72357  1.0000
  C   C21       1.0  0.21667  0.59122  0.25766  1.0000
  C   C22       1.0  0.06480  0.90816  0.24359  1.0000
  C   C23       1.0  0.78334  0.40878  0.74234  1.0000
  C   C24       1.0  0.93519  0.09185  0.75641  1.0000
  C   C25       1.0  0.57035  0.15574  0.31246  1.0000
  C   C26       1.0  0.03810  0.34407  0.18809  1.0000
  C   C27       1.0  0.42966  0.84426  0.68753  1.0000
  C   C28       1.0  0.96190  0.65593  0.81191  1.0000
  C   C29       1.0  0.57170  0.24526  0.35689  1.0000
  C   C30       1.0  0.17302  0.25593  0.14321  1.0000
  C   C31       1.0  0.42830  0.75474  0.64311  1.0000
  C   C32       1.0  0.82698  0.74406  0.85678  1.0000
  C   C33       1.0  0.67748  0.28968  0.28826  1.0000
  C   C34       1.0  0.25535  0.21168  0.21215  1.0000
  C   C35       1.0  0.32253  0.71031  0.71173  1.0000
  C   C36       1.0  0.74465  0.78832  0.78785  1.0000
  C   C37       1.0  0.77888  0.24158  0.17840  1.0000
  C   C38       1.0  0.19971  0.25885  0.32277  1.0000
  C   C39       1.0  0.22113  0.75842  0.82159  1.0000
  C   C40       1.0  0.80029  0.74115  0.67723  1.0000
  C   C41       1.0  0.76967  0.15280  0.14009  1.0000
  C   C42       1.0  0.06375  0.34647  0.36142  1.0000
  C   C43       1.0  0.23034  0.84720  0.85990  1.0000
  C   C44       1.0  0.93625  0.65353  0.63858  1.0000
  S   S1        1.0  0.50609  0.90813  0.29660  1.0000
  S   S2        1.0  0.70964  0.59112  0.20376  1.0000
  S   S3        1.0  0.49391  0.09187  0.70340  1.0000
  S   S4        1.0  0.29035  0.40888  0.79623  1.0000
  S   S5        1.0  0.86585  0.82818  0.08410  1.0000
  S   S6        1.0  0.77990  0.67002  0.41756  1.0000
  S   S7        1.0  0.13415  0.17182  0.91590  1.0000
  S   S8        1.0  0.22010  0.32998  0.58243  1.0000
  N   N1        1.0  0.36973  0.66997  0.39859  1.0000
  N   N2        1.0  0.43704  0.82956  0.10262  1.0000
  N   N3        1.0  0.63026  0.33003  0.60141  1.0000
  N   N4        1.0  0.56295  0.17044  0.89739  1.0000
  N   N5        1.0  0.13509  0.61631  0.19862  1.0000
  N   N6        1.0  0.95074  0.88229  0.30250  1.0000
  N   N7        1.0  0.86491  0.38370  0.80137  1.0000
  N   N8        1.0  0.04925  0.11772  0.69751  1.0000
  N   N9        1.0  0.66658  0.11083  0.20532  1.0000
  N   N10       1.0  0.98314  0.38812  0.29599  1.0000
  N   N11       1.0  0.33343  0.88916  0.79467  1.0000
  N   N12       1.0  0.01686  0.61188  0.70401  1.0000
