data_image0
_chemical_formula_structural       Zn4H40C40S4N16O8
_chemical_formula_sum              "Zn4 H40 C40 S4 N16 O8"
_cell_length_a       9.59327
_cell_length_b       11.9256
_cell_length_c       13.99
_cell_angle_alpha    93.0711
_cell_angle_beta     90
_cell_angle_gamma    90

_space_group_name_H-M_alt    "P 1"
_space_group_IT_number       1

loop_
  _space_group_symop_operation_xyz
  'x, y, z'

loop_
  _atom_site_type_symbol
  _atom_site_label
  _atom_site_symmetry_multiplicity
  _atom_site_fract_x
  _atom_site_fract_y
  _atom_site_fract_z
  _atom_site_occupancy
  Zn  Zn1       1.0  0.72700  0.24749  0.11568  1.0000
  Zn  Zn2       1.0  0.22700  0.25251  0.38432  1.0000
  Zn  Zn3       1.0  0.27300  0.75251  0.88432  1.0000
  Zn  Zn4       1.0  0.77301  0.74749  0.61568  1.0000
  H   H1        1.0  0.61852  0.32323  0.92639  1.0000
  H   H2        1.0  0.11851  0.17678  0.57362  1.0000
  H   H3        1.0  0.38148  0.67678  0.07362  1.0000
  H   H4        1.0  0.88149  0.82322  0.42638  1.0000
  H   H5        1.0  0.98594  0.44004  0.17253  1.0000
  H   H6        1.0  0.48596  0.05997  0.32748  1.0000
  H   H7        1.0  0.01405  0.55996  0.82748  1.0000
  H   H8        1.0  0.51404  0.94003  0.67252  1.0000
  H   H9        1.0  0.57685  0.00057  0.10521  1.0000
  H   H10       1.0  0.07686  0.49943  0.39480  1.0000
  H   H11       1.0  0.42314  0.99942  0.89479  1.0000
  H   H12       1.0  0.92315  0.50058  0.60521  1.0000
  H   H13       1.0  0.99051  0.78588  0.97586  1.0000
  H   H14       1.0  0.49053  0.71411  0.52414  1.0000
  H   H15       1.0  0.00948  0.21411  0.02415  1.0000
  H   H16       1.0  0.50948  0.28588  0.47585  1.0000
  H   H17       1.0  0.85166  0.01252  0.27522  1.0000
  H   H18       1.0  0.35165  0.48747  0.22478  1.0000
  H   H19       1.0  0.14835  0.98748  0.72478  1.0000
  H   H20       1.0  0.64835  0.51253  0.77521  1.0000
  H   H21       1.0  0.02842  0.03612  0.31586  1.0000
  H   H22       1.0  0.52841  0.46388  0.18414  1.0000
  H   H23       1.0  0.97159  0.96389  0.68414  1.0000
  H   H24       1.0  0.47159  0.53611  0.81586  1.0000
  H   H25       1.0  0.98027  0.07639  0.19749  1.0000
  H   H26       1.0  0.48027  0.42360  0.30251  1.0000
  H   H27       1.0  0.01974  0.92361  0.80251  1.0000
  H   H28       1.0  0.51973  0.57639  0.69748  1.0000
  H   H29       1.0  0.72520  0.14163  0.42162  1.0000
  H   H30       1.0  0.22518  0.35837  0.07839  1.0000
  H   H31       1.0  0.27481  0.85836  0.57838  1.0000
  H   H32       1.0  0.77482  0.64163  0.92161  1.0000
  H   H33       1.0  0.81231  0.26901  0.46958  1.0000
  H   H34       1.0  0.31230  0.23099  0.03042  1.0000
  H   H35       1.0  0.18770  0.73099  0.53042  1.0000
  H   H36       1.0  0.68770  0.76901  0.96958  1.0000
  H   H37       1.0  0.89717  0.13238  0.47152  1.0000
  H   H38       1.0  0.39715  0.36763  0.02848  1.0000
  H   H39       1.0  0.10285  0.86762  0.52848  1.0000
  H   H40       1.0  0.60285  0.63237  0.97152  1.0000
  C   C1        1.0  0.71365  0.36967  0.94470  1.0000
  C   C2        1.0  0.21365  0.13034  0.55529  1.0000
  C   C3        1.0  0.28635  0.63034  0.05530  1.0000
  C   C4        1.0  0.78635  0.86966  0.44470  1.0000
  C   C5        1.0  0.89063  0.43438  0.02990  1.0000
  C   C6        1.0  0.39063  0.06563  0.47011  1.0000
  C   C7        1.0  0.10936  0.56564  0.97010  1.0000
  C   C8        1.0  0.60938  0.93438  0.52989  1.0000
  C   C9        1.0  0.99138  0.46466  0.09860  1.0000
  C   C10       1.0  0.49138  0.03536  0.40141  1.0000
  C   C11       1.0  0.00860  0.53534  0.90141  1.0000
  C   C12       1.0  0.50862  0.96464  0.59859  1.0000
  C   C13       1.0  0.10079  0.53159  0.06708  1.0000
  C   C14       1.0  0.60078  0.96842  0.43291  1.0000
  C   C15       1.0  0.89920  0.46842  0.93292  1.0000
  C   C16       1.0  0.39921  0.03157  0.56708  1.0000
  C   C17       1.0  0.68295  0.99848  0.07761  1.0000
  C   C18       1.0  0.18296  0.50153  0.42239  1.0000
  C   C19       1.0  0.31704  0.00152  0.92239  1.0000
  C   C20       1.0  0.81705  0.49847  0.57761  1.0000
  C   C21       1.0  0.87937  0.93988  0.01976  1.0000
  C   C22       1.0  0.37938  0.56011  0.48023  1.0000
  C   C23       1.0  0.12062  0.06011  0.98024  1.0000
  C   C24       1.0  0.62063  0.43989  0.51976  1.0000
  C   C25       1.0  0.99379  0.87735  0.98506  1.0000
  C   C26       1.0  0.49379  0.62265  0.51494  1.0000
  C   C27       1.0  0.00620  0.12265  0.01494  1.0000
  C   C28       1.0  0.50621  0.37735  0.48506  1.0000
  C   C29       1.0  0.88722  0.05982  0.03394  1.0000
  C   C30       1.0  0.38724  0.44018  0.46605  1.0000
  C   C31       1.0  0.11276  0.94017  0.96605  1.0000
  C   C32       1.0  0.61278  0.55982  0.53394  1.0000
  C   C33       1.0  0.94413  0.06714  0.27118  1.0000
  C   C34       1.0  0.44412  0.43286  0.22882  1.0000
  C   C35       1.0  0.05588  0.93287  0.72882  1.0000
  C   C36       1.0  0.55588  0.56714  0.77118  1.0000
  C   C37       1.0  0.82550  0.18470  0.43198  1.0000
  C   C38       1.0  0.32548  0.31530  0.06802  1.0000
  C   C39       1.0  0.17452  0.81530  0.56802  1.0000
  C   C40       1.0  0.67452  0.68470  0.93197  1.0000
  S   S1        1.0  0.89961  0.20198  0.31965  1.0000
  S   S2        1.0  0.39960  0.29801  0.18036  1.0000
  S   S3        1.0  0.10040  0.79802  0.68035  1.0000
  S   S4        1.0  0.60039  0.70199  0.81964  1.0000
  N   N1        1.0  0.76870  0.37070  0.03574  1.0000
  N   N2        1.0  0.26870  0.12931  0.46426  1.0000
  N   N3        1.0  0.23130  0.62930  0.96426  1.0000
  N   N4        1.0  0.73130  0.87069  0.53574  1.0000
  N   N5        1.0  0.75955  0.09454  0.07178  1.0000
  N   N6        1.0  0.25956  0.40546  0.42822  1.0000
  N   N7        1.0  0.24044  0.90545  0.92822  1.0000
  N   N8        1.0  0.74045  0.59454  0.57178  1.0000
  N   N9        1.0  0.74785  0.90461  0.04717  1.0000
  N   N10       1.0  0.24786  0.59539  0.45283  1.0000
  N   N11       1.0  0.25214  0.09539  0.95283  1.0000
  N   N12       1.0  0.75215  0.40461  0.54717  1.0000
  N   N13       1.0  0.21558  0.57336  0.11814  1.0000
  N   N14       1.0  0.71559  0.92665  0.38187  1.0000
  N   N15       1.0  0.78441  0.42664  0.88186  1.0000
  N   N16       1.0  0.28441  0.07335  0.61813  1.0000
  O   O1        1.0  0.79676  0.25600  0.25920  1.0000
  O   O2        1.0  0.29676  0.24399  0.24081  1.0000
  O   O3        1.0  0.20324  0.74400  0.74080  1.0000
  O   O4        1.0  0.70324  0.75601  0.75919  1.0000
  O   O5        1.0  0.02814  0.26892  0.33241  1.0000
  O   O6        1.0  0.52815  0.23108  0.16758  1.0000
  O   O7        1.0  0.97186  0.73108  0.66759  1.0000
  O   O8        1.0  0.47185  0.76892  0.83242  1.0000
