data_image0
_chemical_formula_structural       Ca4H24C24S4O24
_chemical_formula_sum              "Ca4 H24 C24 S4 O24"
_cell_length_a       7.52949
_cell_length_b       8.00334
_cell_length_c       15.1774
_cell_angle_alpha    90
_cell_angle_beta     102.97
_cell_angle_gamma    89.9999

_space_group_name_H-M_alt    "P 1"
_space_group_IT_number       1

loop_
  _space_group_symop_operation_xyz
  'x, y, z'

loop_
  _atom_site_type_symbol
  _atom_site_label
  _atom_site_symmetry_multiplicity
  _atom_site_fract_x
  _atom_site_fract_y
  _atom_site_fract_z
  _atom_site_occupancy
  Ca  Ca1       1.0  0.97255  0.39860  0.87695  1.0000
  Ca  Ca2       1.0  0.52745  0.89860  0.12305  1.0000
  Ca  Ca3       1.0  0.02745  0.60140  0.12305  1.0000
  Ca  Ca4       1.0  0.47255  0.10140  0.87695  1.0000
  H   H1        1.0  0.93253  0.14515  0.06768  1.0000
  H   H2        1.0  0.56747  0.64515  0.93232  1.0000
  H   H3        1.0  0.06747  0.85486  0.93232  1.0000
  H   H4        1.0  0.43253  0.35486  0.06768  1.0000
  H   H5        1.0  0.05032  0.70388  0.78268  1.0000
  H   H6        1.0  0.44968  0.20388  0.21732  1.0000
  H   H7        1.0  0.94968  0.29612  0.21732  1.0000
  H   H8        1.0  0.55032  0.79612  0.78268  1.0000
  H   H9        1.0  0.23214  0.60161  0.78784  1.0000
  H   H10       1.0  0.26786  0.10161  0.21216  1.0000
  H   H11       1.0  0.76786  0.39839  0.21216  1.0000
  H   H12       1.0  0.73214  0.89839  0.78784  1.0000
  H   H13       1.0  0.33829  0.07476  0.47793  1.0000
  H   H14       1.0  0.16171  0.57476  0.52207  1.0000
  H   H15       1.0  0.66171  0.92524  0.52207  1.0000
  H   H16       1.0  0.83830  0.42524  0.47793  1.0000
  H   H17       1.0  0.62327  0.72838  0.63964  1.0000
  H   H18       1.0  0.87673  0.22838  0.36036  1.0000
  H   H19       1.0  0.37673  0.27162  0.36036  1.0000
  H   H20       1.0  0.12328  0.77162  0.63964  1.0000
  H   H21       1.0  0.40540  0.16077  0.63993  1.0000
  H   H22       1.0  0.09460  0.66077  0.36007  1.0000
  H   H23       1.0  0.59460  0.83923  0.36007  1.0000
  H   H24       1.0  0.90540  0.33923  0.63993  1.0000
  C   C1        1.0  0.80277  0.14421  0.01610  1.0000
  C   C2        1.0  0.69723  0.64421  0.98390  1.0000
  C   C3        1.0  0.19723  0.85579  0.98390  1.0000
  C   C4        1.0  0.30277  0.35579  0.01610  1.0000
  C   C5        1.0  0.48968  0.40749  0.61243  1.0000
  C   C6        1.0  0.01032  0.90749  0.38757  1.0000
  C   C7        1.0  0.51032  0.59251  0.38757  1.0000
  C   C8        1.0  0.98967  0.09251  0.61243  1.0000
  C   C9        1.0  0.52091  0.52554  0.54675  1.0000
  C   C10       1.0  0.97909  0.02555  0.45325  1.0000
  C   C11       1.0  0.47909  0.47446  0.45324  1.0000
  C   C12       1.0  0.02091  0.97445  0.54676  1.0000
  C   C13       1.0  0.38841  0.20023  0.49662  1.0000
  C   C14       1.0  0.11159  0.70023  0.50338  1.0000
  C   C15       1.0  0.61159  0.79977  0.50338  1.0000
  C   C16       1.0  0.88841  0.29977  0.49662  1.0000
  C   C17       1.0  0.58843  0.68925  0.56936  1.0000
  C   C18       1.0  0.91157  0.18925  0.43064  1.0000
  C   C19       1.0  0.41157  0.31075  0.43064  1.0000
  C   C20       1.0  0.08843  0.81075  0.56936  1.0000
  C   C21       1.0  0.42662  0.24817  0.58827  1.0000
  C   C22       1.0  0.07339  0.74818  0.41173  1.0000
  C   C23       1.0  0.57338  0.75182  0.41173  1.0000
  C   C24       1.0  0.92662  0.25182  0.58827  1.0000
  S   S1        1.0  0.53334  0.46082  0.72930  1.0000
  S   S2        1.0  0.96666  0.96082  0.27070  1.0000
  S   S3        1.0  0.46666  0.53918  0.27070  1.0000
  S   S4        1.0  0.03334  0.03918  0.72930  1.0000
  O   O1        1.0  0.42426  0.61162  0.73777  1.0000
  O   O2        1.0  0.07574  0.11162  0.26223  1.0000
  O   O3        1.0  0.57574  0.38838  0.26223  1.0000
  O   O4        1.0  0.92426  0.88838  0.73777  1.0000
  O   O5        1.0  0.66137  0.08423  0.03639  1.0000
  O   O6        1.0  0.83864  0.58423  0.96360  1.0000
  O   O7        1.0  0.33864  0.91577  0.96360  1.0000
  O   O8        1.0  0.16137  0.41577  0.03640  1.0000
  O   O9        1.0  0.72977  0.49483  0.75737  1.0000
  O   O10       1.0  0.77023  0.99483  0.24264  1.0000
  O   O11       1.0  0.27023  0.50518  0.24263  1.0000
  O   O12       1.0  0.22977  0.00517  0.75737  1.0000
  O   O13       1.0  0.11977  0.60568  0.81115  1.0000
  O   O14       1.0  0.38023  0.10568  0.18885  1.0000
  O   O15       1.0  0.88023  0.39432  0.18885  1.0000
  O   O16       1.0  0.61976  0.89432  0.81115  1.0000
  O   O17       1.0  0.80027  0.20209  0.93785  1.0000
  O   O18       1.0  0.69973  0.70209  0.06215  1.0000
  O   O19       1.0  0.19973  0.79791  0.06215  1.0000
  O   O20       1.0  0.30027  0.29791  0.93785  1.0000
  O   O21       1.0  0.47492  0.31652  0.77480  1.0000
  O   O22       1.0  0.02508  0.81652  0.22520  1.0000
  O   O23       1.0  0.52508  0.68348  0.22520  1.0000
  O   O24       1.0  0.97492  0.18348  0.77480  1.0000
