data_image0
_chemical_formula_structural       Cu2H28C36N8O8
_chemical_formula_sum              "Cu2 H28 C36 N8 O8"
_cell_length_a       9.60892
_cell_length_b       9.93962
_cell_length_c       10.2225
_cell_angle_alpha    96.9145
_cell_angle_beta     90.8884
_cell_angle_gamma    116.936

_space_group_name_H-M_alt    "P 1"
_space_group_IT_number       1

loop_
  _space_group_symop_operation_xyz
  'x, y, z'

loop_
  _atom_site_type_symbol
  _atom_site_label
  _atom_site_symmetry_multiplicity
  _atom_site_fract_x
  _atom_site_fract_y
  _atom_site_fract_z
  _atom_site_occupancy
  Cu  Cu1       1.0  0.32328  0.00675  0.37339  1.0000
  Cu  Cu2       1.0  0.67672  0.99325  0.62661  1.0000
  H   H1        1.0  0.24908  0.32893  0.13353  1.0000
  H   H2        1.0  0.75092  0.67107  0.86648  1.0000
  H   H3        1.0  0.22422  0.17686  0.00891  1.0000
  H   H4        1.0  0.77578  0.82314  0.99109  1.0000
  H   H5        1.0  0.18587  0.59990  0.64058  1.0000
  H   H6        1.0  0.81412  0.40009  0.35941  1.0000
  H   H7        1.0  0.17273  0.73578  0.76389  1.0000
  H   H8        1.0  0.82727  0.26421  0.23612  1.0000
  H   H9        1.0  0.10342  0.68676  0.28832  1.0000
  H   H10       1.0  0.89658  0.31324  0.71169  1.0000
  H   H11       1.0  0.07139  0.48140  0.10531  1.0000
  H   H12       1.0  0.92861  0.51860  0.89469  1.0000
  H   H13       1.0  0.50227  0.80582  0.96593  1.0000
  H   H14       1.0  0.49773  0.19418  0.03407  1.0000
  H   H15       1.0  0.51532  0.99431  0.15548  1.0000
  H   H16       1.0  0.48468  0.00569  0.84451  1.0000
  H   H17       1.0  0.16040  0.39566  0.91342  1.0000
  H   H18       1.0  0.83960  0.60434  0.08658  1.0000
  H   H19       1.0  0.47549  0.62236  0.82215  1.0000
  H   H20       1.0  0.52451  0.37764  0.17785  1.0000
  H   H21       1.0  0.11771  0.21859  0.75036  1.0000
  H   H22       1.0  0.88229  0.78141  0.24964  1.0000
  H   H23       1.0  0.11507  0.02893  0.57431  1.0000
  H   H24       1.0  0.88493  0.97108  0.42569  1.0000
  H   H25       1.0  0.56105  0.31733  0.47828  1.0000
  H   H26       1.0  0.43895  0.68268  0.52171  1.0000
  H   H27       1.0  0.58709  0.52228  0.65419  1.0000
  H   H28       1.0  0.41291  0.47772  0.34581  1.0000
  C   C1        1.0  0.19884  0.11665  0.20704  1.0000
  C   C2        1.0  0.80116  0.88335  0.79295  1.0000
  C   C3        1.0  0.17877  0.20593  0.10047  1.0000
  C   C4        1.0  0.82123  0.79407  0.89952  1.0000
  C   C5        1.0  0.01697  0.17189  0.07359  1.0000
  C   C6        1.0  0.98303  0.82811  0.92641  1.0000
  C   C7        1.0  0.26348  0.82241  0.58363  1.0000
  C   C8        1.0  0.73652  0.17759  0.41637  1.0000
  C   C9        1.0  0.15235  0.69252  0.65749  1.0000
  C   C10       1.0  0.84764  0.30748  0.34251  1.0000
  C   C11       1.0  0.98790  0.63246  0.61614  1.0000
  C   C12       1.0  0.01210  0.36755  0.38387  1.0000
  C   C13       1.0  0.18762  0.70685  0.21369  1.0000
  C   C14       1.0  0.81238  0.29315  0.78631  1.0000
  C   C15       1.0  0.17193  0.59377  0.11224  1.0000
  C   C16       1.0  0.82807  0.40623  0.88777  1.0000
  C   C17       1.0  0.28508  0.62403  0.01935  1.0000
  C   C18       1.0  0.71492  0.37597  0.98066  1.0000
  C   C19       1.0  0.41130  0.77221  0.03521  1.0000
  C   C20       1.0  0.58869  0.22779  0.96479  1.0000
  C   C21       1.0  0.41905  0.87918  0.13915  1.0000
  C   C22       1.0  0.58095  0.12081  0.86085  1.0000
  C   C23       1.0  0.26696  0.50315  0.91441  1.0000
  C   C24       1.0  0.73303  0.49685  0.08559  1.0000
  C   C25       1.0  0.37041  0.51391  0.82298  1.0000
  C   C26       1.0  0.62959  0.48609  0.17702  1.0000
  C   C27       1.0  0.35481  0.39143  0.72068  1.0000
  C   C28       1.0  0.64519  0.60857  0.27932  1.0000
  C   C29       1.0  0.22105  0.24891  0.69506  1.0000
  C   C30       1.0  0.77895  0.75109  0.30494  1.0000
  C   C31       1.0  0.21718  0.14002  0.59479  1.0000
  C   C32       1.0  0.78282  0.85998  0.40521  1.0000
  C   C33       1.0  0.46686  0.30080  0.54210  1.0000
  C   C34       1.0  0.53314  0.69921  0.45790  1.0000
  C   C35       1.0  0.47963  0.41502  0.64112  1.0000
  C   C36       1.0  0.52037  0.58498  0.35888  1.0000
  N   N1        1.0  0.30965  0.84733  0.22777  1.0000
  N   N2        1.0  0.69035  0.15267  0.77223  1.0000
  N   N3        1.0  0.33807  0.16498  0.51910  1.0000
  N   N4        1.0  0.66192  0.83502  0.48090  1.0000
  N   N5        1.0  0.85515  0.58362  0.58366  1.0000
  N   N6        1.0  0.14484  0.41638  0.41634  1.0000
  N   N7        1.0  0.88644  0.14453  0.05349  1.0000
  N   N8        1.0  0.11358  0.85548  0.94652  1.0000
  O   O1        1.0  0.34281  0.15047  0.23642  1.0000
  O   O2        1.0  0.65719  0.84953  0.76358  1.0000
  O   O3        1.0  0.08233  0.02272  0.25493  1.0000
  O   O4        1.0  0.91767  0.97728  0.74506  1.0000
  O   O5        1.0  0.20134  0.84190  0.48055  1.0000
  O   O6        1.0  0.79866  0.15810  0.51945  1.0000
  O   O7        1.0  0.40226  0.89394  0.63011  1.0000
  O   O8        1.0  0.59774  0.10606  0.36990  1.0000
