data_image0
_chemical_formula_structural       Zn2H44C64N8O4
_chemical_formula_sum              "Zn2 H44 C64 N8 O4"
_cell_length_a       9.76271
_cell_length_b       11.7615
_cell_length_c       14.667
_cell_angle_alpha    90
_cell_angle_beta     106.86
_cell_angle_gamma    90

_space_group_name_H-M_alt    "P 1"
_space_group_IT_number       1

loop_
  _space_group_symop_operation_xyz
  'x, y, z'

loop_
  _atom_site_type_symbol
  _atom_site_label
  _atom_site_symmetry_multiplicity
  _atom_site_fract_x
  _atom_site_fract_y
  _atom_site_fract_z
  _atom_site_occupancy
  Zn  Zn1       1.0  0.50000  0.50000  0.00000  1.0000
  Zn  Zn2       1.0  0.50000  1.00000  0.50000  1.0000
  H   H1        1.0  0.02495  0.43130  0.12199  1.0000
  H   H2        1.0  0.97505  0.93130  0.37801  1.0000
  H   H3        1.0  0.97506  0.56870  0.87801  1.0000
  H   H4        1.0  0.02494  0.06870  0.62199  1.0000
  H   H5        1.0  0.49210  0.92925  0.29263  1.0000
  H   H6        1.0  0.50790  0.42924  0.20737  1.0000
  H   H7        1.0  0.50790  0.07076  0.70737  1.0000
  H   H8        1.0  0.49210  0.57075  0.79263  1.0000
  H   H9        1.0  0.95117  0.26308  0.01770  1.0000
  H   H10       1.0  0.04883  0.76307  0.48230  1.0000
  H   H11       1.0  0.04883  0.73693  0.98230  1.0000
  H   H12       1.0  0.95117  0.23693  0.51770  1.0000
  H   H13       1.0  0.36416  0.60002  0.13028  1.0000
  H   H14       1.0  0.63584  0.10002  0.36972  1.0000
  H   H15       1.0  0.63585  0.39998  0.86972  1.0000
  H   H16       1.0  0.36416  0.89998  0.63028  1.0000
  H   H17       1.0  0.26171  0.82216  0.47262  1.0000
  H   H18       1.0  0.73829  0.32215  0.02739  1.0000
  H   H19       1.0  0.73829  0.17784  0.52739  1.0000
  H   H20       1.0  0.26171  0.67783  0.97261  1.0000
  H   H21       1.0  0.10065  0.57507  0.20540  1.0000
  H   H22       1.0  0.89934  0.07506  0.29460  1.0000
  H   H23       1.0  0.89935  0.42493  0.79460  1.0000
  H   H24       1.0  0.10065  0.92493  0.70540  1.0000
  H   H25       1.0  0.99261  0.13426  0.89146  1.0000
  H   H26       1.0  0.00738  0.63425  0.60855  1.0000
  H   H27       1.0  0.00739  0.86575  0.10854  1.0000
  H   H28       1.0  0.99262  0.36575  0.39146  1.0000
  H   H29       1.0  0.35859  0.19632  0.78906  1.0000
  H   H30       1.0  0.64140  0.69632  0.71094  1.0000
  H   H31       1.0  0.64141  0.80368  0.21094  1.0000
  H   H32       1.0  0.35859  0.30368  0.28906  1.0000
  H   H33       1.0  0.39258  0.77464  0.17592  1.0000
  H   H34       1.0  0.60742  0.27464  0.32408  1.0000
  H   H35       1.0  0.60742  0.22537  0.82408  1.0000
  H   H36       1.0  0.39258  0.72537  0.67592  1.0000
  H   H37       1.0  0.14236  0.66729  0.36034  1.0000
  H   H38       1.0  0.85764  0.16728  0.13966  1.0000
  H   H39       1.0  0.85764  0.33271  0.63966  1.0000
  H   H40       1.0  0.14236  0.83271  0.86034  1.0000
  H   H41       1.0  0.14378  0.08497  0.78608  1.0000
  H   H42       1.0  0.85621  0.58497  0.71392  1.0000
  H   H43       1.0  0.85622  0.91504  0.21391  1.0000
  H   H44       1.0  0.14378  0.41503  0.28608  1.0000
  C   C1        1.0  0.34199  0.31116  0.89946  1.0000
  C   C2        1.0  0.65801  0.81116  0.60055  1.0000
  C   C3        1.0  0.65802  0.68885  0.10054  1.0000
  C   C4        1.0  0.34199  0.18884  0.39946  1.0000
  C   C5        1.0  0.29589  0.21872  0.83694  1.0000
  C   C6        1.0  0.70410  0.71872  0.66306  1.0000
  C   C7        1.0  0.70411  0.78128  0.16306  1.0000
  C   C8        1.0  0.29589  0.28128  0.33694  1.0000
  C   C9        1.0  0.17294  0.15654  0.83512  1.0000
  C   C10       1.0  0.82705  0.65653  0.66488  1.0000
  C   C11       1.0  0.82706  0.84347  0.16488  1.0000
  C   C12       1.0  0.17294  0.34346  0.33512  1.0000
  C   C13       1.0  0.08858  0.18299  0.89388  1.0000
  C   C14       1.0  0.91141  0.68298  0.60612  1.0000
  C   C15       1.0  0.91142  0.81702  0.10612  1.0000
  C   C16       1.0  0.08859  0.31701  0.39388  1.0000
  C   C17       1.0  0.12738  0.27581  0.95666  1.0000
  C   C18       1.0  0.87261  0.77580  0.54334  1.0000
  C   C19       1.0  0.87262  0.72420  0.04334  1.0000
  C   C20       1.0  0.12738  0.22420  0.45666  1.0000
  C   C21       1.0  0.25283  0.34129  0.96006  1.0000
  C   C22       1.0  0.74717  0.84129  0.53994  1.0000
  C   C23       1.0  0.74718  0.65871  0.03994  1.0000
  C   C24       1.0  0.25282  0.15871  0.46006  1.0000
  C   C25       1.0  0.04706  0.31079  0.01822  1.0000
  C   C26       1.0  0.95293  0.81078  0.48178  1.0000
  C   C27       1.0  0.95294  0.68921  0.98178  1.0000
  C   C28       1.0  0.04706  0.18921  0.51822  1.0000
  C   C29       1.0  0.08825  0.40358  0.07602  1.0000
  C   C30       1.0  0.91175  0.90358  0.42398  1.0000
  C   C31       1.0  0.91176  0.59642  0.92397  1.0000
  C   C32       1.0  0.08825  0.09642  0.57602  1.0000
  C   C33       1.0  0.21383  0.46492  0.07538  1.0000
  C   C34       1.0  0.78617  0.96492  0.42462  1.0000
  C   C35       1.0  0.78618  0.53508  0.92462  1.0000
  C   C36       1.0  0.21382  0.03508  0.57538  1.0000
  C   C37       1.0  0.26348  0.56352  0.13519  1.0000
  C   C38       1.0  0.73652  0.06351  0.36481  1.0000
  C   C39       1.0  0.73652  0.43649  0.86481  1.0000
  C   C40       1.0  0.26348  0.93649  0.63519  1.0000
  C   C41       1.0  0.19965  0.61042  0.19683  1.0000
  C   C42       1.0  0.80035  0.11041  0.30317  1.0000
  C   C43       1.0  0.80036  0.38959  0.80317  1.0000
  C   C44       1.0  0.19965  0.88958  0.69683  1.0000
  C   C45       1.0  0.25922  0.70578  0.25873  1.0000
  C   C46       1.0  0.74078  0.20577  0.24126  1.0000
  C   C47       1.0  0.74078  0.29422  0.74127  1.0000
  C   C48       1.0  0.25922  0.79422  0.75873  1.0000
  C   C49       1.0  0.35899  0.78247  0.24033  1.0000
  C   C50       1.0  0.64101  0.28247  0.25967  1.0000
  C   C51       1.0  0.64101  0.21753  0.75967  1.0000
  C   C52       1.0  0.35899  0.71753  0.74033  1.0000
  C   C53       1.0  0.41569  0.86803  0.30546  1.0000
  C   C54       1.0  0.58431  0.36802  0.19455  1.0000
  C   C55       1.0  0.58431  0.13198  0.69454  1.0000
  C   C56       1.0  0.41569  0.63198  0.80545  1.0000
  C   C57       1.0  0.28538  0.80935  0.40509  1.0000
  C   C58       1.0  0.71462  0.30935  0.09491  1.0000
  C   C59       1.0  0.71462  0.19065  0.59491  1.0000
  C   C60       1.0  0.28538  0.69064  0.90508  1.0000
  C   C61       1.0  0.22026  0.72326  0.34285  1.0000
  C   C62       1.0  0.77974  0.22326  0.15715  1.0000
  C   C63       1.0  0.77975  0.27674  0.65715  1.0000
  C   C64       1.0  0.22026  0.77674  0.84285  1.0000
  N   N1        1.0  0.29294  0.43242  0.01847  1.0000
  N   N2        1.0  0.70706  0.93242  0.48153  1.0000
  N   N3        1.0  0.70707  0.56759  0.98153  1.0000
  N   N4        1.0  0.29294  0.06758  0.51847  1.0000
  N   N5        1.0  0.38193  0.88098  0.38757  1.0000
  N   N6        1.0  0.61807  0.38098  0.11244  1.0000
  N   N7        1.0  0.61807  0.11902  0.61243  1.0000
  N   N8        1.0  0.38193  0.61901  0.88757  1.0000
  O   O1        1.0  0.45805  0.36821  0.90382  1.0000
  O   O2        1.0  0.54195  0.86821  0.59619  1.0000
  O   O3        1.0  0.54196  0.63180  0.09618  1.0000
  O   O4        1.0  0.45805  0.13179  0.40382  1.0000
