data_image0
_chemical_formula_structural       Zn2H20C18O14
_chemical_formula_sum              "Zn2 H20 C18 O14"
_cell_length_a       7.28959
_cell_length_b       8.58206
_cell_length_c       9.53092
_cell_angle_alpha    110.487
_cell_angle_beta     85.3863
_cell_angle_gamma    100.637

_space_group_name_H-M_alt    "P 1"
_space_group_IT_number       1

loop_
  _space_group_symop_operation_xyz
  'x, y, z'

loop_
  _atom_site_type_symbol
  _atom_site_label
  _atom_site_symmetry_multiplicity
  _atom_site_fract_x
  _atom_site_fract_y
  _atom_site_fract_z
  _atom_site_occupancy
  Zn  Zn1       1.0  0.05242  0.36992  0.09225  1.0000
  Zn  Zn2       1.0  0.94758  0.63008  0.90775  1.0000
  H   H1        1.0  0.11855  0.36220  0.52314  1.0000
  H   H2        1.0  0.88145  0.63780  0.47687  1.0000
  H   H3        1.0  0.24565  0.01743  0.72355  1.0000
  H   H4        1.0  0.75436  0.98257  0.27646  1.0000
  H   H5        1.0  0.31043  0.90537  0.24582  1.0000
  H   H6        1.0  0.68957  0.09462  0.75419  1.0000
  H   H7        1.0  0.39962  0.79609  0.66476  1.0000
  H   H8        1.0  0.60038  0.20390  0.33524  1.0000
  H   H9        1.0  0.34891  0.59282  0.52165  1.0000
  H   H10       1.0  0.65108  0.40718  0.47835  1.0000
  H   H11       1.0  0.16228  0.70447  0.61052  1.0000
  H   H12       1.0  0.83771  0.29553  0.38947  1.0000
  H   H13       1.0  0.71825  0.28888  0.97741  1.0000
  H   H14       1.0  0.28174  0.71112  0.02258  1.0000
  H   H15       1.0  0.78635  0.11944  0.97748  1.0000
  H   H16       1.0  0.21364  0.88056  0.02252  1.0000
  H   H17       1.0  0.54054  0.65586  0.10879  1.0000
  H   H18       1.0  0.45946  0.34414  0.89121  1.0000
  H   H19       1.0  0.38349  0.67420  0.23469  1.0000
  H   H20       1.0  0.61651  0.32580  0.76531  1.0000
  C   C1        1.0  0.19099  0.18071  0.23212  1.0000
  C   C2        1.0  0.80901  0.81928  0.76788  1.0000
  C   C3        1.0  0.21701  0.14017  0.36938  1.0000
  C   C4        1.0  0.78299  0.85983  0.63062  1.0000
  C   C5        1.0  0.16976  0.24692  0.51088  1.0000
  C   C6        1.0  0.83025  0.75308  0.48912  1.0000
  C   C7        1.0  0.18328  0.20196  0.63640  1.0000
  C   C8        1.0  0.81673  0.79804  0.36360  1.0000
  C   C9        1.0  0.12379  0.31404  0.78455  1.0000
  C   C10       1.0  0.87622  0.68596  0.21545  1.0000
  C   C11       1.0  0.24001  0.04973  0.62344  1.0000
  C   C12       1.0  0.75999  0.95027  0.37656  1.0000
  C   C13       1.0  0.28206  0.94162  0.48083  1.0000
  C   C14       1.0  0.71793  0.05838  0.51916  1.0000
  C   C15       1.0  0.27474  0.98951  0.35548  1.0000
  C   C16       1.0  0.72525  0.01049  0.64453  1.0000
  C   C17       1.0  0.30826  0.71749  0.57099  1.0000
  C   C18       1.0  0.69173  0.28250  0.42900  1.0000
  O   O1        1.0  0.14134  0.32602  0.25910  1.0000
  O   O2        1.0  0.85866  0.67397  0.74089  1.0000
  O   O3        1.0  0.21084  0.07847  0.10243  1.0000
  O   O4        1.0  0.78915  0.92151  0.89758  1.0000
  O   O5        1.0  0.79169  0.24420  0.03514  1.0000
  O   O6        1.0  0.20831  0.75580  0.96485  1.0000
  O   O7        1.0  0.00114  0.40184  0.78567  1.0000
  O   O8        1.0  0.99887  0.59817  0.21434  1.0000
  O   O9        1.0  0.40417  0.63881  0.12573  1.0000
  O   O10       1.0  0.59583  0.36119  0.87427  1.0000
  O   O11       1.0  0.19736  0.31254  0.90213  1.0000
  O   O12       1.0  0.80264  0.68746  0.09788  1.0000
  O   O13       1.0  0.32964  0.78639  0.45179  1.0000
  O   O14       1.0  0.67036  0.21362  0.54821  1.0000
