data_image0
_chemical_formula_structural       Cd3H42C30N12
_chemical_formula_sum              "Cd3 H42 C30 N12"
_cell_length_a       8.64552
_cell_length_b       8.64556
_cell_length_c       13.8831
_cell_angle_alpha    90.0001
_cell_angle_beta     89.9996
_cell_angle_gamma    120

_space_group_name_H-M_alt    "P 1"
_space_group_IT_number       1

loop_
  _space_group_symop_operation_xyz
  'x, y, z'

loop_
  _atom_site_type_symbol
  _atom_site_label
  _atom_site_symmetry_multiplicity
  _atom_site_fract_x
  _atom_site_fract_y
  _atom_site_fract_z
  _atom_site_occupancy
  Cd  Cd1       1.0  0.46371  0.46371  0.00000  1.0000
  Cd  Cd2       1.0  0.53630  0.00000  0.66667  1.0000
  Cd  Cd3       1.0  0.00000  0.53630  0.33333  1.0000
  H   H1        1.0  0.52545  0.22959  0.13272  1.0000
  H   H2        1.0  0.77041  0.29586  0.79939  1.0000
  H   H3        1.0  0.70414  0.47455  0.46605  1.0000
  H   H4        1.0  0.22959  0.52545  0.86728  1.0000
  H   H5        1.0  0.29585  0.77041  0.20061  1.0000
  H   H6        1.0  0.47455  0.70414  0.53395  1.0000
  H   H7        1.0  0.68929  0.24372  0.21342  1.0000
  H   H8        1.0  0.75628  0.44557  0.88010  1.0000
  H   H9        1.0  0.55443  0.31071  0.54675  1.0000
  H   H10       1.0  0.24372  0.68929  0.78657  1.0000
  H   H11       1.0  0.44557  0.75628  0.11990  1.0000
  H   H12       1.0  0.31071  0.55443  0.45325  1.0000
  H   H13       1.0  0.38692  0.08284  0.28998  1.0000
  H   H14       1.0  0.91717  0.30409  0.95665  1.0000
  H   H15       1.0  0.69591  0.61307  0.62331  1.0000
  H   H16       1.0  0.08284  0.38692  0.71002  1.0000
  H   H17       1.0  0.30409  0.91717  0.04334  1.0000
  H   H18       1.0  0.61308  0.69591  0.37668  1.0000
  H   H19       1.0  0.35666  0.26905  0.26920  1.0000
  H   H20       1.0  0.73096  0.08761  0.93587  1.0000
  H   H21       1.0  0.91239  0.64334  0.60253  1.0000
  H   H22       1.0  0.26905  0.35666  0.73080  1.0000
  H   H23       1.0  0.08761  0.73095  0.06413  1.0000
  H   H24       1.0  0.64334  0.91239  0.39747  1.0000
  H   H25       1.0  0.52162  0.28570  0.35204  1.0000
  H   H26       1.0  0.71431  0.23592  0.01872  1.0000
  H   H27       1.0  0.76408  0.47838  0.68537  1.0000
  H   H28       1.0  0.28570  0.52161  0.64795  1.0000
  H   H29       1.0  0.23592  0.71431  0.98128  1.0000
  H   H30       1.0  0.47838  0.76408  0.31463  1.0000
  H   H31       1.0  0.98778  0.89179  0.24691  1.0000
  H   H32       1.0  0.10821  0.09598  0.91359  1.0000
  H   H33       1.0  0.90401  0.01222  0.58024  1.0000
  H   H34       1.0  0.89179  0.98778  0.75309  1.0000
  H   H35       1.0  0.09599  0.10822  0.08642  1.0000
  H   H36       1.0  0.01223  0.90401  0.41976  1.0000
  H   H37       1.0  0.78618  0.85934  0.08481  1.0000
  H   H38       1.0  0.14066  0.92684  0.75148  1.0000
  H   H39       1.0  0.07316  0.21382  0.41814  1.0000
  H   H40       1.0  0.85934  0.78618  0.91519  1.0000
  H   H41       1.0  0.92683  0.14067  0.24852  1.0000
  H   H42       1.0  0.21382  0.07316  0.58186  1.0000
  C   C1        1.0  0.78237  0.75727  0.13188  1.0000
  C   C2        1.0  0.24273  0.02509  0.79855  1.0000
  C   C3        1.0  0.97490  0.21764  0.46521  1.0000
  C   C4        1.0  0.75727  0.78236  0.86812  1.0000
  C   C5        1.0  0.02509  0.24274  0.20145  1.0000
  C   C6        1.0  0.21764  0.97490  0.53479  1.0000
  C   C7        1.0  0.69570  0.48932  0.18768  1.0000
  C   C8        1.0  0.51068  0.20637  0.85435  1.0000
  C   C9        1.0  0.79362  0.30430  0.52101  1.0000
  C   C10       1.0  0.48932  0.69569  0.81232  1.0000
  C   C11       1.0  0.20637  0.51069  0.14565  1.0000
  C   C12       1.0  0.30430  0.79362  0.47899  1.0000
  C   C13       1.0  0.88090  0.77345  0.21304  1.0000
  C   C14       1.0  0.22655  0.10744  0.87971  1.0000
  C   C15       1.0  0.89255  0.11910  0.54636  1.0000
  C   C16       1.0  0.77345  0.88089  0.78696  1.0000
  C   C17       1.0  0.10744  0.22656  0.12029  1.0000
  C   C18       1.0  0.11910  0.89255  0.45363  1.0000
  C   C19       1.0  0.59412  0.29120  0.20075  1.0000
  C   C20       1.0  0.70880  0.30292  0.86743  1.0000
  C   C21       1.0  0.69708  0.40588  0.53408  1.0000
  C   C22       1.0  0.29120  0.59412  0.79925  1.0000
  C   C23       1.0  0.30292  0.70880  0.13258  1.0000
  C   C24       1.0  0.40588  0.69708  0.46592  1.0000
  C   C25       1.0  0.45683  0.22891  0.28279  1.0000
  C   C26       1.0  0.77110  0.22792  0.94946  1.0000
  C   C27       1.0  0.77208  0.54317  0.61612  1.0000
  C   C28       1.0  0.22890  0.45682  0.71721  1.0000
  C   C29       1.0  0.22792  0.77110  0.05054  1.0000
  C   C30       1.0  0.54317  0.77208  0.38388  1.0000
  N   N1        1.0  0.66630  0.57751  0.11620  1.0000
  N   N2        1.0  0.42250  0.08879  0.78288  1.0000
  N   N3        1.0  0.91120  0.33370  0.44953  1.0000
  N   N4        1.0  0.57751  0.66630  0.88380  1.0000
  N   N5        1.0  0.08879  0.42250  0.21712  1.0000
  N   N6        1.0  0.33370  0.91120  0.55047  1.0000
  N   N7        1.0  0.82527  0.60409  0.24815  1.0000
  N   N8        1.0  0.39592  0.22118  0.91482  1.0000
  N   N9        1.0  0.77881  0.17473  0.58147  1.0000
  N   N10       1.0  0.60409  0.82527  0.75185  1.0000
  N   N11       1.0  0.22118  0.39592  0.08518  1.0000
  N   N12       1.0  0.17473  0.77881  0.41853  1.0000
