data_image0
_chemical_formula_structural       Cd6H24C36N36O24
_chemical_formula_sum              "Cd6 H24 C36 N36 O24"
_cell_length_a       10.0281
_cell_length_b       13.7935
_cell_length_c       13.7864
_cell_angle_alpha    82.2415
_cell_angle_beta     68.6726
_cell_angle_gamma    68.2114

_space_group_name_H-M_alt    "P 1"
_space_group_IT_number       1

loop_
  _space_group_symop_operation_xyz
  'x, y, z'

loop_
  _atom_site_type_symbol
  _atom_site_label
  _atom_site_symmetry_multiplicity
  _atom_site_fract_x
  _atom_site_fract_y
  _atom_site_fract_z
  _atom_site_occupancy
  Cd  Cd1       1.0  0.99974  0.00031  0.99935  1.0000
  Cd  Cd2       1.0  0.74905  0.50043  0.50068  1.0000
  Cd  Cd3       1.0  0.37548  0.11204  0.38701  1.0000
  Cd  Cd4       1.0  0.87604  0.88636  0.61257  1.0000
  Cd  Cd5       1.0  0.51256  0.61192  0.11298  1.0000
  Cd  Cd6       1.0  0.23865  0.38625  0.88736  1.0000
  H   H1        1.0  0.88525  0.21083  0.16199  1.0000
  H   H2        1.0  0.25996  0.78854  0.83772  1.0000
  H   H3        1.0  0.90241  0.83825  0.21091  1.0000
  H   H4        1.0  0.95255  0.16249  0.78878  1.0000
  H   H5        1.0  0.86321  0.33827  0.28908  1.0000
  H   H6        1.0  0.49142  0.66270  0.71119  1.0000
  H   H7        1.0  0.84777  0.28863  0.66229  1.0000
  H   H8        1.0  0.79707  0.71095  0.33811  1.0000
  H   H9        1.0  0.60622  0.26868  0.32536  1.0000
  H   H10       1.0  0.20142  0.73035  0.67521  1.0000
  H   H11       1.0  0.12483  0.67513  0.26919  1.0000
  H   H12       1.0  0.06851  0.32501  0.73078  1.0000
  H   H13       1.0  0.14398  0.17520  0.23080  1.0000
  H   H14       1.0  0.54942  0.82521  0.76917  1.0000
  H   H15       1.0  0.62680  0.23031  0.82474  1.0000
  H   H16       1.0  0.68166  0.76866  0.17461  1.0000
  H   H17       1.0  0.34818  0.21256  0.61849  1.0000
  H   H18       1.0  0.18055  0.78822  0.38131  1.0000
  H   H19       1.0  0.43840  0.38128  0.21221  1.0000
  H   H20       1.0  0.03161  0.61869  0.78838  1.0000
  H   H21       1.0  0.40063  0.88140  0.28779  1.0000
  H   H22       1.0  0.57000  0.11868  0.71155  1.0000
  H   H23       1.0  0.31188  0.28809  0.11862  1.0000
  H   H24       1.0  0.71671  0.71253  0.88147  1.0000
  C   C1        1.0  0.66976  0.08388  0.18074  1.0000
  C   C2        1.0  0.93401  0.91655  0.81904  1.0000
  C   C3        1.0  0.24621  0.81908  0.08373  1.0000
  C   C4        1.0  0.14947  0.18071  0.91648  1.0000
  C   C5        1.0  0.07982  0.31923  0.41623  1.0000
  C   C6        1.0  0.81609  0.68082  0.58351  1.0000
  C   C7        1.0  0.50313  0.41661  0.68102  1.0000
  C   C8        1.0  0.60050  0.58391  0.31923  1.0000
  C   C9        1.0  0.79405  0.17919  0.18462  1.0000
  C   C10       1.0  0.15919  0.82048  0.81502  1.0000
  C   C11       1.0  0.02579  0.81552  0.17921  1.0000
  C   C12       1.0  0.02107  0.18497  0.82063  1.0000
  C   C13       1.0  0.95485  0.31555  0.32082  1.0000
  C   C14       1.0  0.59181  0.68518  0.67935  1.0000
  C   C15       1.0  0.72431  0.32052  0.68496  1.0000
  C   C16       1.0  0.72851  0.67929  0.31548  1.0000
  C   C17       1.0  0.65285  0.20907  0.26598  1.0000
  C   C18       1.0  0.12881  0.79034  0.73433  1.0000
  C   C19       1.0  0.13769  0.73434  0.20938  1.0000
  C   C20       1.0  0.08120  0.26573  0.79059  1.0000
  C   C21       1.0  0.09697  0.23439  0.29064  1.0000
  C   C22       1.0  0.62193  0.76592  0.70936  1.0000
  C   C23       1.0  0.61328  0.29030  0.76562  1.0000
  C   C24       1.0  0.66880  0.70912  0.23405  1.0000
  C   C25       1.0  0.61702  0.00784  0.50824  1.0000
  C   C26       1.0  0.13326  0.99168  0.49216  1.0000
  C   C27       1.0  0.37530  0.49164  0.00787  1.0000
  C   C28       1.0  0.87537  0.50793  0.99181  1.0000
  C   C29       1.0  0.44892  0.14283  0.59603  1.0000
  C   C30       1.0  0.18888  0.85743  0.40387  1.0000
  C   C31       1.0  0.40770  0.40368  0.14268  1.0000
  C   C32       1.0  0.95391  0.59621  0.85762  1.0000
  C   C33       1.0  0.30049  0.90375  0.35737  1.0000
  C   C34       1.0  0.56148  0.09621  0.64234  1.0000
  C   C35       1.0  0.34266  0.35734  0.09614  1.0000
  C   C36       1.0  0.79503  0.64285  0.90394  1.0000
  N   N1        1.0  0.80362  0.09914  0.13187  1.0000
  N   N2        1.0  0.03518  0.90121  0.86740  1.0000
  N   N3        1.0  0.09642  0.86791  0.09885  1.0000
  N   N4        1.0  0.06410  0.13238  0.90119  1.0000
  N   N5        1.0  0.94513  0.36800  0.40112  1.0000
  N   N6        1.0  0.71539  0.63252  0.59882  1.0000
  N   N7        1.0  0.65264  0.40130  0.63265  1.0000
  N   N8        1.0  0.68536  0.59922  0.36818  1.0000
  N   N9        1.0  0.57480  0.14827  0.26212  1.0000
  N   N10       1.0  0.98496  0.85159  0.73831  1.0000
  N   N11       1.0  0.27705  0.73802  0.14851  1.0000
  N   N12       1.0  0.16332  0.26162  0.85170  1.0000
  N   N13       1.0  0.17548  0.23814  0.35148  1.0000
  N   N14       1.0  0.76518  0.76174  0.64826  1.0000
  N   N15       1.0  0.47338  0.35157  0.76169  1.0000
  N   N16       1.0  0.58697  0.64829  0.23785  1.0000
  N   N17       1.0  0.48517  0.08613  0.51126  1.0000
  N   N18       1.0  0.08340  0.91386  0.48911  1.0000
  N   N19       1.0  0.42812  0.48856  0.08603  1.0000
  N   N20       1.0  0.00358  0.51089  0.91403  1.0000
  N   N21       1.0  0.26424  0.98863  0.41402  1.0000
  N   N22       1.0  0.66749  0.01086  0.58597  1.0000
  N   N23       1.0  0.32244  0.41379  0.01088  1.0000
  N   N24       1.0  0.74654  0.58618  0.98875  1.0000
  N   N25       1.0  0.63381  0.00423  0.15244  1.0000
  N   N26       1.0  0.78911  0.99666  0.84758  1.0000
  N   N27       1.0  0.36195  0.84750  0.00414  1.0000
  N   N28       1.0  0.21398  0.15236  0.99636  1.0000
  N   N29       1.0  0.11588  0.34764  0.49587  1.0000
  N   N30       1.0  0.96049  0.65236  0.50362  1.0000
  N   N31       1.0  0.38670  0.49662  0.65247  1.0000
  N   N32       1.0  0.53636  0.50422  0.34745  1.0000
  N   N33       1.0  0.69492  0.93017  0.43080  1.0000
  N   N34       1.0  0.05547  0.06922  0.56978  1.0000
  N   N35       1.0  0.37507  0.56925  0.93029  1.0000
  N   N36       1.0  0.87579  0.43026  0.06924  1.0000
  O   O1        1.0  0.73820  0.93528  0.08979  1.0000
  O   O2        1.0  0.76244  0.06579  0.90944  1.0000
  O   O3        1.0  0.32615  0.90957  0.93494  1.0000
  O   O4        1.0  0.17202  0.09036  0.06543  1.0000
  O   O5        1.0  0.01085  0.40970  0.56507  1.0000
  O   O6        1.0  0.98751  0.59033  0.43460  1.0000
  O   O7        1.0  0.42172  0.56583  0.59065  1.0000
  O   O8        1.0  0.57817  0.43527  0.41007  1.0000
  O   O9        1.0  0.49940  0.00547  0.19290  1.0000
  O   O10       1.0  0.69519  0.99557  0.80824  1.0000
  O   O11       1.0  0.49540  0.80783  0.00577  1.0000
  O   O12       1.0  0.30831  0.19217  0.99507  1.0000
  O   O13       1.0  0.25093  0.30797  0.49429  1.0000
  O   O14       1.0  0.05363  0.69210  0.50485  1.0000
  O   O15       1.0  0.25353  0.49536  0.69175  1.0000
  O   O16       1.0  0.44246  0.50541  0.30695  1.0000
  O   O17       1.0  0.81983  0.86244  0.43144  1.0000
  O   O18       1.0  0.11290  0.13647  0.56878  1.0000
  O   O19       1.0  0.31859  0.56851  0.86274  1.0000
  O   O20       1.0  0.75045  0.43139  0.13640  1.0000
  O   O21       1.0  0.93141  0.06845  0.63728  1.0000
  O   O22       1.0  0.63674  0.93129  0.36365  1.0000
  O   O23       1.0  0.43134  0.63658  0.93139  1.0000
  O   O24       1.0  0.00131  0.36251  0.06861  1.0000
