data_image0
_chemical_formula_structural       Cd6H24C36N36O24
_chemical_formula_sum              "Cd6 H24 C36 N36 O24"
_cell_length_a       15.8378
_cell_length_b       15.6553
_cell_length_c       15.8376
_cell_angle_alpha    109.238
_cell_angle_beta     109.703
_cell_angle_gamma    109.238

_space_group_name_H-M_alt    "P 1"
_space_group_IT_number       1

loop_
  _space_group_symop_operation_xyz
  'x, y, z'

loop_
  _atom_site_type_symbol
  _atom_site_label
  _atom_site_symmetry_multiplicity
  _atom_site_fract_x
  _atom_site_fract_y
  _atom_site_fract_z
  _atom_site_occupancy
  Cd  Cd1       1.0  0.24920  0.49943  0.75054  1.0000
  Cd  Cd2       1.0  0.75055  0.49943  0.24920  1.0000
  Cd  Cd3       1.0  0.50135  0.25023  0.75080  1.0000
  Cd  Cd4       1.0  0.49866  0.74889  0.24946  1.0000
  Cd  Cd5       1.0  0.75080  0.25023  0.50135  1.0000
  Cd  Cd6       1.0  0.24946  0.74889  0.49865  1.0000
  H   H1        1.0  0.13081  0.56484  0.89210  1.0000
  H   H2        1.0  0.86908  0.76085  0.43364  1.0000
  H   H3        1.0  0.32644  0.43591  0.56539  1.0000
  H   H4        1.0  0.67249  0.23674  0.10783  1.0000
  H   H5        1.0  0.23896  0.10948  0.67356  1.0000
  H   H6        1.0  0.43535  0.56425  0.32751  1.0000
  H   H7        1.0  0.76129  0.43404  0.86919  1.0000
  H   H8        1.0  0.56457  0.89178  0.13092  1.0000
  H   H9        1.0  0.56637  0.32722  0.43544  1.0000
  H   H10       1.0  0.10790  0.67274  0.23871  1.0000
  H   H11       1.0  0.89218  0.12891  0.56466  1.0000
  H   H12       1.0  0.43461  0.87052  0.76104  1.0000
  H   H13       1.0  0.13093  0.89178  0.56456  1.0000
  H   H14       1.0  0.86919  0.43403  0.76129  1.0000
  H   H15       1.0  0.32751  0.56425  0.43534  1.0000
  H   H16       1.0  0.67357  0.10948  0.23896  1.0000
  H   H17       1.0  0.23871  0.67274  0.10790  1.0000
  H   H18       1.0  0.43544  0.32721  0.56636  1.0000
  H   H19       1.0  0.76104  0.87051  0.43461  1.0000
  H   H20       1.0  0.56466  0.12891  0.89217  1.0000
  H   H21       1.0  0.56540  0.43592  0.32644  1.0000
  H   H22       1.0  0.10783  0.23674  0.67249  1.0000
  H   H23       1.0  0.89210  0.56485  0.13081  1.0000
  H   H24       1.0  0.43365  0.76085  0.86908  1.0000
  C   C1        1.0  0.36989  0.63774  1.00000  1.0000
  C   C2        1.0  0.63017  0.63006  0.26779  1.0000
  C   C3        1.0  0.36237  0.36226  0.73221  1.0000
  C   C4        1.0  0.63789  0.37028  1.00000  1.0000
  C   C5        1.0  0.36984  0.99989  0.63763  1.0000
  C   C6        1.0  0.36211  0.73239  0.36210  1.0000
  C   C7        1.0  0.63011  0.26786  0.63011  1.0000
  C   C8        1.0  0.63763  0.99989  0.36983  1.0000
  C   C9        1.0  0.73221  0.36226  0.36237  1.0000
  C   C10       1.0  0.00000  0.63774  0.36989  1.0000
  C   C11       1.0  0.00000  0.37029  0.63790  1.0000
  C   C12       1.0  0.26780  0.63006  0.63017  1.0000
  C   C13       1.0  0.21163  0.59672  0.94589  1.0000
  C   C14       1.0  0.78832  0.73421  0.38483  1.0000
  C   C15       1.0  0.34868  0.40372  0.61461  1.0000
  C   C16       1.0  0.65071  0.26449  0.05409  1.0000
  C   C17       1.0  0.26594  0.05505  0.65132  1.0000
  C   C18       1.0  0.40338  0.61378  0.34929  1.0000
  C   C19       1.0  0.73427  0.38509  0.78837  1.0000
  C   C20       1.0  0.59652  0.94589  0.21168  1.0000
  C   C21       1.0  0.61517  0.34938  0.40349  1.0000
  C   C22       1.0  0.05410  0.65082  0.26574  1.0000
  C   C23       1.0  0.94592  0.21040  0.59662  1.0000
  C   C24       1.0  0.38539  0.78911  0.73406  1.0000
  C   C25       1.0  0.21168  0.94589  0.59651  1.0000
  C   C26       1.0  0.78837  0.38509  0.73426  1.0000
  C   C27       1.0  0.34929  0.61378  0.40338  1.0000
  C   C28       1.0  0.65133  0.05505  0.26594  1.0000
  C   C29       1.0  0.26574  0.65082  0.05410  1.0000
  C   C30       1.0  0.40349  0.34938  0.61517  1.0000
  C   C31       1.0  0.73406  0.78911  0.38539  1.0000
  C   C32       1.0  0.59662  0.21040  0.94591  1.0000
  C   C33       1.0  0.61462  0.40373  0.34868  1.0000
  C   C34       1.0  0.05409  0.26449  0.65071  1.0000
  C   C35       1.0  0.94590  0.59672  0.21163  1.0000
  C   C36       1.0  0.38484  0.73421  0.78832  1.0000
  N   N1        1.0  0.27869  0.58908  0.91256  1.0000
  N   N2        1.0  0.72140  0.63335  0.30984  1.0000
  N   N3        1.0  0.32291  0.41115  0.68917  1.0000
  N   N4        1.0  0.67659  0.36593  0.08741  1.0000
  N   N5        1.0  0.36626  0.08824  0.67709  1.0000
  N   N6        1.0  0.41083  0.68934  0.32341  1.0000
  N   N7        1.0  0.63388  0.31040  0.72131  1.0000
  N   N8        1.0  0.58844  0.91194  0.27859  1.0000
  N   N9        1.0  0.69016  0.32351  0.41156  1.0000
  N   N10       1.0  0.08744  0.67652  0.36613  1.0000
  N   N11       1.0  0.91259  0.27851  0.58918  1.0000
  N   N12       1.0  0.31083  0.72198  0.63374  1.0000
  N   N13       1.0  0.27860  0.91194  0.58844  1.0000
  N   N14       1.0  0.72131  0.31040  0.63388  1.0000
  N   N15       1.0  0.32341  0.68933  0.41082  1.0000
  N   N16       1.0  0.67709  0.08824  0.36626  1.0000
  N   N17       1.0  0.36613  0.67652  0.08744  1.0000
  N   N18       1.0  0.41156  0.32351  0.69016  1.0000
  N   N19       1.0  0.63374  0.72198  0.31083  1.0000
  N   N20       1.0  0.58918  0.27851  0.91259  1.0000
  N   N21       1.0  0.68918  0.41116  0.32291  1.0000
  N   N22       1.0  0.08742  0.36593  0.67659  1.0000
  N   N23       1.0  0.91256  0.58908  0.27869  1.0000
  N   N24       1.0  0.30985  0.63335  0.72140  1.0000
  N   N25       1.0  0.46269  0.64954  0.00000  1.0000
  N   N26       1.0  0.53740  0.53705  0.18678  1.0000
  N   N27       1.0  0.35062  0.35027  0.81322  1.0000
  N   N28       1.0  0.64977  0.46425  1.00000  1.0000
  N   N29       1.0  0.46260  0.99965  0.64938  1.0000
  N   N30       1.0  0.35023  0.81447  0.35023  1.0000
  N   N31       1.0  0.53731  0.18685  0.53731  1.0000
  N   N32       1.0  0.64938  0.99965  0.46260  1.0000
  N   N33       1.0  0.81322  0.35027  0.35062  1.0000
  N   N34       1.0  1.00000  0.64954  0.46269  1.0000
  N   N35       1.0  0.00000  0.46425  0.64977  1.0000
  N   N36       1.0  0.18678  0.53705  0.53740  1.0000
  O   O1        1.0  0.54406  0.69785  0.08528  1.0000
  O   O2        1.0  0.45594  0.54157  0.15430  1.0000
  O   O3        1.0  0.38820  0.30183  0.84704  1.0000
  O   O4        1.0  0.61281  0.46079  0.91472  1.0000
  O   O5        1.0  0.45883  0.91363  0.61180  1.0000
  O   O6        1.0  0.30191  0.84798  0.38719  1.0000
  O   O7        1.0  0.54122  0.15379  0.45594  1.0000
  O   O8        1.0  0.69836  0.08563  0.54406  1.0000
  O   O9        1.0  0.84570  0.38727  0.30164  1.0000
  O   O10       1.0  0.91472  0.61257  0.45878  1.0000
  O   O11       1.0  0.08528  0.54608  0.69809  1.0000
  O   O12       1.0  0.15297  0.45480  0.54117  1.0000
  O   O13       1.0  0.54406  0.08563  0.69836  1.0000
  O   O14       1.0  0.45594  0.15379  0.54122  1.0000
  O   O15       1.0  0.38719  0.84798  0.30191  1.0000
  O   O16       1.0  0.61180  0.91363  0.45883  1.0000
  O   O17       1.0  0.45878  0.61257  0.91472  1.0000
  O   O18       1.0  0.30164  0.38727  0.84570  1.0000
  O   O19       1.0  0.54117  0.45479  0.15296  1.0000
  O   O20       1.0  0.69809  0.54607  0.08528  1.0000
  O   O21       1.0  0.84703  0.30183  0.38820  1.0000
  O   O22       1.0  0.91472  0.46079  0.61281  1.0000
  O   O23       1.0  0.08528  0.69785  0.54406  1.0000
  O   O24       1.0  0.15430  0.54157  0.45594  1.0000
