data_image0
_chemical_formula_structural       Cd2H28C36N8
_chemical_formula_sum              "Cd2 H28 C36 N8"
_cell_length_a       10.5439
_cell_length_b       10.5439
_cell_length_c       10.5102
_cell_angle_alpha    120.106
_cell_angle_beta     120.106
_cell_angle_gamma    89.9998

_space_group_name_H-M_alt    "P 1"
_space_group_IT_number       1

loop_
  _space_group_symop_operation_xyz
  'x, y, z'

loop_
  _atom_site_type_symbol
  _atom_site_label
  _atom_site_symmetry_multiplicity
  _atom_site_fract_x
  _atom_site_fract_y
  _atom_site_fract_z
  _atom_site_occupancy
  Cd  Cd1       1.0  0.00000  0.00000  0.00000  1.0000
  Cd  Cd2       1.0  0.75000  0.25000  0.50000  1.0000
  H   H1        1.0  0.37501  0.64464  0.25001  1.0000
  H   H2        1.0  0.87500  0.60537  0.25001  1.0000
  H   H3        1.0  0.35536  0.12500  0.74999  1.0000
  H   H4        1.0  0.39463  0.62499  0.74999  1.0000
  H   H5        1.0  0.53826  0.48973  0.17970  1.0000
  H   H6        1.0  0.64144  0.68997  0.17970  1.0000
  H   H7        1.0  0.10856  0.76027  0.32031  1.0000
  H   H8        1.0  0.21174  0.56004  0.32031  1.0000
  H   H9        1.0  0.43996  0.89144  0.67969  1.0000
  H   H10       1.0  0.23973  0.78825  0.67969  1.0000
  H   H11       1.0  0.31003  0.46174  0.82030  1.0000
  H   H12       1.0  0.51027  0.35856  0.82030  1.0000
  H   H13       1.0  0.53586  0.25372  0.17593  1.0000
  H   H14       1.0  0.64007  0.92221  0.17593  1.0000
  H   H15       1.0  0.10992  0.99628  0.32407  1.0000
  H   H16       1.0  0.21415  0.32779  0.32407  1.0000
  H   H17       1.0  0.67221  0.89008  0.67593  1.0000
  H   H18       1.0  0.00372  0.78585  0.67593  1.0000
  H   H19       1.0  0.07779  0.46415  0.82407  1.0000
  H   H20       1.0  0.74628  0.35992  0.82407  1.0000
  H   H21       1.0  0.21372  0.80956  0.15054  1.0000
  H   H22       1.0  0.93682  0.34099  0.15054  1.0000
  H   H23       1.0  0.81318  0.44045  0.34945  1.0000
  H   H24       1.0  0.53628  0.90900  0.34945  1.0000
  H   H25       1.0  0.09100  0.18682  0.65055  1.0000
  H   H26       1.0  0.55955  0.46373  0.65055  1.0000
  H   H27       1.0  0.65901  0.78629  0.84946  1.0000
  H   H28       1.0  0.19044  0.06318  0.84946  1.0000
  C   C1        1.0  0.37500  0.54114  0.25001  1.0000
  C   C2        1.0  0.87500  0.70886  0.25000  1.0000
  C   C3        1.0  0.45886  0.12500  0.75000  1.0000
  C   C4        1.0  0.29114  0.62500  0.75000  1.0000
  C   C5        1.0  0.46709  0.45498  0.21184  1.0000
  C   C6        1.0  0.74475  0.75685  0.21184  1.0000
  C   C7        1.0  0.00525  0.79502  0.28817  1.0000
  C   C8        1.0  0.28293  0.49315  0.28817  1.0000
  C   C9        1.0  0.50684  0.99475  0.71182  1.0000
  C   C10       1.0  0.20498  0.71707  0.71183  1.0000
  C   C11       1.0  0.24315  0.53291  0.78816  1.0000
  C   C12       1.0  0.54501  0.25525  0.78816  1.0000
  C   C13       1.0  0.46687  0.32235  0.21105  1.0000
  C   C14       1.0  0.74417  0.88870  0.21105  1.0000
  C   C15       1.0  0.00582  0.92766  0.28896  1.0000
  C   C16       1.0  0.28313  0.36130  0.28896  1.0000
  C   C17       1.0  0.63870  0.99418  0.71104  1.0000
  C   C18       1.0  0.07234  0.71687  0.71104  1.0000
  C   C19       1.0  0.11130  0.53313  0.78895  1.0000
  C   C20       1.0  0.67765  0.25582  0.78895  1.0000
  C   C21       1.0  0.37500  0.27371  0.25000  1.0000
  C   C22       1.0  0.87500  0.97628  0.25000  1.0000
  C   C23       1.0  0.72628  0.12500  0.75000  1.0000
  C   C24       1.0  0.02372  0.62499  0.75000  1.0000
  C   C25       1.0  0.37500  0.13441  0.25000  1.0000
  C   C26       1.0  0.87500  0.11559  0.25000  1.0000
  C   C27       1.0  0.86559  0.12500  0.75000  1.0000
  C   C28       1.0  0.88441  0.62500  0.75000  1.0000
  C   C29       1.0  0.29510  0.91407  0.20253  1.0000
  C   C30       1.0  0.90743  0.28846  0.20253  1.0000
  C   C31       1.0  0.84257  0.33594  0.29747  1.0000
  C   C32       1.0  0.45490  0.96154  0.29747  1.0000
  C   C33       1.0  0.03846  0.15742  0.70252  1.0000
  C   C34       1.0  0.66407  0.54511  0.70253  1.0000
  C   C35       1.0  0.71154  0.70490  0.79747  1.0000
  C   C36       1.0  0.08594  0.09257  0.79748  1.0000
  N   N1        1.0  0.24539  0.02361  0.17362  1.0000
  N   N2        1.0  0.92823  0.15001  0.17362  1.0000
  N   N3        1.0  0.82177  0.22639  0.32638  1.0000
  N   N4        1.0  0.50461  0.09999  0.32638  1.0000
  N   N5        1.0  0.90001  0.17823  0.67362  1.0000
  N   N6        1.0  0.77361  0.49539  0.67362  1.0000
  N   N7        1.0  0.85000  0.75461  0.82638  1.0000
  N   N8        1.0  0.97638  0.07177  0.82638  1.0000
