data_image0
_chemical_formula_structural       Cu4H20C36N16O16
_chemical_formula_sum              "Cu4 H20 C36 N16 O16"
_cell_length_a       10.1222
_cell_length_b       10.2519
_cell_length_c       12.7739
_cell_angle_alpha    113.662
_cell_angle_beta     114.386
_cell_angle_gamma    89.9966

_space_group_name_H-M_alt    "P 1"
_space_group_IT_number       1

loop_
  _space_group_symop_operation_xyz
  'x, y, z'

loop_
  _atom_site_type_symbol
  _atom_site_label
  _atom_site_symmetry_multiplicity
  _atom_site_fract_x
  _atom_site_fract_y
  _atom_site_fract_z
  _atom_site_occupancy
  Cu  Cu1       1.0  0.97061  0.55294  0.31016  1.0000
  Cu  Cu2       1.0  0.52951  0.24277  0.68998  1.0000
  Cu  Cu3       1.0  0.02940  0.44705  0.68983  1.0000
  Cu  Cu4       1.0  0.47049  0.75723  0.31002  1.0000
  H   H1        1.0  0.97894  0.04149  0.65496  1.0000
  H   H2        1.0  0.52081  0.38624  0.34503  1.0000
  H   H3        1.0  0.02107  0.95853  0.34504  1.0000
  H   H4        1.0  0.47919  0.61379  0.65498  1.0000
  H   H5        1.0  0.07411  0.29786  0.35171  1.0000
  H   H6        1.0  0.42512  0.94631  0.64823  1.0000
  H   H7        1.0  0.92596  0.70215  0.64829  1.0000
  H   H8        1.0  0.57486  0.05370  0.35178  1.0000
  H   H9        1.0  0.09129  0.05063  0.21942  1.0000
  H   H10       1.0  0.40767  0.83141  0.78043  1.0000
  H   H11       1.0  0.90878  0.94939  0.78057  1.0000
  H   H12       1.0  0.59230  0.16858  0.21956  1.0000
  H   H13       1.0  0.90326  0.15065  0.89379  1.0000
  H   H14       1.0  0.59870  0.25655  0.10666  1.0000
  H   H15       1.0  0.09664  0.84931  0.10619  1.0000
  H   H16       1.0  0.40133  0.74344  0.89336  1.0000
  H   H17       1.0  0.89709  0.39044  0.03899  1.0000
  H   H18       1.0  0.60459  0.35118  0.96138  1.0000
  H   H19       1.0  0.10288  0.60954  0.96100  1.0000
  H   H20       1.0  0.39542  0.64882  0.03864  1.0000
  C   C1        1.0  0.76531  0.71074  0.36732  1.0000
  C   C2        1.0  0.73475  0.34325  0.63271  1.0000
  C   C3        1.0  0.23469  0.28927  0.63267  1.0000
  C   C4        1.0  0.26525  0.65675  0.36729  1.0000
  C   C5        1.0  0.67693  0.57178  0.24590  1.0000
  C   C6        1.0  0.82316  0.32548  0.75402  1.0000
  C   C7        1.0  0.32307  0.42822  0.75409  1.0000
  C   C8        1.0  0.17684  0.67452  0.24597  1.0000
  C   C9        1.0  0.99903  0.84735  0.52961  1.0000
  C   C10       1.0  0.50091  0.31807  0.47072  1.0000
  C   C11       1.0  0.00097  0.15266  0.47038  1.0000
  C   C12       1.0  0.49910  0.68194  0.52929  1.0000
  C   C13       1.0  0.76580  0.93315  0.52092  1.0000
  C   C14       1.0  0.73405  0.41189  0.47893  1.0000
  C   C15       1.0  0.23422  0.06686  0.47907  1.0000
  C   C16       1.0  0.26594  0.58812  0.52106  1.0000
  C   C17       1.0  0.03583  0.25844  0.24916  1.0000
  C   C18       1.0  0.46378  0.00936  0.75085  1.0000
  C   C19       1.0  0.96420  0.74156  0.75083  1.0000
  C   C20       1.0  0.53621  0.99065  0.24917  1.0000
  C   C21       1.0  0.04416  0.11984  0.17342  1.0000
  C   C22       1.0  0.45534  0.94651  0.82654  1.0000
  C   C23       1.0  0.95584  0.88015  0.82657  1.0000
  C   C24       1.0  0.54464  0.05348  0.17346  1.0000
  C   C25       1.0  0.99647  0.07369  0.04185  1.0000
  C   C26       1.0  0.50371  0.03183  0.95822  1.0000
  C   C27       1.0  0.00350  0.92630  0.95814  1.0000
  C   C28       1.0  0.49630  0.96815  0.04179  1.0000
  C   C29       1.0  0.94286  0.17439  0.99385  1.0000
  C   C30       1.0  0.55836  0.18037  0.00646  1.0000
  C   C31       1.0  0.05711  0.82559  0.00614  1.0000
  C   C32       1.0  0.44165  0.81962  0.99355  1.0000
  C   C33       1.0  0.93798  0.31141  0.07513  1.0000
  C   C34       1.0  0.56319  0.23611  0.92518  1.0000
  C   C35       1.0  0.06198  0.68857  0.92486  1.0000
  C   C36       1.0  0.43682  0.76388  0.07484  1.0000
  N   N1        1.0  0.91212  0.72419  0.41742  1.0000
  N   N2        1.0  0.58793  0.30694  0.58281  1.0000
  N   N3        1.0  0.08789  0.27582  0.58258  1.0000
  N   N4        1.0  0.41207  0.69307  0.41719  1.0000
  N   N5        1.0  0.91885  0.94665  0.57597  1.0000
  N   N6        1.0  0.58100  0.37042  0.42400  1.0000
  N   N7        1.0  0.08116  0.05336  0.42402  1.0000
  N   N8        1.0  0.41900  0.62960  0.57600  1.0000
  N   N9        1.0  0.68977  0.80480  0.41105  1.0000
  N   N10       1.0  0.81019  0.39344  0.58883  1.0000
  N   N11       1.0  0.31023  0.19519  0.58894  1.0000
  N   N12       1.0  0.18982  0.60656  0.41117  1.0000
  N   N13       1.0  0.98324  0.35272  0.20077  1.0000
  N   N14       1.0  0.51708  0.15189  0.79939  1.0000
  N   N15       1.0  0.01678  0.64728  0.79922  1.0000
  N   N16       1.0  0.48292  0.84812  0.20064  1.0000
  O   O1        1.0  0.75441  0.49466  0.19687  1.0000
  O   O2        1.0  0.74575  0.29753  0.80314  1.0000
  O   O3        1.0  0.24559  0.50533  0.80313  1.0000
  O   O4        1.0  0.25425  0.70247  0.19685  1.0000
  O   O5        1.0  0.53941  0.54339  0.20220  1.0000
  O   O6        1.0  0.96067  0.34050  0.79757  1.0000
  O   O7        1.0  0.46059  0.45661  0.79780  1.0000
  O   O8        1.0  0.03933  0.65948  0.20241  1.0000
  O   O9        1.0  0.13497  0.87186  0.58627  1.0000
  O   O10       1.0  0.36494  0.28648  0.41445  1.0000
  O   O11       1.0  0.86504  0.12815  0.41372  1.0000
  O   O12       1.0  0.63508  0.71354  0.58556  1.0000
  O   O13       1.0  0.70485  0.02789  0.56701  1.0000
  O   O14       1.0  0.79488  0.46035  0.43268  1.0000
  O   O15       1.0  0.29516  0.97212  0.43298  1.0000
  O   O16       1.0  0.20512  0.53966  0.56733  1.0000
