data_image0
_chemical_formula_structural       Cu4H20C36N16O16
_chemical_formula_sum              "Cu4 H20 C36 N16 O16"
_cell_length_a       10.3182
_cell_length_b       9.94215
_cell_length_c       12.6732
_cell_angle_alpha    113.091
_cell_angle_beta     113.75
_cell_angle_gamma    90.0071

_space_group_name_H-M_alt    "P 1"
_space_group_IT_number       1

loop_
  _space_group_symop_operation_xyz
  'x, y, z'

loop_
  _atom_site_type_symbol
  _atom_site_label
  _atom_site_symmetry_multiplicity
  _atom_site_fract_x
  _atom_site_fract_y
  _atom_site_fract_z
  _atom_site_occupancy
  Cu  Cu1       1.0  0.97529  0.56616  0.31477  1.0000
  Cu  Cu2       1.0  0.52517  0.25132  0.68530  1.0000
  Cu  Cu3       1.0  0.02526  0.43400  0.68546  1.0000
  Cu  Cu4       1.0  0.47537  0.74873  0.31493  1.0000
  H   H1        1.0  0.96103  0.05021  0.66302  1.0000
  H   H2        1.0  0.53818  0.38691  0.33664  1.0000
  H   H3        1.0  0.03803  0.94989  0.33650  1.0000
  H   H4        1.0  0.46093  0.61251  0.66288  1.0000
  H   H5        1.0  0.10187  0.31133  0.35550  1.0000
  H   H6        1.0  0.39831  0.95654  0.64458  1.0000
  H   H7        1.0  0.89832  0.68791  0.64465  1.0000
  H   H8        1.0  0.60189  0.04436  0.35560  1.0000
  H   H9        1.0  0.11756  0.05874  0.22143  1.0000
  H   H10       1.0  0.38264  0.83755  0.77843  1.0000
  H   H11       1.0  0.88257  0.94075  0.77842  1.0000
  H   H12       1.0  0.61758  0.16281  0.22147  1.0000
  H   H13       1.0  0.88634  0.15045  0.89267  1.0000
  H   H14       1.0  0.61375  0.25790  0.10746  1.0000
  H   H15       1.0  0.11372  0.84971  0.10755  1.0000
  H   H16       1.0  0.38631  0.74218  0.89278  1.0000
  H   H17       1.0  0.88736  0.39829  0.04012  1.0000
  H   H18       1.0  0.61274  0.35869  0.96020  1.0000
  H   H19       1.0  0.11275  0.60167  0.96045  1.0000
  H   H20       1.0  0.38740  0.64193  0.04034  1.0000
  C   C1        1.0  0.76728  0.71268  0.37406  1.0000
  C   C2        1.0  0.73272  0.33959  0.62591  1.0000
  C   C3        1.0  0.23276  0.28625  0.62602  1.0000
  C   C4        1.0  0.26730  0.66160  0.37421  1.0000
  C   C5        1.0  0.68673  0.57232  0.25116  1.0000
  C   C6        1.0  0.81363  0.32070  0.74816  1.0000
  C   C7        1.0  0.31375  0.42710  0.74847  1.0000
  C   C8        1.0  0.18682  0.67948  0.25151  1.0000
  C   C9        1.0  0.99037  0.85934  0.53566  1.0000
  C   C10       1.0  0.50941  0.32430  0.46465  1.0000
  C   C11       1.0  0.00933  0.14047  0.46468  1.0000
  C   C12       1.0  0.49031  0.67627  0.53570  1.0000
  C   C13       1.0  0.75760  0.93063  0.53085  1.0000
  C   C14       1.0  0.74193  0.40056  0.46897  1.0000
  C   C15       1.0  0.24179  0.06862  0.46875  1.0000
  C   C16       1.0  0.25747  0.59980  0.53066  1.0000
  C   C17       1.0  0.05485  0.26962  0.25218  1.0000
  C   C18       1.0  0.44534  0.01795  0.74791  1.0000
  C   C19       1.0  0.94534  0.72988  0.74799  1.0000
  C   C20       1.0  0.55487  0.98273  0.25227  1.0000
  C   C21       1.0  0.06126  0.12726  0.17545  1.0000
  C   C22       1.0  0.43893  0.95209  0.82451  1.0000
  C   C23       1.0  0.93888  0.87235  0.82452  1.0000
  C   C24       1.0  0.56127  0.04832  0.17550  1.0000
  C   C25       1.0  0.99897  0.07622  0.04235  1.0000
  C   C26       1.0  0.50118  0.03406  0.95766  1.0000
  C   C27       1.0  0.00115  0.92359  0.95766  1.0000
  C   C28       1.0  0.49897  0.96617  0.04238  1.0000
  C   C29       1.0  0.93590  0.17724  0.99388  1.0000
  C   C30       1.0  0.56429  0.18360  0.00624  1.0000
  C   C31       1.0  0.06423  0.82271  0.00630  1.0000
  C   C32       1.0  0.43585  0.81665  0.99397  1.0000
  C   C33       1.0  0.93517  0.31876  0.07640  1.0000
  C   C34       1.0  0.56501  0.24282  0.92383  1.0000
  C   C35       1.0  0.06500  0.68109  0.92398  1.0000
  C   C36       1.0  0.43517  0.75775  0.07657  1.0000
  N   N1        1.0  0.91078  0.73330  0.42310  1.0000
  N   N2        1.0  0.58919  0.31138  0.57739  1.0000
  N   N3        1.0  0.08924  0.26601  0.57751  1.0000
  N   N4        1.0  0.41080  0.68995  0.42324  1.0000
  N   N5        1.0  0.90717  0.95141  0.58538  1.0000
  N   N6        1.0  0.59235  0.36629  0.41453  1.0000
  N   N7        1.0  0.09221  0.04837  0.41446  1.0000
  N   N8        1.0  0.40705  0.63377  0.58531  1.0000
  N   N9        1.0  0.68862  0.80091  0.41993  1.0000
  N   N10       1.0  0.81127  0.38206  0.57994  1.0000
  N   N11       1.0  0.31123  0.19788  0.57987  1.0000
  N   N12       1.0  0.18857  0.61895  0.41991  1.0000
  N   N13       1.0  0.99221  0.36384  0.20354  1.0000
  N   N14       1.0  0.50798  0.16087  0.79671  1.0000
  N   N15       1.0  0.00801  0.63583  0.79685  1.0000
  N   N16       1.0  0.49224  0.83987  0.20369  1.0000
  O   O1        1.0  0.76538  0.50504  0.19847  1.0000
  O   O2        1.0  0.73534  0.30488  0.80079  1.0000
  O   O3        1.0  0.23544  0.49568  0.80100  1.0000
  O   O4        1.0  0.26547  0.69393  0.19876  1.0000
  O   O5        1.0  0.55383  0.53409  0.20999  1.0000
  O   O6        1.0  0.94646  0.32329  0.78881  1.0000
  O   O7        1.0  0.44666  0.46492  0.78929  1.0000
  O   O8        1.0  0.05398  0.67690  0.21050  1.0000
  O   O9        1.0  0.12277  0.89178  0.58948  1.0000
  O   O10       1.0  0.37699  0.30261  0.41089  1.0000
  O   O11       1.0  0.87690  0.10846  0.41094  1.0000
  O   O12       1.0  0.62270  0.69759  0.58950  1.0000
  O   O13       1.0  0.69276  0.02106  0.57805  1.0000
  O   O14       1.0  0.80636  0.44370  0.42142  1.0000
  O   O15       1.0  0.30619  0.97811  0.42099  1.0000
  O   O16       1.0  0.19263  0.55618  0.57766  1.0000
