data_image0
_chemical_formula_structural       Zn4H16C16S16N24
_chemical_formula_sum              "Zn4 H16 C16 S16 N24"
_cell_length_a       8.11984
_cell_length_b       11.2136
_cell_length_c       11.1159
_cell_angle_alpha    89.9999
_cell_angle_beta     90.0001
_cell_angle_gamma    89.9999

_space_group_name_H-M_alt    "P 1"
_space_group_IT_number       1

loop_
  _space_group_symop_operation_xyz
  'x, y, z'

loop_
  _atom_site_type_symbol
  _atom_site_label
  _atom_site_symmetry_multiplicity
  _atom_site_fract_x
  _atom_site_fract_y
  _atom_site_fract_z
  _atom_site_occupancy
  Zn  Zn1       1.0  0.87852  0.62413  0.36100  1.0000
  Zn  Zn2       1.0  0.62148  0.37587  0.86100  1.0000
  Zn  Zn3       1.0  0.12148  0.12413  0.13900  1.0000
  Zn  Zn4       1.0  0.37852  0.87587  0.63900  1.0000
  H   H1        1.0  0.77390  0.19726  0.17727  1.0000
  H   H2        1.0  0.72610  0.80274  0.67727  1.0000
  H   H3        1.0  0.22610  0.69726  0.32273  1.0000
  H   H4        1.0  0.27390  0.30274  0.82273  1.0000
  H   H5        1.0  0.60298  0.15336  0.26084  1.0000
  H   H6        1.0  0.89702  0.84664  0.76084  1.0000
  H   H7        1.0  0.39702  0.65336  0.23916  1.0000
  H   H8        1.0  0.10298  0.34664  0.73916  1.0000
  H   H9        1.0  0.87548  0.52609  0.72917  1.0000
  H   H10       1.0  0.62452  0.47391  0.22917  1.0000
  H   H11       1.0  0.12452  0.02609  0.77083  1.0000
  H   H12       1.0  0.37548  0.97391  0.27083  1.0000
  H   H13       1.0  0.01844  0.63180  0.77803  1.0000
  H   H14       1.0  0.48156  0.36820  0.27803  1.0000
  H   H15       1.0  0.98155  0.13180  0.72197  1.0000
  H   H16       1.0  0.51845  0.86820  0.22197  1.0000
  C   C1        1.0  0.94860  0.89072  0.39236  1.0000
  C   C2        1.0  0.55140  0.10928  0.89236  1.0000
  C   C3        1.0  0.05140  0.39072  0.10764  1.0000
  C   C4        1.0  0.44860  0.60928  0.60764  1.0000
  C   C5        1.0  0.81769  0.06003  0.29245  1.0000
  C   C6        1.0  0.68231  0.93997  0.79245  1.0000
  C   C7        1.0  0.18231  0.56003  0.20755  1.0000
  C   C8        1.0  0.31769  0.43997  0.70755  1.0000
  C   C9        1.0  0.73500  0.64621  0.09597  1.0000
  C   C10       1.0  0.76500  0.35379  0.59597  1.0000
  C   C11       1.0  0.26500  0.14621  0.40403  1.0000
  C   C12       1.0  0.23500  0.85379  0.90403  1.0000
  C   C13       1.0  0.84734  0.58664  0.90276  1.0000
  C   C14       1.0  0.65266  0.41336  0.40276  1.0000
  C   C15       1.0  0.15266  0.08664  0.59724  1.0000
  C   C16       1.0  0.34734  0.91337  0.09724  1.0000
  S   S1        1.0  0.89539  0.69912  0.00466  1.0000
  S   S2        1.0  0.60461  0.30088  0.50465  1.0000
  S   S3        1.0  0.10461  0.19912  0.49535  1.0000
  S   S4        1.0  0.39539  0.80088  0.99535  1.0000
  S   S5        1.0  0.68547  0.71161  0.23183  1.0000
  S   S6        1.0  0.81453  0.28839  0.73183  1.0000
  S   S7        1.0  0.31453  0.21162  0.26817  1.0000
  S   S8        1.0  0.18547  0.78839  0.76817  1.0000
  S   S9        1.0  0.75926  0.96768  0.41066  1.0000
  S   S10       1.0  0.74074  0.03232  0.91066  1.0000
  S   S11       1.0  0.24074  0.46767  0.08934  1.0000
  S   S12       1.0  0.25926  0.53233  0.58934  1.0000
  S   S13       1.0  0.00043  0.76703  0.47870  1.0000
  S   S14       1.0  0.49957  0.23297  0.97871  1.0000
  S   S15       1.0  0.99957  0.26703  0.02129  1.0000
  S   S16       1.0  0.50043  0.73297  0.52129  1.0000
  N   N1        1.0  0.04027  0.93710  0.30790  1.0000
  N   N2        1.0  0.45973  0.06290  0.80790  1.0000
  N   N3        1.0  0.95973  0.43710  0.19209  1.0000
  N   N4        1.0  0.54027  0.56290  0.69210  1.0000
  N   N5        1.0  0.65886  0.55372  0.05047  1.0000
  N   N6        1.0  0.84114  0.44628  0.55047  1.0000
  N   N7        1.0  0.34114  0.05373  0.44953  1.0000
  N   N8        1.0  0.15886  0.94627  0.94953  1.0000
  N   N9        1.0  0.72266  0.51913  0.94188  1.0000
  N   N10       1.0  0.77734  0.48087  0.44188  1.0000
  N   N11       1.0  0.27734  0.01913  0.55812  1.0000
  N   N12       1.0  0.22266  0.98087  0.05812  1.0000
  N   N13       1.0  0.96770  0.03243  0.25172  1.0000
  N   N14       1.0  0.53230  0.96757  0.75172  1.0000
  N   N15       1.0  0.03230  0.53243  0.24828  1.0000
  N   N16       1.0  0.46770  0.46757  0.74828  1.0000
  N   N17       1.0  0.72789  0.15054  0.24893  1.0000
  N   N18       1.0  0.77211  0.84946  0.74893  1.0000
  N   N19       1.0  0.27211  0.65053  0.25107  1.0000
  N   N20       1.0  0.22789  0.34946  0.75107  1.0000
  N   N21       1.0  0.92759  0.57195  0.79889  1.0000
  N   N22       1.0  0.57242  0.42805  0.29889  1.0000
  N   N23       1.0  0.07241  0.07195  0.70111  1.0000
  N   N24       1.0  0.42759  0.92805  0.20111  1.0000
