data_image0
_chemical_formula_structural       Cd4H32C36O32
_chemical_formula_sum              "Cd4 H32 C36 O32"
_cell_length_a       9.14744
_cell_length_b       10.8191
_cell_length_c       13.2317
_cell_angle_alpha    95.6405
_cell_angle_beta     110.666
_cell_angle_gamma    114.879

_space_group_name_H-M_alt    "P 1"
_space_group_IT_number       1

loop_
  _space_group_symop_operation_xyz
  'x, y, z'

loop_
  _atom_site_type_symbol
  _atom_site_label
  _atom_site_symmetry_multiplicity
  _atom_site_fract_x
  _atom_site_fract_y
  _atom_site_fract_z
  _atom_site_occupancy
  Cd  Cd1       1.0  0.52101  0.43091  0.80544  1.0000
  Cd  Cd2       1.0  0.78199  0.06954  0.69398  1.0000
  Cd  Cd3       1.0  0.47899  0.56909  0.19456  1.0000
  Cd  Cd4       1.0  0.21800  0.93046  0.30602  1.0000
  H   H1        1.0  0.83837  0.73305  0.51966  1.0000
  H   H2        1.0  0.08806  0.76773  0.97914  1.0000
  H   H3        1.0  0.16163  0.26695  0.48035  1.0000
  H   H4        1.0  0.91194  0.23227  0.02087  1.0000
  H   H5        1.0  0.29904  0.68164  0.57109  1.0000
  H   H6        1.0  0.54774  0.81791  0.92885  1.0000
  H   H7        1.0  0.70096  0.31836  0.42891  1.0000
  H   H8        1.0  0.45226  0.18209  0.07115  1.0000
  H   H9        1.0  0.97433  0.49397  0.74064  1.0000
  H   H10       1.0  0.23834  0.00666  0.75856  1.0000
  H   H11       1.0  0.02567  0.50603  0.25936  1.0000
  H   H12       1.0  0.76165  0.99334  0.24144  1.0000
  H   H13       1.0  0.53532  0.60302  0.63698  1.0000
  H   H14       1.0  0.79607  0.89726  0.86279  1.0000
  H   H15       1.0  0.46468  0.39698  0.36302  1.0000
  H   H16       1.0  0.20393  0.10274  0.13721  1.0000
  H   H17       1.0  0.61077  0.65522  0.99791  1.0000
  H   H18       1.0  0.45543  0.84345  0.50137  1.0000
  H   H19       1.0  0.38923  0.34478  0.00209  1.0000
  H   H20       1.0  0.54457  0.15655  0.49863  1.0000
  H   H21       1.0  0.37496  0.13768  0.67415  1.0000
  H   H22       1.0  0.06246  0.36253  0.82547  1.0000
  H   H23       1.0  0.62504  0.86232  0.32585  1.0000
  H   H24       1.0  0.93754  0.63747  0.17453  1.0000
  H   H25       1.0  0.21194  0.17354  0.62690  1.0000
  H   H26       1.0  0.91181  0.32750  0.87247  1.0000
  H   H27       1.0  0.78806  0.82646  0.37310  1.0000
  H   H28       1.0  0.08819  0.67250  0.12753  1.0000
  H   H29       1.0  0.79750  0.66721  0.01651  1.0000
  H   H30       1.0  0.61332  0.83396  0.48344  1.0000
  H   H31       1.0  0.20250  0.33279  0.98349  1.0000
  H   H32       1.0  0.38668  0.16604  0.51655  1.0000
  C   C1        1.0  0.89130  0.60956  0.63247  1.0000
  C   C2        1.0  0.14987  0.89114  0.86656  1.0000
  C   C3        1.0  0.10870  0.39044  0.36753  1.0000
  C   C4        1.0  0.85013  0.10885  0.13343  1.0000
  C   C5        1.0  0.92587  0.69099  0.55958  1.0000
  C   C6        1.0  0.17693  0.80954  0.93936  1.0000
  C   C7        1.0  0.07413  0.30901  0.44042  1.0000
  C   C8        1.0  0.82307  0.19046  0.06064  1.0000
  C   C9        1.0  0.07303  0.71655  0.53734  1.0000
  C   C10       1.0  0.32089  0.78350  0.96183  1.0000
  C   C11       1.0  0.92697  0.28345  0.46266  1.0000
  C   C12       1.0  0.67911  0.21650  0.03817  1.0000
  C   C13       1.0  0.18527  0.66225  0.58896  1.0000
  C   C14       1.0  0.43522  0.83763  0.91063  1.0000
  C   C15       1.0  0.81473  0.33775  0.41105  1.0000
  C   C16       1.0  0.56478  0.16236  0.08937  1.0000
  C   C17       1.0  0.15167  0.58271  0.66301  1.0000
  C   C18       1.0  0.40598  0.91737  0.83649  1.0000
  C   C19       1.0  0.84834  0.41729  0.33699  1.0000
  C   C20       1.0  0.59402  0.08262  0.16351  1.0000
  C   C21       1.0  0.00438  0.55646  0.68419  1.0000
  C   C22       1.0  0.26338  0.94403  0.81502  1.0000
  C   C23       1.0  0.99562  0.44354  0.31581  1.0000
  C   C24       1.0  0.73663  0.05597  0.18498  1.0000
  C   C25       1.0  0.73882  0.57625  0.66087  1.0000
  C   C26       1.0  0.00180  0.92453  0.83854  1.0000
  C   C27       1.0  0.26118  0.42375  0.33913  1.0000
  C   C28       1.0  0.99820  0.07547  0.16146  1.0000
  C   C29       1.0  0.10713  0.79662  0.45515  1.0000
  C   C30       1.0  0.35753  0.70338  0.04420  1.0000
  C   C31       1.0  0.89287  0.20338  0.54485  1.0000
  C   C32       1.0  0.64247  0.29662  0.95580  1.0000
  C   C33       1.0  0.26882  0.52332  0.71810  1.0000
  C   C34       1.0  0.52662  0.97642  0.78163  1.0000
  C   C35       1.0  0.73118  0.47668  0.28190  1.0000
  C   C36       1.0  0.47337  0.02358  0.21837  1.0000
  O   O1        1.0  0.71930  0.50485  0.72802  1.0000
  O   O2        1.0  0.98514  0.99648  0.77183  1.0000
  O   O3        1.0  0.28070  0.49515  0.27198  1.0000
  O   O4        1.0  0.01486  0.00352  0.22817  1.0000
  O   O5        1.0  0.63428  0.62843  0.61195  1.0000
  O   O6        1.0  0.89531  0.87181  0.88739  1.0000
  O   O7        1.0  0.36573  0.37157  0.38805  1.0000
  O   O8        1.0  0.10469  0.12820  0.11262  1.0000
  O   O9        1.0  0.01328  0.85234  0.41070  1.0000
  O   O10       1.0  0.25265  0.64895  0.08854  1.0000
  O   O11       1.0  0.98672  0.14766  0.58930  1.0000
  O   O12       1.0  0.74734  0.35105  0.91146  1.0000
  O   O13       1.0  0.23364  0.80269  0.42963  1.0000
  O   O14       1.0  0.50293  0.69577  0.07028  1.0000
  O   O15       1.0  0.76635  0.19731  0.57036  1.0000
  O   O16       1.0  0.49707  0.30423  0.92972  1.0000
  O   O17       1.0  0.39797  0.54210  0.69191  1.0000
  O   O18       1.0  0.66421  0.95821  0.80845  1.0000
  O   O19       1.0  0.60203  0.45790  0.30809  1.0000
  O   O20       1.0  0.33579  0.04179  0.19154  1.0000
  O   O21       1.0  0.24102  0.45556  0.78813  1.0000
  O   O22       1.0  0.49492  0.04351  0.71094  1.0000
  O   O23       1.0  0.75898  0.54444  0.21187  1.0000
  O   O24       1.0  0.50507  0.95649  0.28906  1.0000
  O   O25       1.0  0.34124  0.20909  0.64770  1.0000
  O   O26       1.0  0.98401  0.29151  0.85177  1.0000
  O   O27       1.0  0.65876  0.79091  0.35230  1.0000
  O   O28       1.0  0.01599  0.70849  0.14823  1.0000
  O   O29       1.0  0.67816  0.64044  0.95781  1.0000
  O   O30       1.0  0.57951  0.86049  0.54163  1.0000
  O   O31       1.0  0.32184  0.35956  0.04219  1.0000
  O   O32       1.0  0.42049  0.13952  0.45837  1.0000
