data_image0
_chemical_formula_structural       CrH16C8Br2O2
_chemical_formula_sum              "Cr1 H16 C8 Br2 O2"
_cell_length_a       4.05788
_cell_length_b       7.41504
_cell_length_c       9.1961
_cell_angle_alpha    87.4075
_cell_angle_beta     78.7343
_cell_angle_gamma    87.1341

_space_group_name_H-M_alt    "P 1"
_space_group_IT_number       1

loop_
  _space_group_symop_operation_xyz
  'x, y, z'

loop_
  _atom_site_type_symbol
  _atom_site_label
  _atom_site_symmetry_multiplicity
  _atom_site_fract_x
  _atom_site_fract_y
  _atom_site_fract_z
  _atom_site_occupancy
  Cr  Cr1       1.0  0.50000  0.50000  0.50000  1.0000
  H   H1        1.0  0.41089  0.47119  0.85031  1.0000
  H   H2        1.0  0.58911  0.52881  0.14969  1.0000
  H   H3        1.0  0.00552  0.57034  0.83932  1.0000
  H   H4        1.0  0.99448  0.42966  0.16068  1.0000
  H   H5        1.0  0.01035  0.95558  0.83369  1.0000
  H   H6        1.0  0.98965  0.04442  0.16631  1.0000
  H   H7        1.0  0.39716  0.03894  0.85752  1.0000
  H   H8        1.0  0.60284  0.96106  0.14248  1.0000
  H   H9        1.0  0.57735  0.74249  0.95237  1.0000
  H   H10       1.0  0.42265  0.25751  0.04763  1.0000
  H   H11       1.0  0.14485  0.75047  0.03532  1.0000
  H   H12       1.0  0.85515  0.24953  0.96468  1.0000
  H   H13       1.0  0.31762  0.91641  0.58662  1.0000
  H   H14       1.0  0.68238  0.08359  0.41339  1.0000
  H   H15       1.0  0.71105  0.88287  0.64624  1.0000
  H   H16       1.0  0.28895  0.11713  0.35377  1.0000
  C   C1        1.0  0.27200  0.59828  0.83209  1.0000
  C   C2        1.0  0.72800  0.40172  0.16791  1.0000
  C   C3        1.0  0.27795  0.91933  0.82902  1.0000
  C   C4        1.0  0.72206  0.08067  0.17098  1.0000
  C   C5        1.0  0.32191  0.75186  0.92851  1.0000
  C   C6        1.0  0.67809  0.24814  0.07149  1.0000
  C   C7        1.0  0.44108  0.85853  0.67493  1.0000
  C   C8        1.0  0.55892  0.14147  0.32507  1.0000
  Br  Br1       1.0  0.11521  0.70621  0.37201  1.0000
  Br  Br2       1.0  0.88478  0.29379  0.62799  1.0000
  O   O1        1.0  0.40522  0.66217  0.68080  1.0000
  O   O2        1.0  0.59477  0.33783  0.31920  1.0000
