data_image0
_chemical_formula_structural       Cu2H22C28N2O6
_chemical_formula_sum              "Cu2 H22 C28 N2 O6"
_cell_length_a       4.7918
_cell_length_b       9.91354
_cell_length_c       15.909
_cell_angle_alpha    92.5636
_cell_angle_beta     90.0011
_cell_angle_gamma    90.0011

_space_group_name_H-M_alt    "P 1"
_space_group_IT_number       1

loop_
  _space_group_symop_operation_xyz
  'x, y, z'

loop_
  _atom_site_type_symbol
  _atom_site_label
  _atom_site_symmetry_multiplicity
  _atom_site_fract_x
  _atom_site_fract_y
  _atom_site_fract_z
  _atom_site_occupancy
  Cu  Cu1       1.0  0.69955  0.95562  0.42027  1.0000
  Cu  Cu2       1.0  0.19960  0.04439  0.57972  1.0000
  H   H1        1.0  0.55637  0.62827  0.13561  1.0000
  H   H2        1.0  0.05647  0.37174  0.86438  1.0000
  H   H3        1.0  0.63701  0.55812  0.99007  1.0000
  H   H4        1.0  0.13702  0.44186  0.00993  1.0000
  H   H5        1.0  0.99381  0.67330  0.90348  1.0000
  H   H6        1.0  0.49378  0.32666  0.09654  1.0000
  H   H7        1.0  0.26930  0.86404  0.96898  1.0000
  H   H8        1.0  0.76930  0.13595  0.03103  1.0000
  H   H9        1.0  0.37347  0.01657  0.08661  1.0000
  H   H10       1.0  0.87353  0.98343  0.91338  1.0000
  H   H11       1.0  0.29964  0.09769  0.23515  1.0000
  H   H12       1.0  0.79969  0.90233  0.76485  1.0000
  H   H13       1.0  0.51332  0.68549  0.24864  1.0000
  H   H14       1.0  0.01337  0.31452  0.75136  1.0000
  H   H15       1.0  0.17663  0.69851  0.35778  1.0000
  H   H16       1.0  0.67664  0.30148  0.64221  1.0000
  H   H17       1.0  0.55872  0.53008  0.37630  1.0000
  H   H18       1.0  0.05873  0.46993  0.62370  1.0000
  H   H19       1.0  0.34313  0.53973  0.46741  1.0000
  H   H20       1.0  0.84313  0.46027  0.53259  1.0000
  H   H21       1.0  0.67489  0.62363  0.46832  1.0000
  H   H22       1.0  0.17489  0.37639  0.53168  1.0000
  C   C1        1.0  0.98154  0.95094  0.26053  1.0000
  C   C2        1.0  0.48158  0.04908  0.73947  1.0000
  C   C3        1.0  0.82494  0.83763  0.22729  1.0000
  C   C4        1.0  0.32499  0.16238  0.77271  1.0000
  C   C5        1.0  0.86682  0.78985  0.14050  1.0000
  C   C6        1.0  0.36684  0.21014  0.85950  1.0000
  C   C7        1.0  0.71654  0.68107  0.10129  1.0000
  C   C8        1.0  0.21656  0.31892  0.89871  1.0000
  C   C9        1.0  0.76085  0.64084  0.01789  1.0000
  C   C10       1.0  0.26087  0.35914  0.98212  1.0000
  C   C11       1.0  0.96016  0.70613  0.96902  1.0000
  C   C12       1.0  0.46017  0.29385  0.03099  1.0000
  C   C13       1.0  0.11146  0.81230  0.00514  1.0000
  C   C14       1.0  0.61147  0.18769  0.99486  1.0000
  C   C15       1.0  0.06709  0.85622  0.08987  1.0000
  C   C16       1.0  0.56711  0.14376  0.91013  1.0000
  C   C17       1.0  0.22108  0.96746  0.12597  1.0000
  C   C18       1.0  0.72115  0.03255  0.87403  1.0000
  C   C19       1.0  0.18101  0.01319  0.20722  1.0000
  C   C20       1.0  0.68104  0.98681  0.79278  1.0000
  C   C21       1.0  0.62431  0.77244  0.27765  1.0000
  C   C22       1.0  0.12436  0.22757  0.72234  1.0000
  C   C23       1.0  0.35482  0.72428  0.39938  1.0000
  C   C24       1.0  0.85484  0.27572  0.60062  1.0000
  C   C25       1.0  0.49162  0.59566  0.42998  1.0000
  C   C26       1.0  0.99162  0.40435  0.57003  1.0000
  C   C27       1.0  0.23816  0.80701  0.47491  1.0000
  C   C28       1.0  0.73821  0.19298  0.52509  1.0000
  N   N1        1.0  0.55730  0.80552  0.35515  1.0000
  N   N2        1.0  0.05732  0.19449  0.64485  1.0000
  O   O1        1.0  0.96132  0.00375  0.33679  1.0000
  O   O2        1.0  0.46140  0.99628  0.66320  1.0000
  O   O3        1.0  0.37799  0.91778  0.49554  1.0000
  O   O4        1.0  0.87804  0.08222  0.50445  1.0000
  O   O5        1.0  0.02911  0.77084  0.51328  1.0000
  O   O6        1.0  0.52911  0.22914  0.48671  1.0000
