data_image0
_chemical_formula_structural       Zn8H28C36N44O16
_chemical_formula_sum              "Zn8 H28 C36 N44 O16"
_cell_length_a       9.76489
_cell_length_b       9.76043
_cell_length_c       20.206
_cell_angle_alpha    90
_cell_angle_beta     90
_cell_angle_gamma    95.1433

_space_group_name_H-M_alt    "P 1"
_space_group_IT_number       1

loop_
  _space_group_symop_operation_xyz
  'x, y, z'

loop_
  _atom_site_type_symbol
  _atom_site_label
  _atom_site_symmetry_multiplicity
  _atom_site_fract_x
  _atom_site_fract_y
  _atom_site_fract_z
  _atom_site_occupancy
  Zn  Zn1       1.0  0.75000  0.75000  0.06784  1.0000
  Zn  Zn2       1.0  0.25000  0.25000  0.43214  1.0000
  Zn  Zn3       1.0  0.25000  0.25000  0.93216  1.0000
  Zn  Zn4       1.0  0.75000  0.75000  0.56786  1.0000
  Zn  Zn5       1.0  0.75000  0.25000  0.10950  1.0000
  Zn  Zn6       1.0  0.75000  0.25000  0.39039  1.0000
  Zn  Zn7       1.0  0.25000  0.75000  0.89050  1.0000
  Zn  Zn8       1.0  0.25000  0.75000  0.60961  1.0000
  H   H1        1.0  0.77401  0.97388  0.29495  1.0000
  H   H2        1.0  0.72598  0.52612  0.29495  1.0000
  H   H3        1.0  0.47377  0.27396  0.20505  1.0000
  H   H4        1.0  0.02623  0.22604  0.20505  1.0000
  H   H5        1.0  0.22599  0.02612  0.70505  1.0000
  H   H6        1.0  0.27402  0.47387  0.70505  1.0000
  H   H7        1.0  0.52623  0.72604  0.79495  1.0000
  H   H8        1.0  0.97377  0.77396  0.79495  1.0000
  H   H9        1.0  0.75000  0.75000  0.35854  1.0000
  H   H10       1.0  0.25000  0.25000  0.14146  1.0000
  H   H11       1.0  0.25000  0.25000  0.64146  1.0000
  H   H12       1.0  0.75000  0.75000  0.85854  1.0000
  H   H13       1.0  0.31987  0.57467  0.01585  1.0000
  H   H14       1.0  0.18013  0.92533  0.01585  1.0000
  H   H15       1.0  0.07468  0.81981  0.48420  1.0000
  H   H16       1.0  0.42532  0.68019  0.48420  1.0000
  H   H17       1.0  0.68013  0.42533  0.98415  1.0000
  H   H18       1.0  0.81987  0.07467  0.98415  1.0000
  H   H19       1.0  0.92532  0.18019  0.51580  1.0000
  H   H20       1.0  0.57468  0.31981  0.51580  1.0000
  H   H21       1.0  0.46512  0.57823  0.06415  1.0000
  H   H22       1.0  0.03487  0.92177  0.06415  1.0000
  H   H23       1.0  0.07831  0.96512  0.43588  1.0000
  H   H24       1.0  0.42169  0.53488  0.43588  1.0000
  H   H25       1.0  0.53488  0.42177  0.93585  1.0000
  H   H26       1.0  0.96513  0.07823  0.93585  1.0000
  H   H27       1.0  0.92169  0.03488  0.56412  1.0000
  H   H28       1.0  0.57831  0.46512  0.56412  1.0000
  C   C1        1.0  0.78779  0.99109  0.15496  1.0000
  C   C2        1.0  0.71221  0.50891  0.15496  1.0000
  C   C3        1.0  0.49101  0.28776  0.34503  1.0000
  C   C4        1.0  0.00899  0.21224  0.34504  1.0000
  C   C5        1.0  0.21221  0.00891  0.84504  1.0000
  C   C6        1.0  0.28779  0.49109  0.84504  1.0000
  C   C7        1.0  0.50899  0.71224  0.65497  1.0000
  C   C8        1.0  0.99101  0.78776  0.65496  1.0000
  C   C9        1.0  0.76760  0.86968  0.20089  1.0000
  C   C10       1.0  0.73240  0.63032  0.20089  1.0000
  C   C11       1.0  0.36964  0.26757  0.29911  1.0000
  C   C12       1.0  0.13036  0.23243  0.29911  1.0000
  C   C13       1.0  0.23240  0.13032  0.79911  1.0000
  C   C14       1.0  0.26760  0.36968  0.79911  1.0000
  C   C15       1.0  0.63036  0.73243  0.70089  1.0000
  C   C16       1.0  0.86964  0.76757  0.70089  1.0000
  C   C17       1.0  0.76460  0.87460  0.26993  1.0000
  C   C18       1.0  0.73540  0.62540  0.26993  1.0000
  C   C19       1.0  0.37455  0.26457  0.23007  1.0000
  C   C20       1.0  0.12545  0.23543  0.23007  1.0000
  C   C21       1.0  0.23540  0.12540  0.73007  1.0000
  C   C22       1.0  0.26460  0.37460  0.73007  1.0000
  C   C23       1.0  0.62545  0.73543  0.76993  1.0000
  C   C24       1.0  0.87455  0.76457  0.76993  1.0000
  C   C25       1.0  0.75000  0.75000  0.30459  1.0000
  C   C26       1.0  0.25000  0.25000  0.19541  1.0000
  C   C27       1.0  0.25000  0.25000  0.69541  1.0000
  C   C28       1.0  0.75000  0.75000  0.80459  1.0000
  C   C29       1.0  0.46942  0.73145  0.99722  1.0000
  C   C30       1.0  0.03058  0.76855  0.99722  1.0000
  C   C31       1.0  0.23146  0.96938  0.50280  1.0000
  C   C32       1.0  0.26854  0.53062  0.50280  1.0000
  C   C33       1.0  0.53058  0.26855  0.00278  1.0000
  C   C34       1.0  0.96942  0.23145  0.00278  1.0000
  C   C35       1.0  0.76854  0.03063  0.49720  1.0000
  C   C36       1.0  0.73146  0.46938  0.49720  1.0000
  N   N1        1.0  0.75000  0.75000  0.16843  1.0000
  N   N2        1.0  0.25000  0.25000  0.33156  1.0000
  N   N3        1.0  0.25000  0.25000  0.83157  1.0000
  N   N4        1.0  0.75000  0.75000  0.66844  1.0000
  N   N5        1.0  0.59657  0.79200  0.00935  1.0000
  N   N6        1.0  0.90343  0.70800  0.00935  1.0000
  N   N7        1.0  0.29205  0.09653  0.49062  1.0000
  N   N8        1.0  0.20795  0.40347  0.49062  1.0000
  N   N9        1.0  0.40343  0.20800  0.99065  1.0000
  N   N10       1.0  0.09657  0.29199  0.99065  1.0000
  N   N11       1.0  0.70795  0.90347  0.50938  1.0000
  N   N12       1.0  0.79205  0.59653  0.50938  1.0000
  N   N13       1.0  0.62253  0.89183  0.96225  1.0000
  N   N14       1.0  0.87747  0.60817  0.96224  1.0000
  N   N15       1.0  0.39184  0.12255  0.53772  1.0000
  N   N16       1.0  0.10816  0.37745  0.53772  1.0000
  N   N17       1.0  0.37747  0.10817  0.03775  1.0000
  N   N18       1.0  0.12253  0.39183  0.03776  1.0000
  N   N19       1.0  0.60816  0.87746  0.46228  1.0000
  N   N20       1.0  0.89184  0.62255  0.46228  1.0000
  N   N21       1.0  0.51746  0.89260  0.92349  1.0000
  N   N22       1.0  0.98254  0.60740  0.92349  1.0000
  N   N23       1.0  0.39257  0.01750  0.57651  1.0000
  N   N24       1.0  0.10743  0.48250  0.57651  1.0000
  N   N25       1.0  0.48254  0.10740  0.07651  1.0000
  N   N26       1.0  0.01746  0.39260  0.07651  1.0000
  N   N27       1.0  0.60743  0.98250  0.42349  1.0000
  N   N28       1.0  0.89257  0.51750  0.42349  1.0000
  N   N29       1.0  0.41850  0.79294  0.94375  1.0000
  N   N30       1.0  0.08150  0.70706  0.94375  1.0000
  N   N31       1.0  0.29290  0.91850  0.55630  1.0000
  N   N32       1.0  0.20710  0.58150  0.55630  1.0000
  N   N33       1.0  0.58150  0.20706  0.05625  1.0000
  N   N34       1.0  0.91850  0.29294  0.05625  1.0000
  N   N35       1.0  0.70710  0.08150  0.44370  1.0000
  N   N36       1.0  0.79290  0.41850  0.44370  1.0000
  N   N37       1.0  0.40394  0.63088  0.03461  1.0000
  N   N38       1.0  0.09606  0.86912  0.03461  1.0000
  N   N39       1.0  0.13090  0.90388  0.46543  1.0000
  N   N40       1.0  0.36910  0.59612  0.46543  1.0000
  N   N41       1.0  0.59606  0.36912  0.96539  1.0000
  N   N42       1.0  0.90394  0.13088  0.96539  1.0000
  N   N43       1.0  0.86910  0.09612  0.53457  1.0000
  N   N44       1.0  0.63090  0.40388  0.53457  1.0000
  O   O1        1.0  0.81541  0.96710  0.09477  1.0000
  O   O2        1.0  0.68459  0.53290  0.09477  1.0000
  O   O3        1.0  0.46704  0.31545  0.40522  1.0000
  O   O4        1.0  0.03297  0.18455  0.40522  1.0000
  O   O5        1.0  0.18459  0.03290  0.90523  1.0000
  O   O6        1.0  0.31541  0.46710  0.90523  1.0000
  O   O7        1.0  0.53297  0.68455  0.59478  1.0000
  O   O8        1.0  0.96703  0.81545  0.59478  1.0000
  O   O9        1.0  0.77302  0.10864  0.17928  1.0000
  O   O10       1.0  0.72698  0.39136  0.17928  1.0000
  O   O11       1.0  0.60850  0.27295  0.32071  1.0000
  O   O12       1.0  0.89150  0.22704  0.32071  1.0000
  O   O13       1.0  0.22698  0.89136  0.82072  1.0000
  O   O14       1.0  0.27302  0.60864  0.82072  1.0000
  O   O15       1.0  0.39150  0.72704  0.67929  1.0000
  O   O16       1.0  0.10850  0.77296  0.67929  1.0000
