data_image0
_chemical_formula_structural       Cd2H44C52N6O12
_chemical_formula_sum              "Cd2 H44 C52 N6 O12"
_cell_length_a       9.08318
_cell_length_b       11.1885
_cell_length_c       15.264
_cell_angle_alpha    102.266
_cell_angle_beta     92.1914
_cell_angle_gamma    108.693

_space_group_name_H-M_alt    "P 1"
_space_group_IT_number       1

loop_
  _space_group_symop_operation_xyz
  'x, y, z'

loop_
  _atom_site_type_symbol
  _atom_site_label
  _atom_site_symmetry_multiplicity
  _atom_site_fract_x
  _atom_site_fract_y
  _atom_site_fract_z
  _atom_site_occupancy
  Cd  Cd1       1.0  0.54752  0.16150  0.58076  1.0000
  Cd  Cd2       1.0  0.45248  0.83850  0.41924  1.0000
  H   H1        1.0  0.96477  0.14927  0.45312  1.0000
  H   H2        1.0  0.03523  0.85073  0.54688  1.0000
  H   H3        1.0  0.17438  0.01129  0.44308  1.0000
  H   H4        1.0  0.82562  0.98871  0.55692  1.0000
  H   H5        1.0  0.37916  0.57905  0.58170  1.0000
  H   H6        1.0  0.62084  0.42095  0.41830  1.0000
  H   H7        1.0  0.60524  0.74644  0.67782  1.0000
  H   H8        1.0  0.39476  0.25356  0.32218  1.0000
  H   H9        1.0  0.80113  0.67933  0.76066  1.0000
  H   H10       1.0  0.19887  0.32067  0.23934  1.0000
  H   H11       1.0  0.75933  0.44111  0.73598  1.0000
  H   H12       1.0  0.24067  0.55889  0.26402  1.0000
  H   H13       1.0  0.07558  0.24557  0.68943  1.0000
  H   H14       1.0  0.92442  0.75443  0.31057  1.0000
  H   H15       1.0  0.30901  0.35197  0.80302  1.0000
  H   H16       1.0  0.69099  0.64803  0.19698  1.0000
  H   H17       1.0  0.00716  0.36175  0.01447  1.0000
  H   H18       1.0  0.99284  0.63825  0.98553  1.0000
  H   H19       1.0  0.77243  0.25506  0.89722  1.0000
  H   H20       1.0  0.22756  0.74494  0.10278  1.0000
  H   H21       1.0  0.45679  0.52972  0.91037  1.0000
  H   H22       1.0  0.54321  0.47028  0.08963  1.0000
  H   H23       1.0  0.47459  0.37908  0.92271  1.0000
  H   H24       1.0  0.52541  0.62092  0.07729  1.0000
  H   H25       1.0  0.25200  0.67131  0.69566  1.0000
  H   H26       1.0  0.74800  0.32869  0.30434  1.0000
  H   H27       1.0  0.12810  0.69388  0.83904  1.0000
  H   H28       1.0  0.87190  0.30612  0.16096  1.0000
  H   H29       1.0  0.13229  0.07401  0.81770  1.0000
  H   H30       1.0  0.86771  0.92599  0.18230  1.0000
  H   H31       1.0  0.25974  0.05126  0.67855  1.0000
  H   H32       1.0  0.74026  0.94874  0.32145  1.0000
  H   H33       1.0  0.94613  0.02842  0.91196  1.0000
  H   H34       1.0  0.05387  0.97158  0.08804  1.0000
  H   H35       1.0  0.14200  0.09027  0.96686  1.0000
  H   H36       1.0  0.85799  0.90973  0.03314  1.0000
  H   H37       1.0  0.98623  0.37959  0.42532  1.0000
  H   H38       1.0  0.01377  0.62041  0.57468  1.0000
  H   H39       1.0  0.15963  0.51616  0.46478  1.0000
  H   H40       1.0  0.84037  0.48384  0.53522  1.0000
  H   H41       1.0  0.97380  0.34327  0.58318  1.0000
  H   H42       1.0  0.02620  0.65674  0.41682  1.0000
  H   H43       1.0  0.15580  0.47084  0.61794  1.0000
  H   H44       1.0  0.84420  0.52916  0.38206  1.0000
  C   C1        1.0  0.08616  0.17837  0.48035  1.0000
  C   C2        1.0  0.91384  0.82163  0.51965  1.0000
  C   C3        1.0  0.18986  0.11108  0.47689  1.0000
  C   C4        1.0  0.81014  0.88891  0.52311  1.0000
  C   C5        1.0  0.31274  0.30827  0.55776  1.0000
  C   C6        1.0  0.68726  0.69173  0.44224  1.0000
  C   C7        1.0  0.44259  0.41797  0.61190  1.0000
  C   C8        1.0  0.55741  0.58203  0.38810  1.0000
  C   C9        1.0  0.46014  0.54888  0.61901  1.0000
  C   C10       1.0  0.53986  0.45112  0.38099  1.0000
  C   C11       1.0  0.58979  0.64430  0.67273  1.0000
  C   C12       1.0  0.41021  0.35570  0.32727  1.0000
  C   C13       1.0  0.69878  0.60777  0.71773  1.0000
  C   C14       1.0  0.30122  0.39223  0.28227  1.0000
  C   C15       1.0  0.67580  0.47533  0.70430  1.0000
  C   C16       1.0  0.32420  0.52467  0.29570  1.0000
  C   C17       1.0  0.77251  0.19549  0.71585  1.0000
  C   C18       1.0  0.22749  0.80451  0.28416  1.0000
  C   C19       1.0  0.91018  0.24559  0.78610  1.0000
  C   C20       1.0  0.08982  0.75441  0.21390  1.0000
  C   C21       1.0  0.06156  0.27230  0.76068  1.0000
  C   C22       1.0  0.93844  0.72770  0.23932  1.0000
  C   C23       1.0  0.19255  0.33226  0.82465  1.0000
  C   C24       1.0  0.80744  0.66773  0.17535  1.0000
  C   C25       1.0  0.17109  0.36564  0.91600  1.0000
  C   C26       1.0  0.82891  0.63436  0.08400  1.0000
  C   C27       1.0  0.01990  0.33626  0.94288  1.0000
  C   C28       1.0  0.98010  0.66374  0.05712  1.0000
  C   C29       1.0  0.89090  0.27690  0.87812  1.0000
  C   C30       1.0  0.10910  0.72310  0.12188  1.0000
  C   C31       1.0  0.44590  0.46478  0.95683  1.0000
  C   C32       1.0  0.55411  0.53522  0.04317  1.0000
  C   C33       1.0  0.33146  0.84292  0.59031  1.0000
  C   C34       1.0  0.66854  0.15708  0.40969  1.0000
  C   C35       1.0  0.26399  0.85969  0.67764  1.0000
  C   C36       1.0  0.73601  0.14031  0.32236  1.0000
  C   C37       1.0  0.22547  0.75908  0.72331  1.0000
  C   C38       1.0  0.77453  0.24092  0.27669  1.0000
  C   C39       1.0  0.15641  0.77091  0.80267  1.0000
  C   C40       1.0  0.84359  0.22910  0.19733  1.0000
  C   C41       1.0  0.12273  0.88480  0.83731  1.0000
  C   C42       1.0  0.87727  0.11520  0.16269  1.0000
  C   C43       1.0  0.15939  0.98592  0.79247  1.0000
  C   C44       1.0  0.84061  0.01408  0.20753  1.0000
  C   C45       1.0  0.23101  0.97293  0.71367  1.0000
  C   C46       1.0  0.76900  0.02707  0.28633  1.0000
  C   C47       1.0  0.03068  0.00848  0.95555  1.0000
  C   C48       1.0  0.96932  0.99151  0.04445  1.0000
  C   C49       1.0  0.04954  0.45743  0.48451  1.0000
  C   C50       1.0  0.95046  0.54257  0.51549  1.0000
  C   C51       1.0  0.08352  0.39660  0.55981  1.0000
  C   C52       1.0  0.91648  0.60340  0.44019  1.0000
  N   N1        1.0  0.32855  0.19240  0.52556  1.0000
  N   N2        1.0  0.67145  0.80760  0.47444  1.0000
  N   N3        1.0  0.16385  0.30230  0.53149  1.0000
  N   N4        1.0  0.83615  0.69770  0.46851  1.0000
  N   N5        1.0  0.55236  0.38302  0.65266  1.0000
  N   N6        1.0  0.44764  0.61698  0.34734  1.0000
  O   O1        1.0  0.63561  0.17524  0.73910  1.0000
  O   O2        1.0  0.36439  0.82476  0.26090  1.0000
  O   O3        1.0  0.80011  0.18256  0.63269  1.0000
  O   O4        1.0  0.19989  0.81744  0.36731  1.0000
  O   O5        1.0  0.29175  0.42727  0.98345  1.0000
  O   O6        1.0  0.70825  0.57273  0.01655  1.0000
  O   O7        1.0  0.39149  0.94381  0.55860  1.0000
  O   O8        1.0  0.60851  0.05619  0.44140  1.0000
  O   O9        1.0  0.05377  0.88909  0.91531  1.0000
  O   O10       1.0  0.94622  0.11091  0.08469  1.0000
  O   O11       1.0  0.32322  0.73078  0.54721  1.0000
  O   O12       1.0  0.67679  0.26922  0.45279  1.0000
