data_image0
_chemical_formula_structural       V6Cu2H18C20N6O17
_chemical_formula_sum              "V6 Cu2 H18 C20 N6 O17"
_cell_length_a       7.30118
_cell_length_b       10.0738
_cell_length_c       10.6351
_cell_angle_alpha    82.3324
_cell_angle_beta     69.7569
_cell_angle_gamma    87.7482

_space_group_name_H-M_alt    "P 1"
_space_group_IT_number       1

loop_
  _space_group_symop_operation_xyz
  'x, y, z'

loop_
  _atom_site_type_symbol
  _atom_site_label
  _atom_site_symmetry_multiplicity
  _atom_site_fract_x
  _atom_site_fract_y
  _atom_site_fract_z
  _atom_site_occupancy
  V   V1        1.0  0.09097  0.89924  0.58211  1.0000
  V   V2        1.0  0.90904  0.10076  0.41789  1.0000
  V   V3        1.0  0.43381  0.06822  0.38092  1.0000
  V   V4        1.0  0.56619  0.93178  0.61908  1.0000
  V   V5        1.0  0.87105  0.94965  0.89782  1.0000
  V   V6        1.0  0.12895  0.05035  0.10217  1.0000
  Cu  Cu1       1.0  0.43439  0.82356  0.19316  1.0000
  Cu  Cu2       1.0  0.56561  0.17644  0.80683  1.0000
  H   H1        1.0  0.40984  0.40659  0.31708  1.0000
  H   H2        1.0  0.59016  0.59341  0.68293  1.0000
  H   H3        1.0  0.65264  0.38423  0.39362  1.0000
  H   H4        1.0  0.34736  0.61577  0.60638  1.0000
  H   H5        1.0  0.93373  0.48476  0.42591  1.0000
  H   H6        1.0  0.06627  0.51523  0.57408  1.0000
  H   H7        1.0  0.99978  0.73518  0.35472  1.0000
  H   H8        1.0  0.00023  0.26481  0.64528  1.0000
  H   H9        1.0  0.77291  0.86645  0.25600  1.0000
  H   H10       1.0  0.22711  0.13356  0.74400  1.0000
  H   H11       1.0  0.32599  0.80472  0.96508  1.0000
  H   H12       1.0  0.67400  0.19527  0.03492  1.0000
  H   H13       1.0  0.19416  0.63508  0.86892  1.0000
  H   H14       1.0  0.80582  0.36491  0.13109  1.0000
  H   H15       1.0  0.15739  0.39459  0.98495  1.0000
  H   H16       1.0  0.84260  0.60541  0.01506  1.0000
  H   H17       1.0  0.25503  0.33927  0.18691  1.0000
  H   H18       1.0  0.74497  0.66073  0.81310  1.0000
  C   C1        1.0  0.56406  0.57162  0.30813  1.0000
  C   C2        1.0  0.43595  0.42838  0.69187  1.0000
  C   C3        1.0  0.68321  0.49115  0.36627  1.0000
  C   C4        1.0  0.31679  0.50885  0.63373  1.0000
  C   C5        1.0  0.84041  0.54860  0.38331  1.0000
  C   C6        1.0  0.15959  0.45140  0.61669  1.0000
  C   C7        1.0  0.87786  0.68583  0.34327  1.0000
  C   C8        1.0  0.12215  0.31417  0.65673  1.0000
  C   C9        1.0  0.75375  0.75936  0.28842  1.0000
  C   C10       1.0  0.24626  0.24064  0.71159  1.0000
  C   C11       1.0  0.30331  0.70118  0.01227  1.0000
  C   C12       1.0  0.69668  0.29882  0.98773  1.0000
  C   C13       1.0  0.23073  0.60591  0.95957  1.0000
  C   C14       1.0  0.76926  0.39408  0.04044  1.0000
  C   C15       1.0  0.21006  0.47372  0.02440  1.0000
  C   C16       1.0  0.78994  0.52628  0.97561  1.0000
  C   C17       1.0  0.26385  0.44176  0.13704  1.0000
  C   C18       1.0  0.73614  0.55823  0.86297  1.0000
  C   C19       1.0  0.34262  0.54340  0.18265  1.0000
  C   C20       1.0  0.65738  0.45660  0.81735  1.0000
  N   N1        1.0  0.41374  0.50900  0.28708  1.0000
  N   N2        1.0  0.58626  0.49100  0.71292  1.0000
  N   N3        1.0  0.59797  0.70450  0.27249  1.0000
  N   N4        1.0  0.40204  0.29551  0.72751  1.0000
  N   N5        1.0  0.35544  0.67067  0.12291  1.0000
  N   N6        1.0  0.64456  0.32932  0.87710  1.0000
  O   O1        1.0  0.68270  0.85623  0.99119  1.0000
  O   O2        1.0  0.31730  0.14377  0.00880  1.0000
  O   O3        1.0  0.20483  0.91241  0.17605  1.0000
  O   O4        1.0  0.79518  0.08759  0.82394  1.0000
  O   O5        1.0  0.50746  0.99145  0.24109  1.0000
  O   O6        1.0  0.49254  0.00855  0.75891  1.0000
  O   O7        1.0  0.45041  0.23086  0.34038  1.0000
  O   O8        1.0  0.54960  0.76915  0.65961  1.0000
  O   O9        1.0  0.15320  0.04451  0.42700  1.0000
  O   O10       1.0  0.84680  0.95549  0.57300  1.0000
  O   O11       1.0  0.33773  0.96672  0.56545  1.0000
  O   O12       1.0  0.66226  0.03329  0.43455  1.0000
  O   O13       1.0  0.13698  0.76041  0.51824  1.0000
  O   O14       1.0  0.86303  0.23959  0.48175  1.0000
  O   O15       1.0  0.01633  0.85648  0.76107  1.0000
  O   O16       1.0  0.98367  0.14351  0.23893  1.0000
  O   O17       1.0  0.00000  1.00000  0.99999  1.0000
