data_image0
_chemical_formula_structural       Cd4Cu4H48C24O48
_chemical_formula_sum              "Cd4 Cu4 H48 C24 O48"
_cell_length_a       6.68695
_cell_length_b       13.37
_cell_length_c       13.958
_cell_angle_alpha    90
_cell_angle_beta     90
_cell_angle_gamma    90

_space_group_name_H-M_alt    "P 1"
_space_group_IT_number       1

loop_
  _space_group_symop_operation_xyz
  'x, y, z'

loop_
  _atom_site_type_symbol
  _atom_site_label
  _atom_site_symmetry_multiplicity
  _atom_site_fract_x
  _atom_site_fract_y
  _atom_site_fract_z
  _atom_site_occupancy
  Cd  Cd1       1.0  0.00000  0.25000  0.77724  1.0000
  Cd  Cd2       1.0  0.50000  0.75000  0.72276  1.0000
  Cd  Cd3       1.0  0.00000  0.75000  0.22276  1.0000
  Cd  Cd4       1.0  0.50000  0.25000  0.27724  1.0000
  Cu  Cu1       1.0  0.50000  0.49999  0.49999  1.0000
  Cu  Cu2       1.0  0.00001  1.00000  0.00000  1.0000
  Cu  Cu3       1.0  0.99999  0.50000  0.00000  1.0000
  Cu  Cu4       1.0  0.50000  0.00000  0.50000  1.0000
  H   H1        1.0  0.19122  0.35579  0.47909  1.0000
  H   H2        1.0  0.30877  0.85579  0.02090  1.0000
  H   H3        1.0  0.69122  0.64421  0.02090  1.0000
  H   H4        1.0  0.80877  0.14421  0.47910  1.0000
  H   H5        1.0  0.80876  0.64420  0.52090  1.0000
  H   H6        1.0  0.69124  0.14420  0.97910  1.0000
  H   H7        1.0  0.30875  0.35580  0.97910  1.0000
  H   H8        1.0  0.19123  0.85580  0.52090  1.0000
  H   H9        1.0  0.10048  0.42499  0.55892  1.0000
  H   H10       1.0  0.39951  0.92499  0.94107  1.0000
  H   H11       1.0  0.60048  0.57501  0.94107  1.0000
  H   H12       1.0  0.89951  0.07501  0.55892  1.0000
  H   H13       1.0  0.89950  0.57501  0.44107  1.0000
  H   H14       1.0  0.60050  0.07500  0.05893  1.0000
  H   H15       1.0  0.39949  0.42500  0.05893  1.0000
  H   H16       1.0  0.10049  0.92499  0.44107  1.0000
  H   H17       1.0  0.63977  0.30040  0.89178  1.0000
  H   H18       1.0  0.86022  0.80040  0.60822  1.0000
  H   H19       1.0  0.13978  0.69960  0.60822  1.0000
  H   H20       1.0  0.36021  0.19961  0.89179  1.0000
  H   H21       1.0  0.36022  0.69960  0.10822  1.0000
  H   H22       1.0  0.13977  0.19960  0.39178  1.0000
  H   H23       1.0  0.86022  0.30040  0.39178  1.0000
  H   H24       1.0  0.63977  0.80040  0.10821  1.0000
  H   H25       1.0  0.81352  0.29911  0.96485  1.0000
  H   H26       1.0  0.68648  0.79912  0.53515  1.0000
  H   H27       1.0  0.31352  0.70089  0.53515  1.0000
  H   H28       1.0  0.18647  0.20089  0.96486  1.0000
  H   H29       1.0  0.18648  0.70089  0.03515  1.0000
  H   H30       1.0  0.31352  0.20089  0.46485  1.0000
  H   H31       1.0  0.68648  0.29912  0.46485  1.0000
  H   H32       1.0  0.81352  0.79911  0.03515  1.0000
  H   H33       1.0  0.41204  0.38670  0.73049  1.0000
  H   H34       1.0  0.08796  0.88670  0.76951  1.0000
  H   H35       1.0  0.91204  0.61330  0.76951  1.0000
  H   H36       1.0  0.58798  0.11330  0.73049  1.0000
  H   H37       1.0  0.58798  0.61330  0.26950  1.0000
  H   H38       1.0  0.91203  0.11330  0.23050  1.0000
  H   H39       1.0  0.08797  0.38671  0.23049  1.0000
  H   H40       1.0  0.41203  0.88670  0.26951  1.0000
  H   H41       1.0  0.64982  0.40397  0.78573  1.0000
  H   H42       1.0  0.85016  0.90396  0.71427  1.0000
  H   H43       1.0  0.14982  0.59604  0.71427  1.0000
  H   H44       1.0  0.35020  0.09604  0.78573  1.0000
  H   H45       1.0  0.35020  0.59604  0.21426  1.0000
  H   H46       1.0  0.14982  0.09604  0.28574  1.0000
  H   H47       1.0  0.85019  0.40397  0.28574  1.0000
  H   H48       1.0  0.64981  0.90396  0.21426  1.0000
  C   C1        1.0  0.64998  0.35136  0.63984  1.0000
  C   C2        1.0  0.85002  0.85136  0.86017  1.0000
  C   C3        1.0  0.14999  0.64864  0.86016  1.0000
  C   C4        1.0  0.35002  0.14864  0.63984  1.0000
  C   C5        1.0  0.35002  0.64864  0.36016  1.0000
  C   C6        1.0  0.14998  0.14864  0.13984  1.0000
  C   C7        1.0  0.85002  0.35136  0.13984  1.0000
  C   C8        1.0  0.64998  0.85136  0.36016  1.0000
  C   C9        1.0  0.56507  0.41588  0.71974  1.0000
  C   C10       1.0  0.93493  0.91589  0.78026  1.0000
  C   C11       1.0  0.06506  0.58411  0.78026  1.0000
  C   C12       1.0  0.43495  0.08412  0.71974  1.0000
  C   C13       1.0  0.43496  0.58411  0.28026  1.0000
  C   C14       1.0  0.06505  0.08411  0.21974  1.0000
  C   C15       1.0  0.93494  0.41589  0.21974  1.0000
  C   C16       1.0  0.56506  0.91588  0.28026  1.0000
  C   C17       1.0  0.54110  0.52696  0.70458  1.0000
  C   C18       1.0  0.95890  0.02696  0.79542  1.0000
  C   C19       1.0  0.04109  0.47304  0.79542  1.0000
  C   C20       1.0  0.45891  0.97304  0.70458  1.0000
  C   C21       1.0  0.45891  0.47303  0.29541  1.0000
  C   C22       1.0  0.04110  0.97304  0.20458  1.0000
  C   C23       1.0  0.95891  0.52697  0.20458  1.0000
  C   C24       1.0  0.54110  0.02696  0.29541  1.0000
  O   O1        1.0  0.74785  0.27437  0.66195  1.0000
  O   O2        1.0  0.75215  0.77437  0.83806  1.0000
  O   O3        1.0  0.24785  0.72562  0.83806  1.0000
  O   O4        1.0  0.25216  0.22562  0.66194  1.0000
  O   O5        1.0  0.25217  0.72562  0.33805  1.0000
  O   O6        1.0  0.24783  0.22563  0.16195  1.0000
  O   O7        1.0  0.75218  0.27438  0.16195  1.0000
  O   O8        1.0  0.74784  0.77438  0.33805  1.0000
  O   O9        1.0  0.60908  0.37229  0.55189  1.0000
  O   O10       1.0  0.89093  0.87230  0.94811  1.0000
  O   O11       1.0  0.10910  0.62770  0.94811  1.0000
  O   O12       1.0  0.39091  0.12770  0.55189  1.0000
  O   O13       1.0  0.39091  0.62769  0.44811  1.0000
  O   O14       1.0  0.10910  0.12770  0.05190  1.0000
  O   O15       1.0  0.89091  0.37230  0.05189  1.0000
  O   O16       1.0  0.60909  0.87230  0.44811  1.0000
  O   O17       1.0  0.47888  0.56205  0.62480  1.0000
  O   O18       1.0  0.02113  0.06206  0.87520  1.0000
  O   O19       1.0  0.97887  0.43794  0.87520  1.0000
  O   O20       1.0  0.52112  0.93794  0.62481  1.0000
  O   O21       1.0  0.52112  0.43793  0.37519  1.0000
  O   O22       1.0  0.97889  0.93794  0.12481  1.0000
  O   O23       1.0  0.02110  0.56207  0.12480  1.0000
  O   O24       1.0  0.47888  0.06206  0.37519  1.0000
  O   O25       1.0  0.57356  0.58514  0.77478  1.0000
  O   O26       1.0  0.92642  0.08514  0.72522  1.0000
  O   O27       1.0  0.07355  0.41486  0.72522  1.0000
  O   O28       1.0  0.42645  0.91486  0.77478  1.0000
  O   O29       1.0  0.42645  0.41486  0.22521  1.0000
  O   O30       1.0  0.07355  0.91486  0.27479  1.0000
  O   O31       1.0  0.92645  0.58514  0.27479  1.0000
  O   O32       1.0  0.57355  0.08514  0.22521  1.0000
  O   O33       1.0  0.15657  0.42547  0.49432  1.0000
  O   O34       1.0  0.34343  0.92547  0.00568  1.0000
  O   O35       1.0  0.65656  0.57453  0.00568  1.0000
  O   O36       1.0  0.84343  0.07453  0.49431  1.0000
  O   O37       1.0  0.84342  0.57453  0.50567  1.0000
  O   O38       1.0  0.65660  0.07452  0.99432  1.0000
  O   O39       1.0  0.34341  0.42547  0.99432  1.0000
  O   O40       1.0  0.15657  0.92547  0.50568  1.0000
  O   O41       1.0  0.75426  0.25922  0.90979  1.0000
  O   O42       1.0  0.74572  0.75922  0.59022  1.0000
  O   O43       1.0  0.25427  0.74078  0.59021  1.0000
  O   O44       1.0  0.24571  0.24078  0.90979  1.0000
  O   O45       1.0  0.24574  0.74078  0.09022  1.0000
  O   O46       1.0  0.25426  0.24078  0.40978  1.0000
  O   O47       1.0  0.74573  0.25922  0.40978  1.0000
  O   O48       1.0  0.75426  0.75922  0.09022  1.0000
