data_image0
_chemical_formula_structural       Cd4Cu4H48C24O48
_chemical_formula_sum              "Cd4 Cu4 H48 C24 O48"
_cell_length_a       6.66672
_cell_length_b       12.9392
_cell_length_c       13.9772
_cell_angle_alpha    90
_cell_angle_beta     90
_cell_angle_gamma    90

_space_group_name_H-M_alt    "P 1"
_space_group_IT_number       1

loop_
  _space_group_symop_operation_xyz
  'x, y, z'

loop_
  _atom_site_type_symbol
  _atom_site_label
  _atom_site_symmetry_multiplicity
  _atom_site_fract_x
  _atom_site_fract_y
  _atom_site_fract_z
  _atom_site_occupancy
  Cd  Cd1       1.0  1.00000  0.75000  0.77615  1.0000
  Cd  Cd2       1.0  0.50000  0.25000  0.72384  1.0000
  Cd  Cd3       1.0  0.00000  0.25001  0.22384  1.0000
  Cd  Cd4       1.0  0.50000  0.75000  0.27616  1.0000
  Cu  Cu1       1.0  0.99998  0.50000  0.00000  1.0000
  Cu  Cu2       1.0  0.49999  0.00000  0.50000  1.0000
  Cu  Cu3       1.0  0.50000  0.50000  0.50000  1.0000
  Cu  Cu4       1.0  0.00002  0.00001  0.00000  1.0000
  H   H1        1.0  0.13042  0.38008  0.72126  1.0000
  H   H2        1.0  0.36959  0.88009  0.77874  1.0000
  H   H3        1.0  0.63041  0.61991  0.77875  1.0000
  H   H4        1.0  0.86957  0.11991  0.72126  1.0000
  H   H5        1.0  0.86959  0.61993  0.27874  1.0000
  H   H6        1.0  0.63041  0.11991  0.22125  1.0000
  H   H7        1.0  0.36958  0.38009  0.22126  1.0000
  H   H8        1.0  0.13040  0.88009  0.27875  1.0000
  H   H9        1.0  0.91175  0.37046  0.79107  1.0000
  H   H10       1.0  0.58825  0.87048  0.70891  1.0000
  H   H11       1.0  0.41175  0.62952  0.70892  1.0000
  H   H12       1.0  0.08825  0.12953  0.79107  1.0000
  H   H13       1.0  0.08825  0.62954  0.20892  1.0000
  H   H14       1.0  0.41175  0.12953  0.29108  1.0000
  H   H15       1.0  0.58826  0.37047  0.29108  1.0000
  H   H16       1.0  0.91175  0.87048  0.20892  1.0000
  H   H17       1.0  0.21421  0.80458  0.93730  1.0000
  H   H18       1.0  0.28579  0.30458  0.56270  1.0000
  H   H19       1.0  0.71421  0.19541  0.56270  1.0000
  H   H20       1.0  0.78578  0.69542  0.93730  1.0000
  H   H21       1.0  0.78579  0.19542  0.06270  1.0000
  H   H22       1.0  0.71422  0.69542  0.43731  1.0000
  H   H23       1.0  0.28579  0.80458  0.43730  1.0000
  H   H24       1.0  0.21421  0.30459  0.06270  1.0000
  H   H25       1.0  0.30648  0.69510  0.91818  1.0000
  H   H26       1.0  0.19352  0.19511  0.58182  1.0000
  H   H27       1.0  0.80648  0.30489  0.58182  1.0000
  H   H28       1.0  0.69352  0.80490  0.91818  1.0000
  H   H29       1.0  0.69352  0.30489  0.08182  1.0000
  H   H30       1.0  0.80649  0.80489  0.41818  1.0000
  H   H31       1.0  0.19352  0.69510  0.41818  1.0000
  H   H32       1.0  0.30648  0.19511  0.08182  1.0000
  H   H33       1.0  0.64715  0.34517  0.93825  1.0000
  H   H34       1.0  0.85285  0.84518  0.56175  1.0000
  H   H35       1.0  0.14715  0.65482  0.56174  1.0000
  H   H36       1.0  0.35285  0.15483  0.93825  1.0000
  H   H37       1.0  0.35285  0.65482  0.06175  1.0000
  H   H38       1.0  0.14715  0.15482  0.43826  1.0000
  H   H39       1.0  0.85285  0.34517  0.43826  1.0000
  H   H40       1.0  0.64715  0.84518  0.06175  1.0000
  H   H41       1.0  0.48560  0.40899  0.99247  1.0000
  H   H42       1.0  0.01442  0.90898  0.50753  1.0000
  H   H43       1.0  0.98560  0.59100  0.50753  1.0000
  H   H44       1.0  0.51438  0.09100  0.99247  1.0000
  H   H45       1.0  0.51442  0.59102  0.00753  1.0000
  H   H46       1.0  0.98560  0.09100  0.49247  1.0000
  H   H47       1.0  0.01442  0.40898  0.49247  1.0000
  H   H48       1.0  0.48556  0.90898  0.00753  1.0000
  C   C1        1.0  0.04128  0.51820  0.79629  1.0000
  C   C2        1.0  0.45873  0.01820  0.70370  1.0000
  C   C3        1.0  0.54127  0.48179  0.70371  1.0000
  C   C4        1.0  0.95872  0.98179  0.79630  1.0000
  C   C5        1.0  0.95872  0.48180  0.20371  1.0000
  C   C6        1.0  0.54127  0.98179  0.29629  1.0000
  C   C7        1.0  0.45873  0.51821  0.29629  1.0000
  C   C8        1.0  0.04128  0.01821  0.20371  1.0000
  C   C9        1.0  0.06558  0.40241  0.79008  1.0000
  C   C10       1.0  0.43442  0.90242  0.70992  1.0000
  C   C11       1.0  0.56557  0.59758  0.70993  1.0000
  C   C12       1.0  0.93443  0.09758  0.79007  1.0000
  C   C13       1.0  0.93443  0.59759  0.20993  1.0000
  C   C14       1.0  0.56557  0.09758  0.29008  1.0000
  C   C15       1.0  0.43443  0.40242  0.29008  1.0000
  C   C16       1.0  0.06557  0.90242  0.20993  1.0000
  C   C17       1.0  0.17338  0.34765  0.87094  1.0000
  C   C18       1.0  0.32661  0.84765  0.62906  1.0000
  C   C19       1.0  0.67338  0.65235  0.62906  1.0000
  C   C20       1.0  0.82662  0.15235  0.87094  1.0000
  C   C21       1.0  0.82662  0.65236  0.12906  1.0000
  C   C22       1.0  0.67338  0.15234  0.37094  1.0000
  C   C23       1.0  0.32662  0.34765  0.37094  1.0000
  C   C24       1.0  0.17338  0.84765  0.12906  1.0000
  O   O1        1.0  0.99160  0.56110  0.87589  1.0000
  O   O2        1.0  0.50840  0.06110  0.62411  1.0000
  O   O3        1.0  0.49161  0.43890  0.62411  1.0000
  O   O4        1.0  0.00840  0.93890  0.87589  1.0000
  O   O5        1.0  0.00839  0.43891  0.12411  1.0000
  O   O6        1.0  0.49159  0.93890  0.37588  1.0000
  O   O7        1.0  0.50840  0.56111  0.37589  1.0000
  O   O8        1.0  0.99161  0.06110  0.12411  1.0000
  O   O9        1.0  0.06044  0.57264  0.72200  1.0000
  O   O10       1.0  0.43958  0.07265  0.77800  1.0000
  O   O11       1.0  0.56043  0.42735  0.77800  1.0000
  O   O12       1.0  0.93956  0.92735  0.72200  1.0000
  O   O13       1.0  0.93956  0.42736  0.27801  1.0000
  O   O14       1.0  0.56043  0.92735  0.22200  1.0000
  O   O15       1.0  0.43957  0.57265  0.22200  1.0000
  O   O16       1.0  0.06043  0.07265  0.27800  1.0000
  O   O17       1.0  0.25699  0.75851  0.88464  1.0000
  O   O18       1.0  0.24301  0.25852  0.61536  1.0000
  O   O19       1.0  0.75699  0.24148  0.61536  1.0000
  O   O20       1.0  0.74301  0.74149  0.88464  1.0000
  O   O21       1.0  0.74301  0.24148  0.11536  1.0000
  O   O22       1.0  0.75699  0.74148  0.38464  1.0000
  O   O23       1.0  0.24301  0.75851  0.38464  1.0000
  O   O24       1.0  0.25700  0.25852  0.11536  1.0000
  O   O25       1.0  0.26896  0.26554  0.85335  1.0000
  O   O26       1.0  0.23105  0.76554  0.64665  1.0000
  O   O27       1.0  0.76897  0.73445  0.64665  1.0000
  O   O28       1.0  0.73103  0.23446  0.85335  1.0000
  O   O29       1.0  0.73104  0.73446  0.14665  1.0000
  O   O30       1.0  0.76898  0.23446  0.35335  1.0000
  O   O31       1.0  0.23103  0.26555  0.35335  1.0000
  O   O32       1.0  0.26896  0.76554  0.14665  1.0000
  O   O33       1.0  0.15998  0.38172  0.95743  1.0000
  O   O34       1.0  0.34000  0.88173  0.54257  1.0000
  O   O35       1.0  0.65999  0.61827  0.54257  1.0000
  O   O36       1.0  0.84002  0.11828  0.95743  1.0000
  O   O37       1.0  0.84000  0.61828  0.04257  1.0000
  O   O38       1.0  0.66000  0.11827  0.45743  1.0000
  O   O39       1.0  0.34002  0.38173  0.45743  1.0000
  O   O40       1.0  0.16000  0.88173  0.04257  1.0000
  O   O41       1.0  0.62778  0.39057  0.99426  1.0000
  O   O42       1.0  0.87224  0.89058  0.50574  1.0000
  O   O43       1.0  0.12777  0.60942  0.50574  1.0000
  O   O44       1.0  0.37221  0.10943  0.99425  1.0000
  O   O45       1.0  0.37224  0.60942  0.00574  1.0000
  O   O46       1.0  0.12778  0.10942  0.49426  1.0000
  O   O47       1.0  0.87224  0.39057  0.49426  1.0000
  O   O48       1.0  0.62775  0.89058  0.00574  1.0000
