data_image0
_chemical_formula_structural       Cu4H32C40N8O12
_chemical_formula_sum              "Cu4 H32 C40 N8 O12"
_cell_length_a       4.34908
_cell_length_b       13.3871
_cell_length_c       15.5889
_cell_angle_alpha    89.9997
_cell_angle_beta     89.9988
_cell_angle_gamma    89.9997

_space_group_name_H-M_alt    "P 1"
_space_group_IT_number       1

loop_
  _space_group_symop_operation_xyz
  'x, y, z'

loop_
  _atom_site_type_symbol
  _atom_site_label
  _atom_site_symmetry_multiplicity
  _atom_site_fract_x
  _atom_site_fract_y
  _atom_site_fract_z
  _atom_site_occupancy
  Cu  Cu1       1.0  0.06278  0.16262  0.44914  1.0000
  Cu  Cu2       1.0  0.43722  0.83738  0.94914  1.0000
  Cu  Cu3       1.0  0.93721  0.66262  0.05086  1.0000
  Cu  Cu4       1.0  0.56278  0.33738  0.55086  1.0000
  H   H1        1.0  0.66158  0.15534  0.55037  1.0000
  H   H2        1.0  0.83841  0.84466  0.05037  1.0000
  H   H3        1.0  0.33843  0.65535  0.94963  1.0000
  H   H4        1.0  0.16158  0.34465  0.44963  1.0000
  H   H5        1.0  0.74465  0.16662  0.17876  1.0000
  H   H6        1.0  0.75535  0.83338  0.67876  1.0000
  H   H7        1.0  0.25534  0.66662  0.32125  1.0000
  H   H8        1.0  0.24464  0.33338  0.82124  1.0000
  H   H9        1.0  0.55272  0.99843  0.13064  1.0000
  H   H10       1.0  0.94729  0.00158  0.63064  1.0000
  H   H11       1.0  0.44729  0.49842  0.36936  1.0000
  H   H12       1.0  0.05271  0.50157  0.86936  1.0000
  H   H13       1.0  0.18493  0.90570  0.22181  1.0000
  H   H14       1.0  0.31508  0.09430  0.72181  1.0000
  H   H15       1.0  0.81508  0.40570  0.27819  1.0000
  H   H16       1.0  0.68493  0.59430  0.77819  1.0000
  H   H17       1.0  0.93049  0.83022  0.31405  1.0000
  H   H18       1.0  0.56951  0.16978  0.81405  1.0000
  H   H19       1.0  0.06951  0.33022  0.18594  1.0000
  H   H20       1.0  0.43049  0.66978  0.68595  1.0000
  H   H21       1.0  0.56143  0.76050  0.42259  1.0000
  H   H22       1.0  0.93856  0.23950  0.92259  1.0000
  H   H23       1.0  0.43857  0.26050  0.07740  1.0000
  H   H24       1.0  0.06145  0.73950  0.57741  1.0000
  H   H25       1.0  0.35652  0.87265  0.53762  1.0000
  H   H26       1.0  0.14346  0.12735  0.03762  1.0000
  H   H27       1.0  0.64348  0.37266  0.96238  1.0000
  H   H28       1.0  0.85654  0.62735  0.46238  1.0000
  H   H29       1.0  0.47003  0.27180  0.38199  1.0000
  H   H30       1.0  0.02998  0.72819  0.88199  1.0000
  H   H31       1.0  0.52997  0.77180  0.11802  1.0000
  H   H32       1.0  0.97002  0.22819  0.61801  1.0000
  C   C1        1.0  0.61523  0.00094  0.49582  1.0000
  C   C2        1.0  0.88477  0.99907  0.99582  1.0000
  C   C3        1.0  0.38479  0.50094  0.00418  1.0000
  C   C4        1.0  0.11522  0.49906  0.50418  1.0000
  C   C5        1.0  0.46950  0.16530  0.29377  1.0000
  C   C6        1.0  0.03051  0.83470  0.79377  1.0000
  C   C7        1.0  0.53050  0.66530  0.20623  1.0000
  C   C8        1.0  0.96949  0.33470  0.70623  1.0000
  C   C9        1.0  0.94451  0.97430  0.37598  1.0000
  C   C10       1.0  0.55549  0.02570  0.87598  1.0000
  C   C11       1.0  0.05549  0.47430  0.12402  1.0000
  C   C12       1.0  0.44450  0.52570  0.62402  1.0000
  C   C13       1.0  0.16407  0.02240  0.31732  1.0000
  C   C14       1.0  0.33594  0.97760  0.81732  1.0000
  C   C15       1.0  0.83593  0.52239  0.18269  1.0000
  C   C16       1.0  0.66406  0.47760  0.68268  1.0000
  C   C17       1.0  0.57626  0.12450  0.21569  1.0000
  C   C18       1.0  0.92375  0.87550  0.71570  1.0000
  C   C19       1.0  0.42374  0.62451  0.28431  1.0000
  C   C20       1.0  0.07625  0.37549  0.78430  1.0000
  C   C21       1.0  0.47198  0.03167  0.19010  1.0000
  C   C22       1.0  0.02803  0.96833  0.69010  1.0000
  C   C23       1.0  0.52803  0.53167  0.30991  1.0000
  C   C24       1.0  0.97197  0.46833  0.80990  1.0000
  C   C25       1.0  0.26511  0.97890  0.24164  1.0000
  C   C26       1.0  0.23490  0.02110  0.74164  1.0000
  C   C27       1.0  0.73489  0.47890  0.25836  1.0000
  C   C28       1.0  0.76511  0.52110  0.75836  1.0000
  C   C29       1.0  0.84612  0.87599  0.36663  1.0000
  C   C30       1.0  0.65387  0.12401  0.86663  1.0000
  C   C31       1.0  0.15388  0.37599  0.13337  1.0000
  C   C32       1.0  0.34612  0.62400  0.63337  1.0000
  C   C33       1.0  0.63881  0.83781  0.42714  1.0000
  C   C34       1.0  0.86119  0.16220  0.92714  1.0000
  C   C35       1.0  0.36120  0.33781  0.07286  1.0000
  C   C36       1.0  0.13881  0.66220  0.57286  1.0000
  C   C37       1.0  0.52533  0.89862  0.49115  1.0000
  C   C38       1.0  0.97465  0.10138  0.99115  1.0000
  C   C39       1.0  0.47467  0.39862  0.00885  1.0000
  C   C40       1.0  0.02533  0.60138  0.50885  1.0000
  N   N1        1.0  0.84074  0.03371  0.44068  1.0000
  N   N2        1.0  0.65926  0.96629  0.94067  1.0000
  N   N3        1.0  0.15927  0.53371  0.05933  1.0000
  N   N4        1.0  0.34073  0.46629  0.55933  1.0000
  N   N5        1.0  0.26062  0.11522  0.34185  1.0000
  N   N6        1.0  0.23939  0.88478  0.84185  1.0000
  N   N7        1.0  0.73938  0.61522  0.15816  1.0000
  N   N8        1.0  0.76061  0.38478  0.65815  1.0000
  O   O1        1.0  0.48883  0.06186  0.54904  1.0000
  O   O2        1.0  0.01116  0.93814  0.04904  1.0000
  O   O3        1.0  0.51118  0.56186  0.95096  1.0000
  O   O4        1.0  0.98882  0.43814  0.45096  1.0000
  O   O5        1.0  0.57802  0.25185  0.32069  1.0000
  O   O6        1.0  0.92200  0.74815  0.82069  1.0000
  O   O7        1.0  0.42199  0.75185  0.17932  1.0000
  O   O8        1.0  0.07801  0.24814  0.67931  1.0000
  O   O9        1.0  0.81414  0.21543  0.54348  1.0000
  O   O10       1.0  0.68584  0.78457  0.04348  1.0000
  O   O11       1.0  0.18587  0.71544  0.95651  1.0000
  O   O12       1.0  0.31414  0.28456  0.45651  1.0000
