data_image0
_chemical_formula_structural       Gd2Ni2H24C30N4O26
_chemical_formula_sum              "Gd2 Ni2 H24 C30 N4 O26"
_cell_length_a       9.53025
_cell_length_b       10.6209
_cell_length_c       10.7279
_cell_angle_alpha    81.3403
_cell_angle_beta     73.7035
_cell_angle_gamma    75.7354

_space_group_name_H-M_alt    "P 1"
_space_group_IT_number       1

loop_
  _space_group_symop_operation_xyz
  'x, y, z'

loop_
  _atom_site_type_symbol
  _atom_site_label
  _atom_site_symmetry_multiplicity
  _atom_site_fract_x
  _atom_site_fract_y
  _atom_site_fract_z
  _atom_site_occupancy
  Gd  Gd1       1.0  0.32433  0.30245  0.96586  1.0000
  Gd  Gd2       1.0  0.67575  0.69765  0.03413  1.0000
  Ni  Ni1       1.0  0.19754  0.13706  0.38041  1.0000
  Ni  Ni2       1.0  0.80250  0.86283  0.61939  1.0000
  H   H1        1.0  0.42324  0.30234  0.24496  1.0000
  H   H2        1.0  0.57675  0.69764  0.75500  1.0000
  H   H3        1.0  0.65363  0.33808  0.29022  1.0000
  H   H4        1.0  0.34627  0.66201  0.70983  1.0000
  H   H5        1.0  0.71094  0.24145  0.50528  1.0000
  H   H6        1.0  0.28886  0.75870  0.49482  1.0000
  H   H7        1.0  0.01273  0.73703  0.36614  1.0000
  H   H8        1.0  0.98743  0.26260  0.63370  1.0000
  H   H9        1.0  0.23831  0.55308  0.32483  1.0000
  H   H10       1.0  0.76185  0.44650  0.67529  1.0000
  H   H11       1.0  0.32041  0.42248  0.51840  1.0000
  H   H12       1.0  0.67965  0.57735  0.48188  1.0000
  H   H13       1.0  0.44801  0.07987  0.13735  1.0000
  H   H14       1.0  0.55208  0.92017  0.86263  1.0000
  H   H15       1.0  0.59093  0.08172  0.02114  1.0000
  H   H16       1.0  0.40914  0.91841  0.97884  1.0000
  H   H17       1.0  0.14022  0.08896  0.03681  1.0000
  H   H18       1.0  0.86009  0.91090  0.96351  1.0000
  H   H19       1.0  0.23664  0.07392  0.88995  1.0000
  H   H20       1.0  0.76325  0.92614  0.11020  1.0000
  H   H21       1.0  0.13923  0.96162  0.28331  1.0000
  H   H22       1.0  0.86077  0.03824  0.71647  1.0000
  H   H23       1.0  0.96848  0.00695  0.36228  1.0000
  H   H24       1.0  0.03153  0.99301  0.63739  1.0000
  C   C1        1.0  0.45396  0.26249  0.33545  1.0000
  C   C2        1.0  0.54598  0.73753  0.66452  1.0000
  C   C3        1.0  0.58192  0.28128  0.36206  1.0000
  C   C4        1.0  0.41798  0.71879  0.63797  1.0000
  C   C5        1.0  0.61193  0.22899  0.48106  1.0000
  C   C6        1.0  0.38791  0.77111  0.51899  1.0000
  C   C7        1.0  0.51325  0.16084  0.57162  1.0000
  C   C8        1.0  0.48660  0.83924  0.42842  1.0000
  C   C9        1.0  0.38826  0.14404  0.53734  1.0000
  C   C10       1.0  0.61165  0.85599  0.46265  1.0000
  C   C11       1.0  0.27572  0.06826  0.62183  1.0000
  C   C12       1.0  0.72415  0.93179  0.37809  1.0000
  C   C13       1.0  0.53982  0.11715  0.70443  1.0000
  C   C14       1.0  0.46009  0.88293  0.29558  1.0000
  C   C15       1.0  0.05289  0.67776  0.44652  1.0000
  C   C16       1.0  0.94723  0.32198  0.55340  1.0000
  C   C17       1.0  0.17737  0.57418  0.42463  1.0000
  C   C18       1.0  0.82274  0.42552  0.57543  1.0000
  C   C19       1.0  0.22175  0.50178  0.53188  1.0000
  C   C20       1.0  0.77830  0.49806  0.46827  1.0000
  C   C21       1.0  0.13981  0.53113  0.65852  1.0000
  C   C22       1.0  0.86021  0.46885  0.34158  1.0000
  C   C23       1.0  0.01628  0.63594  0.67161  1.0000
  C   C24       1.0  0.98373  0.36406  0.32836  1.0000
  C   C25       1.0  0.91303  0.67162  0.80045  1.0000
  C   C26       1.0  0.08698  0.32850  0.19951  1.0000
  C   C27       1.0  0.19025  0.45139  0.77326  1.0000
  C   C28       1.0  0.80971  0.54871  0.22691  1.0000
  C   C29       1.0  0.56305  0.47671  0.93945  1.0000
  C   C30       1.0  0.43700  0.52338  0.06058  1.0000
  N   N1        1.0  0.36192  0.19424  0.42061  1.0000
  N   N2        1.0  0.63806  0.80576  0.57934  1.0000
  N   N3        1.0  0.97607  0.70861  0.56731  1.0000
  N   N4        1.0  0.02400  0.29126  0.43257  1.0000
  O   O1        1.0  0.18009  0.05052  0.56354  1.0000
  O   O2        1.0  0.81993  0.94941  0.43626  1.0000
  O   O3        1.0  0.27927  0.02553  0.73571  1.0000
  O   O4        1.0  0.72038  0.97464  0.26430  1.0000
  O   O5        1.0  0.46848  0.19295  0.79073  1.0000
  O   O6        1.0  0.53154  0.80714  0.20929  1.0000
  O   O7        1.0  0.63612  0.01383  0.72357  1.0000
  O   O8        1.0  0.36379  0.98620  0.27636  1.0000
  O   O9        1.0  0.93539  0.61387  0.90604  1.0000
  O   O10       1.0  0.06464  0.38638  0.09393  1.0000
  O   O11       1.0  0.79384  0.76201  0.79771  1.0000
  O   O12       1.0  0.20612  0.23805  0.20219  1.0000
  O   O13       1.0  0.27049  0.49779  0.82430  1.0000
  O   O14       1.0  0.72953  0.50234  0.17579  1.0000
  O   O15       1.0  0.16200  0.33915  0.80700  1.0000
  O   O16       1.0  0.83792  0.66099  0.19326  1.0000
  O   O17       1.0  0.55335  0.37996  0.88937  1.0000
  O   O18       1.0  0.44669  0.62013  0.11064  1.0000
  O   O19       1.0  0.66573  0.54097  0.89936  1.0000
  O   O20       1.0  0.33434  0.45907  0.10071  1.0000
  O   O21       1.0  0.49697  0.13717  0.06511  1.0000
  O   O22       1.0  0.50312  0.86294  0.93493  1.0000
  O   O23       1.0  0.23892  0.08975  0.97859  1.0000
  O   O24       1.0  0.76123  0.91024  0.02150  1.0000
  O   O25       1.0  0.06326  0.03751  0.31548  1.0000
  O   O26       1.0  0.93673  0.96242  0.68410  1.0000
