data_image0
_chemical_formula_structural       Zn2H32C42N12O10F4
_chemical_formula_sum              "Zn2 H32 C42 N12 O10 F4"
_cell_length_a       5.71838
_cell_length_b       11.6883
_cell_length_c       17.0834
_cell_angle_alpha    100.084
_cell_angle_beta     98.0742
_cell_angle_gamma    102.167

_space_group_name_H-M_alt    "P 1"
_space_group_IT_number       1

loop_
  _space_group_symop_operation_xyz
  'x, y, z'

loop_
  _atom_site_type_symbol
  _atom_site_label
  _atom_site_symmetry_multiplicity
  _atom_site_fract_x
  _atom_site_fract_y
  _atom_site_fract_z
  _atom_site_occupancy
  Zn  Zn1       1.0  0.48755  0.73290  0.30087  1.0000
  Zn  Zn2       1.0  0.51247  0.26710  0.69913  1.0000
  H   H1        1.0  0.71566  0.24539  0.42062  1.0000
  H   H2        1.0  0.28435  0.75460  0.57938  1.0000
  H   H3        1.0  0.46006  0.60071  0.45387  1.0000
  H   H4        1.0  0.53994  0.39929  0.54613  1.0000
  H   H5        1.0  0.86770  0.56358  0.26709  1.0000
  H   H6        1.0  0.13229  0.43641  0.73290  1.0000
  H   H7        1.0  0.05822  0.39096  0.42364  1.0000
  H   H8        1.0  0.94179  0.60904  0.57636  1.0000
  H   H9        1.0  0.12645  0.42600  0.33076  1.0000
  H   H10       1.0  0.87357  0.57400  0.66924  1.0000
  H   H11       1.0  0.16239  0.21175  0.28219  1.0000
  H   H12       1.0  0.83764  0.78825  0.71781  1.0000
  H   H13       1.0  0.13285  0.20262  0.38273  1.0000
  H   H14       1.0  0.86718  0.79738  0.61728  1.0000
  H   H15       1.0  0.63255  0.01788  0.35732  1.0000
  H   H16       1.0  0.36748  0.98212  0.64269  1.0000
  H   H17       1.0  0.95255  0.80138  0.20260  1.0000
  H   H18       1.0  0.04747  0.19862  0.79739  1.0000
  H   H19       1.0  0.84717  0.32516  0.05187  1.0000
  H   H20       1.0  0.15282  0.67486  0.94814  1.0000
  H   H21       1.0  0.20993  0.08633  0.09315  1.0000
  H   H22       1.0  0.79009  0.91367  0.90686  1.0000
  H   H23       1.0  0.39915  0.12062  0.23670  1.0000
  H   H24       1.0  0.60090  0.87937  0.76330  1.0000
  H   H25       1.0  0.81087  0.78649  0.49404  1.0000
  H   H26       1.0  0.18910  0.21349  0.50595  1.0000
  H   H27       1.0  0.38197  0.05414  0.44705  1.0000
  H   H28       1.0  0.61801  0.94586  0.55295  1.0000
  H   H29       1.0  0.85064  0.64389  0.09432  1.0000
  H   H30       1.0  0.14929  0.35612  0.90568  1.0000
  H   H31       1.0  0.39305  0.45039  0.04345  1.0000
  H   H32       1.0  0.60690  0.54962  0.95655  1.0000
  C   C1        1.0  0.58220  0.56914  0.41625  1.0000
  C   C2        1.0  0.41782  0.43086  0.58375  1.0000
  C   C3        1.0  0.78465  0.55172  0.31961  1.0000
  C   C4        1.0  0.21535  0.44827  0.68039  1.0000
  C   C5        1.0  0.97947  0.39176  0.36135  1.0000
  C   C6        1.0  0.02055  0.60824  0.63865  1.0000
  C   C7        1.0  0.83902  0.26211  0.31810  1.0000
  C   C8        1.0  0.16100  0.73789  0.68190  1.0000
  C   C9        1.0  0.03153  0.18650  0.32082  1.0000
  C   C10       1.0  0.96850  0.81350  0.67918  1.0000
  C   C11       1.0  0.74676  0.98715  0.31715  1.0000
  C   C12       1.0  0.25327  0.01285  0.68286  1.0000
  C   C13       1.0  0.91076  0.87954  0.23687  1.0000
  C   C14       1.0  0.08925  0.12046  0.76314  1.0000
  C   C15       1.0  0.72350  0.24787  0.22960  1.0000
  C   C16       1.0  0.27653  0.75213  0.77039  1.0000
  C   C17       1.0  0.84457  0.29956  0.17390  1.0000
  C   C18       1.0  0.15545  0.70044  0.82611  1.0000
  C   C19       1.0  0.74587  0.28190  0.09241  1.0000
  C   C20       1.0  0.25413  0.71811  0.90759  1.0000
  C   C21       1.0  0.51537  0.20595  0.06518  1.0000
  C   C22       1.0  0.48463  0.79406  0.93483  1.0000
  C   C23       1.0  0.38792  0.14781  0.11614  1.0000
  C   C24       1.0  0.61209  0.85219  0.88387  1.0000
  C   C25       1.0  0.49515  0.16940  0.19751  1.0000
  C   C26       1.0  0.50487  0.83059  0.80249  1.0000
  C   C27       1.0  0.23415  0.81472  0.43780  1.0000
  C   C28       1.0  0.76583  0.18528  0.56220  1.0000
  C   C29       1.0  0.11172  0.91046  0.46894  1.0000
  C   C30       1.0  0.88826  0.08953  0.53105  1.0000
  C   C31       1.0  0.89454  0.88048  0.49783  1.0000
  C   C32       1.0  0.10543  0.11951  0.50217  1.0000
  C   C33       1.0  0.21502  0.03077  0.47060  1.0000
  C   C34       1.0  0.78495  0.96922  0.52939  1.0000
  C   C35       1.0  0.29610  0.61300  0.15687  1.0000
  C   C36       1.0  0.70388  0.38701  0.84313  1.0000
  C   C37       1.0  0.14018  0.55434  0.07647  1.0000
  C   C38       1.0  0.85978  0.44568  0.92353  1.0000
  C   C39       1.0  0.91746  0.58218  0.05279  1.0000
  C   C40       1.0  0.08249  0.41785  0.94721  1.0000
  C   C41       1.0  0.22094  0.47165  0.02355  1.0000
  C   C42       1.0  0.77903  0.52837  0.97645  1.0000
  N   N1        1.0  0.63034  0.61229  0.34912  1.0000
  N   N2        1.0  0.36967  0.38770  0.65087  1.0000
  N   N3        1.0  0.69835  0.48570  0.42952  1.0000
  N   N4        1.0  0.30167  0.51430  0.57048  1.0000
  N   N5        1.0  0.82556  0.47580  0.36768  1.0000
  N   N6        1.0  0.17445  0.52420  0.63232  1.0000
  N   N7        1.0  0.92753  0.05827  0.29321  1.0000
  N   N8        1.0  0.07250  0.94173  0.70679  1.0000
  N   N9        1.0  0.03465  0.99071  0.24204  1.0000
  N   N10       1.0  0.96537  0.00928  0.75796  1.0000
  N   N11       1.0  0.73087  0.87339  0.28219  1.0000
  N   N12       1.0  0.26915  0.12660  0.71781  1.0000
  O   O1        1.0  0.51896  0.61472  0.16946  1.0000
  O   O2        1.0  0.48099  0.38528  0.83054  1.0000
  O   O3        1.0  0.19343  0.66314  0.21255  1.0000
  O   O4        1.0  0.80654  0.33685  0.78746  1.0000
  O   O5        1.0  0.33366  0.83119  0.37672  1.0000
  O   O6        1.0  0.66630  0.16881  0.62327  1.0000
  O   O7        1.0  0.23407  0.72872  0.47349  1.0000
  O   O8        1.0  0.76590  0.27128  0.52650  1.0000
  O   O9        1.0  0.65254  0.22157  0.36083  1.0000
  O   O10       1.0  0.34748  0.77842  0.63917  1.0000
  F   F1        1.0  0.07701  0.37059  0.19914  1.0000
  F   F2        1.0  0.92301  0.62940  0.80086  1.0000
  F   F3        1.0  0.41442  0.18731  0.98541  1.0000
  F   F4        1.0  0.58558  0.81272  0.01460  1.0000
