data_image0
_chemical_formula_structural       Fe2H32C44S4N20
_chemical_formula_sum              "Fe2 H32 C44 S4 N20"
_cell_length_a       7.54937
_cell_length_b       13.6164
_cell_length_c       13.0669
_cell_angle_alpha    74.5073
_cell_angle_beta     73.0016
_cell_angle_gamma    73.4695

_space_group_name_H-M_alt    "P 1"
_space_group_IT_number       1

loop_
  _space_group_symop_operation_xyz
  'x, y, z'

loop_
  _atom_site_type_symbol
  _atom_site_label
  _atom_site_symmetry_multiplicity
  _atom_site_fract_x
  _atom_site_fract_y
  _atom_site_fract_z
  _atom_site_occupancy
  Fe  Fe1       1.0  0.00001  0.99999  1.00000  1.0000
  Fe  Fe2       1.0  0.50000  0.50000  0.50000  1.0000
  H   H1        1.0  0.62031  0.10576  0.13592  1.0000
  H   H2        1.0  0.86718  0.86294  0.90974  1.0000
  H   H3        1.0  0.14241  0.63973  0.59008  1.0000
  H   H4        1.0  0.64163  0.60639  0.63695  1.0000
  H   H5        1.0  0.37970  0.89424  0.86408  1.0000
  H   H6        1.0  0.13284  0.13706  0.09026  1.0000
  H   H7        1.0  0.85759  0.36027  0.40992  1.0000
  H   H8        1.0  0.35838  0.39361  0.36305  1.0000
  H   H9        1.0  0.41703  0.28504  0.15895  1.0000
  H   H10       1.0  0.86633  0.84298  0.72492  1.0000
  H   H11       1.0  0.93369  0.65882  0.77459  1.0000
  H   H12       1.0  0.64168  0.78511  0.65918  1.0000
  H   H13       1.0  0.58296  0.71496  0.84105  1.0000
  H   H14       1.0  0.13368  0.15702  0.27508  1.0000
  H   H15       1.0  0.06631  0.34118  0.22542  1.0000
  H   H16       1.0  0.35833  0.21489  0.34082  1.0000
  H   H17       1.0  0.80757  0.41570  0.87615  1.0000
  H   H18       1.0  0.08274  0.12330  0.58806  1.0000
  H   H19       1.0  0.29446  0.37490  0.90994  1.0000
  H   H20       1.0  0.40197  0.91669  0.37704  1.0000
  H   H21       1.0  0.19241  0.58431  0.12385  1.0000
  H   H22       1.0  0.91725  0.87670  0.41194  1.0000
  H   H23       1.0  0.70554  0.62510  0.09006  1.0000
  H   H24       1.0  0.59804  0.08331  0.62296  1.0000
  H   H25       1.0  0.00054  0.23534  0.87002  1.0000
  H   H26       1.0  0.08623  0.12909  0.77463  1.0000
  H   H27       1.0  0.48980  0.36882  0.72380  1.0000
  H   H28       1.0  0.39489  0.73722  0.37230  1.0000
  H   H29       1.0  0.99946  0.76467  0.12998  1.0000
  H   H30       1.0  0.91376  0.87091  0.22537  1.0000
  H   H31       1.0  0.51020  0.63119  0.27620  1.0000
  H   H32       1.0  0.60512  0.26277  0.62771  1.0000
  C   C1        1.0  0.34902  0.09828  0.89919  1.0000
  C   C2        1.0  0.84719  0.40262  0.60120  1.0000
  C   C3        1.0  0.15281  0.59738  0.39880  1.0000
  C   C4        1.0  0.65098  0.90171  0.10081  1.0000
  C   C5        1.0  0.65648  0.17692  0.08170  1.0000
  C   C6        1.0  0.91581  0.91791  0.83633  1.0000
  C   C7        1.0  0.17160  0.58355  0.66307  1.0000
  C   C8        1.0  0.58708  0.67751  0.58248  1.0000
  C   C9        1.0  0.34352  0.82309  0.91830  1.0000
  C   C10       1.0  0.08420  0.08208  0.16366  1.0000
  C   C11       1.0  0.82840  0.41646  0.33693  1.0000
  C   C12       1.0  0.41293  0.32249  0.41752  1.0000
  C   C13       1.0  0.54492  0.27540  0.09364  1.0000
  C   C14       1.0  0.91472  0.90748  0.73426  1.0000
  C   C15       1.0  0.05651  0.59365  0.76534  1.0000
  C   C16       1.0  0.58813  0.77550  0.59444  1.0000
  C   C17       1.0  0.45507  0.72460  0.90636  1.0000
  C   C18       1.0  0.08529  0.09252  0.26574  1.0000
  C   C19       1.0  0.94349  0.40635  0.23467  1.0000
  C   C20       1.0  0.41188  0.22449  0.40557  1.0000
  C   C21       1.0  0.59717  0.36405  0.01996  1.0000
  C   C22       1.0  0.97669  0.98056  0.64111  1.0000
  C   C23       1.0  0.09801  0.51981  0.85849  1.0000
  C   C24       1.0  0.52024  0.86446  0.52069  1.0000
  C   C25       1.0  0.40281  0.63595  0.98003  1.0000
  C   C26       1.0  0.02331  0.01944  0.35889  1.0000
  C   C27       1.0  0.90199  0.48019  0.14151  1.0000
  C   C28       1.0  0.47977  0.13554  0.47930  1.0000
  C   C29       1.0  0.76195  0.34959  0.93587  1.0000
  C   C30       1.0  0.03531  0.06368  0.65689  1.0000
  C   C31       1.0  0.25620  0.43584  0.84185  1.0000
  C   C32       1.0  0.45329  0.85042  0.43716  1.0000
  C   C33       1.0  0.23803  0.65041  0.06413  1.0000
  C   C34       1.0  0.96468  0.93632  0.34311  1.0000
  C   C35       1.0  0.74380  0.56416  0.15815  1.0000
  C   C36       1.0  0.54672  0.14957  0.56284  1.0000
  C   C37       1.0  0.86848  0.24877  0.93162  1.0000
  C   C38       1.0  0.03551  0.06767  0.76115  1.0000
  C   C39       1.0  0.36531  0.43187  0.73725  1.0000
  C   C40       1.0  0.45186  0.74984  0.43403  1.0000
  C   C41       1.0  0.13151  0.75123  0.06838  1.0000
  C   C42       1.0  0.96449  0.93233  0.23885  1.0000
  C   C43       1.0  0.63469  0.56813  0.26276  1.0000
  C   C44       1.0  0.54814  0.25016  0.56597  1.0000
  S   S1        1.0  0.52602  0.15437  0.85207  1.0000
  S   S2        1.0  0.03234  0.34990  0.64916  1.0000
  S   S3        1.0  0.96767  0.65010  0.35084  1.0000
  S   S4        1.0  0.47398  0.84563  0.14793  1.0000
  N   N1        1.0  0.21770  0.05732  0.93443  1.0000
  N   N2        1.0  0.70976  0.44144  0.56492  1.0000
  N   N3        1.0  0.29023  0.55855  0.43508  1.0000
  N   N4        1.0  0.78231  0.94267  0.06557  1.0000
  N   N5        1.0  0.81713  0.16415  0.00257  1.0000
  N   N6        1.0  0.97842  0.99613  0.85117  1.0000
  N   N7        1.0  0.32741  0.50443  0.64779  1.0000
  N   N8        1.0  0.51768  0.66424  0.50433  1.0000
  N   N9        1.0  0.18286  0.83586  0.99743  1.0000
  N   N10       1.0  0.02159  0.00386  0.14883  1.0000
  N   N11       1.0  0.67258  0.49558  0.35221  1.0000
  N   N12       1.0  0.48232  0.33575  0.49568  1.0000
  N   N13       1.0  0.48161  0.46182  0.03874  1.0000
  N   N14       1.0  0.97792  0.96337  0.54048  1.0000
  N   N15       1.0  0.98051  0.53674  0.95947  1.0000
  N   N16       1.0  0.52047  0.96169  0.53830  1.0000
  N   N17       1.0  0.51837  0.53818  0.96126  1.0000
  N   N18       1.0  0.02208  0.03663  0.45952  1.0000
  N   N19       1.0  0.01949  0.46327  0.04053  1.0000
  N   N20       1.0  0.47954  0.03831  0.46170  1.0000
