data_image0
_chemical_formula_structural       K4H36C52N8F8
_chemical_formula_sum              "K4 H36 C52 N8 F8"
_cell_length_a       3.97792
_cell_length_b       11.5347
_cell_length_c       25.035
_cell_angle_alpha    90
_cell_angle_beta     91.9864
_cell_angle_gamma    90

_space_group_name_H-M_alt    "P 1"
_space_group_IT_number       1

loop_
  _space_group_symop_operation_xyz
  'x, y, z'

loop_
  _atom_site_type_symbol
  _atom_site_label
  _atom_site_symmetry_multiplicity
  _atom_site_fract_x
  _atom_site_fract_y
  _atom_site_fract_z
  _atom_site_occupancy
  K   K1        1.0  0.59162  0.14208  0.02287  1.0000
  K   K2        1.0  0.09162  0.35793  0.52287  1.0000
  K   K3        1.0  0.40838  0.85793  0.97713  1.0000
  K   K4        1.0  0.90838  0.64207  0.47713  1.0000
  H   H1        1.0  0.24095  0.51183  0.96730  1.0000
  H   H2        1.0  0.74095  0.98817  0.46730  1.0000
  H   H3        1.0  0.75905  0.48817  0.03270  1.0000
  H   H4        1.0  0.25905  0.01183  0.53270  1.0000
  H   H5        1.0  0.52307  0.54689  0.88061  1.0000
  H   H6        1.0  0.02307  0.95311  0.38061  1.0000
  H   H7        1.0  0.47693  0.45311  0.11939  1.0000
  H   H8        1.0  0.97693  0.04689  0.61939  1.0000
  H   H9        1.0  0.60747  0.37931  0.81884  1.0000
  H   H10       1.0  0.10747  0.12069  0.31884  1.0000
  H   H11       1.0  0.39253  0.62069  0.18116  1.0000
  H   H12       1.0  0.89253  0.87931  0.68116  1.0000
  H   H13       1.0  0.41261  0.18519  0.84210  1.0000
  H   H14       1.0  0.91261  0.31481  0.34210  1.0000
  H   H15       1.0  0.58739  0.81481  0.15790  1.0000
  H   H16       1.0  0.08739  0.68519  0.65790  1.0000
  H   H17       1.0  0.93547  0.60092  0.81111  1.0000
  H   H18       1.0  0.43546  0.89908  0.31111  1.0000
  H   H19       1.0  0.06453  0.39908  0.18889  1.0000
  H   H20       1.0  0.56453  0.10092  0.68889  1.0000
  H   H21       1.0  0.57990  0.68045  0.73423  1.0000
  H   H22       1.0  0.07989  0.81955  0.23423  1.0000
  H   H23       1.0  0.42011  0.31955  0.26577  1.0000
  H   H24       1.0  0.92011  0.18045  0.76577  1.0000
  H   H25       1.0  0.38494  0.88552  0.73758  1.0000
  H   H26       1.0  0.88494  0.61448  0.23758  1.0000
  H   H27       1.0  0.61507  0.11448  0.26242  1.0000
  H   H28       1.0  0.11506  0.38552  0.76242  1.0000
  H   H29       1.0  0.53288  0.00864  0.81565  1.0000
  H   H30       1.0  0.03288  0.49136  0.31565  1.0000
  H   H31       1.0  0.46712  0.99136  0.18435  1.0000
  H   H32       1.0  0.96712  0.50864  0.68435  1.0000
  H   H33       1.0  0.98870  0.08472  0.85379  1.0000
  H   H34       1.0  0.48870  0.41528  0.35379  1.0000
  H   H35       1.0  0.01130  0.91528  0.14621  1.0000
  H   H36       1.0  0.51130  0.58472  0.64621  1.0000
  C   C1        1.0  0.20243  0.23388  0.91747  1.0000
  C   C2        1.0  0.70243  0.26612  0.41747  1.0000
  C   C3        1.0  0.79757  0.76612  0.08253  1.0000
  C   C4        1.0  0.29757  0.73388  0.58253  1.0000
  C   C5        1.0  0.17500  0.33102  0.95102  1.0000
  C   C6        1.0  0.67500  0.16898  0.45102  1.0000
  C   C7        1.0  0.82500  0.66898  0.04898  1.0000
  C   C8        1.0  0.32500  0.83102  0.54898  1.0000
  C   C9        1.0  0.28140  0.44177  0.93914  1.0000
  C   C10       1.0  0.78141  0.05823  0.43914  1.0000
  C   C11       1.0  0.71859  0.55823  0.06086  1.0000
  C   C12       1.0  0.21859  0.94177  0.56085  1.0000
  C   C13       1.0  0.43502  0.46061  0.89063  1.0000
  C   C14       1.0  0.93503  0.03939  0.39063  1.0000
  C   C15       1.0  0.56498  0.53939  0.10937  1.0000
  C   C16       1.0  0.06498  0.96061  0.60937  1.0000
  C   C17       1.0  0.47756  0.36722  0.85606  1.0000
  C   C18       1.0  0.97756  0.13278  0.35606  1.0000
  C   C19       1.0  0.52244  0.63278  0.14394  1.0000
  C   C20       1.0  0.02244  0.86722  0.64394  1.0000
  C   C21       1.0  0.36524  0.25680  0.86917  1.0000
  C   C22       1.0  0.86524  0.24320  0.36917  1.0000
  C   C23       1.0  0.63476  0.74320  0.13083  1.0000
  C   C24       1.0  0.13476  0.75680  0.63083  1.0000
  C   C25       1.0  0.82508  0.87794  0.85793  1.0000
  C   C26       1.0  0.32508  0.62206  0.35793  1.0000
  C   C27       1.0  0.17492  0.12206  0.14207  1.0000
  C   C28       1.0  0.67492  0.37794  0.64207  1.0000
  C   C29       1.0  0.92316  0.76109  0.85409  1.0000
  C   C30       1.0  0.42315  0.73891  0.35408  1.0000
  C   C31       1.0  0.07684  0.23891  0.14592  1.0000
  C   C32       1.0  0.57685  0.26109  0.64592  1.0000
  C   C33       1.0  0.84215  0.68972  0.81110  1.0000
  C   C34       1.0  0.34215  0.81028  0.31110  1.0000
  C   C35       1.0  0.15785  0.31028  0.18890  1.0000
  C   C36       1.0  0.65785  0.18972  0.68890  1.0000
  C   C37       1.0  0.64900  0.73519  0.76836  1.0000
  C   C38       1.0  0.14900  0.76481  0.26836  1.0000
  C   C39       1.0  0.35100  0.26481  0.23164  1.0000
  C   C40       1.0  0.85101  0.23519  0.73164  1.0000
  C   C41       1.0  0.54293  0.85049  0.77016  1.0000
  C   C42       1.0  0.04294  0.64951  0.27016  1.0000
  C   C43       1.0  0.45707  0.14951  0.22984  1.0000
  C   C44       1.0  0.95707  0.35049  0.72984  1.0000
  C   C45       1.0  0.62772  0.92011  0.81410  1.0000
  C   C46       1.0  0.12772  0.57989  0.31410  1.0000
  C   C47       1.0  0.37228  0.07989  0.18590  1.0000
  C   C48       1.0  0.87228  0.42011  0.68590  1.0000
  C   C49       1.0  0.99754  0.05227  0.89542  1.0000
  C   C50       1.0  0.49754  0.44773  0.39541  1.0000
  C   C51       1.0  0.00246  0.94772  0.10459  1.0000
  C   C52       1.0  0.50246  0.55228  0.60459  1.0000
  N   N1        1.0  0.08565  0.12613  0.93424  1.0000
  N   N2        1.0  0.58564  0.37387  0.43424  1.0000
  N   N3        1.0  0.91436  0.87387  0.06576  1.0000
  N   N4        1.0  0.41436  0.62613  0.56575  1.0000
  N   N5        1.0  0.92366  0.94156  0.90330  1.0000
  N   N6        1.0  0.42366  0.55844  0.40330  1.0000
  N   N7        1.0  0.07633  0.05844  0.09670  1.0000
  N   N8        1.0  0.57633  0.44156  0.59670  1.0000
  F   F1        1.0  0.02804  0.31431  0.00004  1.0000
  F   F2        1.0  0.52804  0.18569  0.50004  1.0000
  F   F3        1.0  0.97196  0.68569  0.99996  1.0000
  F   F4        1.0  0.47196  0.81431  0.49996  1.0000
  F   F5        1.0  0.12240  0.71635  0.89529  1.0000
  F   F6        1.0  0.62238  0.78365  0.39529  1.0000
  F   F7        1.0  0.87760  0.28365  0.10471  1.0000
  F   F8        1.0  0.37761  0.21635  0.60471  1.0000
