data_image0
_chemical_formula_structural       Zn2P4H8C8N8
_chemical_formula_sum              "Zn2 P4 H8 C8 N8"
_cell_length_a       7.40358
_cell_length_b       8.05542
_cell_length_c       8.74884
_cell_angle_alpha    117.344
_cell_angle_beta     115.024
_cell_angle_gamma    89.9907

_space_group_name_H-M_alt    "P 1"
_space_group_IT_number       1

loop_
  _space_group_symop_operation_xyz
  'x, y, z'

loop_
  _atom_site_type_symbol
  _atom_site_label
  _atom_site_symmetry_multiplicity
  _atom_site_fract_x
  _atom_site_fract_y
  _atom_site_fract_z
  _atom_site_occupancy
  Zn  Zn1       1.0  0.25008  0.00005  0.00007  1.0000
  Zn  Zn2       1.0  0.74992  0.99995  0.99993  1.0000
  P   P1        1.0  0.19082  0.78873  0.38196  1.0000
  P   P2        1.0  0.80918  0.21127  0.61805  1.0000
  P   P3        1.0  0.30943  0.40753  0.61867  1.0000
  P   P4        1.0  0.69057  0.59246  0.38133  1.0000
  H   H1        1.0  0.44442  0.85141  0.27730  1.0000
  H   H2        1.0  0.16770  0.14924  0.72355  1.0000
  H   H3        1.0  0.05598  0.57460  0.72359  1.0000
  H   H4        1.0  0.33237  0.42533  0.27646  1.0000
  H   H5        1.0  0.55558  0.14859  0.72270  1.0000
  H   H6        1.0  0.83231  0.85076  0.27645  1.0000
  H   H7        1.0  0.94401  0.42540  0.27641  1.0000
  H   H8        1.0  0.66762  0.57466  0.72353  1.0000
  C   C1        1.0  0.29297  0.85751  0.26669  1.0000
  C   C2        1.0  0.02661  0.14274  0.73367  1.0000
  C   C3        1.0  0.20729  0.59134  0.73395  1.0000
  C   C4        1.0  0.47336  0.40860  0.26613  1.0000
  C   C5        1.0  0.70703  0.14250  0.73332  1.0000
  C   C6        1.0  0.97339  0.85726  0.26633  1.0000
  C   C7        1.0  0.79272  0.40867  0.26606  1.0000
  C   C8        1.0  0.52662  0.59140  0.73385  1.0000
  N   N1        1.0  0.17050  0.92553  0.15678  1.0000
  N   N2        1.0  0.01379  0.07465  0.84345  1.0000
  N   N3        1.0  0.32962  0.76899  0.84352  1.0000
  N   N4        1.0  0.48617  0.23101  0.15642  1.0000
  N   N5        1.0  0.82950  0.07447  0.84322  1.0000
  N   N6        1.0  0.98621  0.92535  0.15655  1.0000
  N   N7        1.0  0.67039  0.23101  0.15650  1.0000
  N   N8        1.0  0.51382  0.76899  0.84356  1.0000
