data_image0
_chemical_formula_structural       Ag8P8H16C16N16
_chemical_formula_sum              "Ag8 P8 H16 C16 N16"
_cell_length_a       7.48486
_cell_length_b       10.5893
_cell_length_c       11.1499
_cell_angle_alpha    90.0006
_cell_angle_beta     89.9999
_cell_angle_gamma    90.0001

_space_group_name_H-M_alt    "P 1"
_space_group_IT_number       1

loop_
  _space_group_symop_operation_xyz
  'x, y, z'

loop_
  _atom_site_type_symbol
  _atom_site_label
  _atom_site_symmetry_multiplicity
  _atom_site_fract_x
  _atom_site_fract_y
  _atom_site_fract_z
  _atom_site_occupancy
  Ag  Ag1       1.0  0.59877  0.63522  0.07588  1.0000
  Ag  Ag2       1.0  0.90123  0.13521  0.92413  1.0000
  Ag  Ag3       1.0  0.09877  0.36478  0.42412  1.0000
  Ag  Ag4       1.0  0.40123  0.86479  0.57587  1.0000
  Ag  Ag5       1.0  0.40123  0.36479  0.92412  1.0000
  Ag  Ag6       1.0  0.09877  0.86478  0.07587  1.0000
  Ag  Ag7       1.0  0.90123  0.63521  0.57588  1.0000
  Ag  Ag8       1.0  0.59877  0.13522  0.42413  1.0000
  P   P1        1.0  0.59463  0.68891  0.64745  1.0000
  P   P2        1.0  0.90537  0.18891  0.35255  1.0000
  P   P3        1.0  0.09463  0.31108  0.85255  1.0000
  P   P4        1.0  0.40537  0.81109  0.14744  1.0000
  P   P5        1.0  0.40537  0.31109  0.35255  1.0000
  P   P6        1.0  0.09463  0.81109  0.64744  1.0000
  P   P7        1.0  0.90537  0.68891  0.14745  1.0000
  P   P8        1.0  0.59463  0.18891  0.85256  1.0000
  H   H1        1.0  0.41537  0.48148  0.64413  1.0000
  H   H2        1.0  0.08463  0.98148  0.35587  1.0000
  H   H3        1.0  0.91537  0.51851  0.85587  1.0000
  H   H4        1.0  0.58463  0.01852  0.14413  1.0000
  H   H5        1.0  0.58463  0.51852  0.35587  1.0000
  H   H6        1.0  0.91537  0.01852  0.64413  1.0000
  H   H7        1.0  0.08463  0.48148  0.14412  1.0000
  H   H8        1.0  0.41537  0.98148  0.85587  1.0000
  H   H9        1.0  0.72111  0.79621  0.83591  1.0000
  H   H10       1.0  0.77889  0.29620  0.16410  1.0000
  H   H11       1.0  0.22111  0.20379  0.66409  1.0000
  H   H12       1.0  0.27889  0.70379  0.33591  1.0000
  H   H13       1.0  0.27889  0.20379  0.16409  1.0000
  H   H14       1.0  0.22111  0.70379  0.83590  1.0000
  H   H15       1.0  0.77889  0.79621  0.33591  1.0000
  H   H16       1.0  0.72111  0.29621  0.66410  1.0000
  C   C1        1.0  0.48593  0.55124  0.69809  1.0000
  C   C2        1.0  0.01407  0.05123  0.30191  1.0000
  C   C3        1.0  0.98593  0.44876  0.80191  1.0000
  C   C4        1.0  0.51407  0.94877  0.19809  1.0000
  C   C5        1.0  0.51407  0.44877  0.30191  1.0000
  C   C6        1.0  0.98593  0.94877  0.69809  1.0000
  C   C7        1.0  0.01407  0.55124  0.19808  1.0000
  C   C8        1.0  0.48593  0.05124  0.80192  1.0000
  C   C9        1.0  0.64671  0.71672  0.79928  1.0000
  C   C10       1.0  0.85329  0.21672  0.20073  1.0000
  C   C11       1.0  0.14670  0.28328  0.70072  1.0000
  C   C12       1.0  0.35329  0.78328  0.29927  1.0000
  C   C13       1.0  0.35329  0.28328  0.20072  1.0000
  C   C14       1.0  0.14671  0.78328  0.79927  1.0000
  C   C15       1.0  0.85330  0.71672  0.29927  1.0000
  C   C16       1.0  0.64671  0.21672  0.70073  1.0000
  N   N1        1.0  0.58609  0.62872  0.87377  1.0000
  N   N2        1.0  0.91391  0.12872  0.12623  1.0000
  N   N3        1.0  0.08608  0.37128  0.62623  1.0000
  N   N4        1.0  0.41392  0.87128  0.37377  1.0000
  N   N5        1.0  0.41391  0.37128  0.12623  1.0000
  N   N6        1.0  0.08608  0.87128  0.87377  1.0000
  N   N7        1.0  0.91392  0.62872  0.37377  1.0000
  N   N8        1.0  0.58609  0.12873  0.62623  1.0000
  N   N9        1.0  0.49466  0.53428  0.81617  1.0000
  N   N10       1.0  0.00534  0.03428  0.18383  1.0000
  N   N11       1.0  0.99465  0.46572  0.68382  1.0000
  N   N12       1.0  0.50534  0.96572  0.31618  1.0000
  N   N13       1.0  0.50534  0.46572  0.18383  1.0000
  N   N14       1.0  0.99465  0.96572  0.81617  1.0000
  N   N15       1.0  0.00535  0.53428  0.31618  1.0000
  N   N16       1.0  0.49465  0.03428  0.68382  1.0000
