data_image0
_chemical_formula_structural       Sr2H8C4S4O12
_chemical_formula_sum              "Sr2 H8 C4 S4 O12"
_cell_length_a       4.97435
_cell_length_b       4.97436
_cell_length_c       14.9827
_cell_angle_alpha    87.1895
_cell_angle_beta     87.1895
_cell_angle_gamma    66.4888

_space_group_name_H-M_alt    "P 1"
_space_group_IT_number       1

loop_
  _space_group_symop_operation_xyz
  'x, y, z'

loop_
  _atom_site_type_symbol
  _atom_site_label
  _atom_site_symmetry_multiplicity
  _atom_site_fract_x
  _atom_site_fract_y
  _atom_site_fract_z
  _atom_site_occupancy
  Sr  Sr1       1.0  0.03064  0.96936  0.75000  1.0000
  Sr  Sr2       1.0  0.96936  0.03064  0.25000  1.0000
  H   H1        1.0  0.68364  0.66043  0.46514  1.0000
  H   H2        1.0  0.33957  0.31636  0.03486  1.0000
  H   H3        1.0  0.31636  0.33957  0.53486  1.0000
  H   H4        1.0  0.66043  0.68364  0.96514  1.0000
  H   H5        1.0  0.87954  0.83193  0.52049  1.0000
  H   H6        1.0  0.16806  0.12046  0.97951  1.0000
  H   H7        1.0  0.12046  0.16807  0.47951  1.0000
  H   H8        1.0  0.83194  0.87954  0.02049  1.0000
  C   C1        1.0  0.85624  0.62413  0.51290  1.0000
  C   C2        1.0  0.37587  0.14376  0.98710  1.0000
  C   C3        1.0  0.14376  0.37587  0.48710  1.0000
  C   C4        1.0  0.62413  0.85624  0.01290  1.0000
  S   S1        1.0  0.71630  0.54606  0.61832  1.0000
  S   S2        1.0  0.45395  0.28369  0.88168  1.0000
  S   S3        1.0  0.28369  0.45395  0.38168  1.0000
  S   S4        1.0  0.54605  0.71631  0.11832  1.0000
  O   O1        1.0  0.91842  0.54599  0.68824  1.0000
  O   O2        1.0  0.45401  0.08158  0.81175  1.0000
  O   O3        1.0  0.08158  0.45401  0.31175  1.0000
  O   O4        1.0  0.54599  0.91842  0.18825  1.0000
  O   O5        1.0  0.71725  0.24936  0.61515  1.0000
  O   O6        1.0  0.75064  0.28275  0.88485  1.0000
  O   O7        1.0  0.28275  0.75064  0.38485  1.0000
  O   O8        1.0  0.24936  0.71725  0.11515  1.0000
  O   O9        1.0  0.42127  0.77723  0.62911  1.0000
  O   O10       1.0  0.22277  0.57873  0.87089  1.0000
  O   O11       1.0  0.57874  0.22277  0.37089  1.0000
  O   O12       1.0  0.77723  0.42126  0.12911  1.0000
