data_image0
_chemical_formula_structural       Zn2H28C32N12O10
_chemical_formula_sum              "Zn2 H28 C32 N12 O10"
_cell_length_a       8.11933
_cell_length_b       10.1948
_cell_length_c       10.1948
_cell_angle_alpha    99.319
_cell_angle_beta     91.574
_cell_angle_gamma    91.5739

_space_group_name_H-M_alt    "P 1"
_space_group_IT_number       1

loop_
  _space_group_symop_operation_xyz
  'x, y, z'

loop_
  _atom_site_type_symbol
  _atom_site_label
  _atom_site_symmetry_multiplicity
  _atom_site_fract_x
  _atom_site_fract_y
  _atom_site_fract_z
  _atom_site_occupancy
  Zn  Zn1       1.0  0.25000  0.36889  0.63111  1.0000
  Zn  Zn2       1.0  0.75000  0.63111  0.36889  1.0000
  H   H1        1.0  0.31924  0.48903  0.42345  1.0000
  H   H2        1.0  0.18076  0.57655  0.51097  1.0000
  H   H3        1.0  0.68076  0.51097  0.57655  1.0000
  H   H4        1.0  0.81924  0.42345  0.48903  1.0000
  H   H5        1.0  0.64522  0.48245  0.98957  1.0000
  H   H6        1.0  0.85478  0.01043  0.51755  1.0000
  H   H7        1.0  0.35478  0.51755  0.01043  1.0000
  H   H8        1.0  0.14522  0.98957  0.48245  1.0000
  H   H9        1.0  0.67526  0.32665  0.88716  1.0000
  H   H10       1.0  0.82474  0.11284  0.67335  1.0000
  H   H11       1.0  0.32474  0.67335  0.11284  1.0000
  H   H12       1.0  0.17526  0.88716  0.32665  1.0000
  H   H13       1.0  0.28710  0.69243  0.78214  1.0000
  H   H14       1.0  0.21290  0.21786  0.30757  1.0000
  H   H15       1.0  0.71290  0.30757  0.21786  1.0000
  H   H16       1.0  0.78711  0.78214  0.69243  1.0000
  H   H17       1.0  0.22670  0.89430  0.94466  1.0000
  H   H18       1.0  0.27330  0.05534  0.10570  1.0000
  H   H19       1.0  0.77330  0.10570  0.05534  1.0000
  H   H20       1.0  0.72670  0.94466  0.89430  1.0000
  H   H21       1.0  0.97623  0.90458  0.07859  1.0000
  H   H22       1.0  0.52377  0.92141  0.09541  1.0000
  H   H23       1.0  0.02378  0.09542  0.92141  1.0000
  H   H24       1.0  0.47623  0.07859  0.90459  1.0000
  H   H25       1.0  0.76695  0.71581  0.04862  1.0000
  H   H26       1.0  0.73304  0.95138  0.28419  1.0000
  H   H27       1.0  0.23305  0.28419  0.95138  1.0000
  H   H28       1.0  0.26695  0.04862  0.71582  1.0000
  C   C1        1.0  0.53461  0.46128  0.79002  1.0000
  C   C2        1.0  0.96539  0.20998  0.53872  1.0000
  C   C3        1.0  0.46539  0.53872  0.20998  1.0000
  C   C4        1.0  0.03461  0.79002  0.46128  1.0000
  C   C5        1.0  0.67127  0.43402  0.88829  1.0000
  C   C6        1.0  0.82873  0.11172  0.56598  1.0000
  C   C7        1.0  0.32873  0.56598  0.11171  1.0000
  C   C8        1.0  0.17127  0.88829  0.43402  1.0000
  C   C9        1.0  0.91221  0.60113  0.89645  1.0000
  C   C10       1.0  0.58779  0.10355  0.39887  1.0000
  C   C11       1.0  0.08779  0.39887  0.10355  1.0000
  C   C12       1.0  0.41221  0.89645  0.60113  1.0000
  C   C13       1.0  0.05893  0.59232  0.82422  1.0000
  C   C14       1.0  0.44107  0.17578  0.40768  1.0000
  C   C15       1.0  0.94107  0.40768  0.17578  1.0000
  C   C16       1.0  0.55893  0.82422  0.59232  1.0000
  C   C17       1.0  0.17522  0.69837  0.83913  1.0000
  C   C18       1.0  0.32478  0.16087  0.30162  1.0000
  C   C19       1.0  0.82478  0.30163  0.16087  1.0000
  C   C20       1.0  0.67522  0.83913  0.69838  1.0000
  C   C21       1.0  0.13969  0.80966  0.93019  1.0000
  C   C22       1.0  0.36031  0.06981  0.19034  1.0000
  C   C23       1.0  0.86031  0.19034  0.06981  1.0000
  C   C24       1.0  0.63969  0.93019  0.80966  1.0000
  C   C25       1.0  0.99494  0.81607  0.00538  1.0000
  C   C26       1.0  0.50506  0.99462  0.18393  1.0000
  C   C27       1.0  0.00506  0.18393  0.99462  1.0000
  C   C28       1.0  0.49495  0.00539  0.81607  1.0000
  C   C29       1.0  0.87732  0.71277  0.98986  1.0000
  C   C30       1.0  0.62269  0.01014  0.28723  1.0000
  C   C31       1.0  0.12268  0.28723  0.01014  1.0000
  C   C32       1.0  0.37732  0.98986  0.71277  1.0000
  N   N1        1.0  0.83234  0.48068  0.85557  1.0000
  N   N2        1.0  0.66766  0.14443  0.51932  1.0000
  N   N3        1.0  0.16766  0.51932  0.14443  1.0000
  N   N4        1.0  0.33234  0.85558  0.48068  1.0000
  N   N5        1.0  0.92053  0.40335  0.76600  1.0000
  N   N6        1.0  0.57947  0.23400  0.59665  1.0000
  N   N7        1.0  0.07947  0.59665  0.23400  1.0000
  N   N8        1.0  0.42053  0.76600  0.40335  1.0000
  N   N9        1.0  0.05659  0.46838  0.74674  1.0000
  N   N10       1.0  0.44341  0.25326  0.53162  1.0000
  N   N11       1.0  0.94341  0.53162  0.25325  1.0000
  N   N12       1.0  0.55659  0.74674  0.46838  1.0000
  O   O1        1.0  0.56227  0.53766  0.70845  1.0000
  O   O2        1.0  0.93773  0.29155  0.46233  1.0000
  O   O3        1.0  0.43773  0.46234  0.29155  1.0000
  O   O4        1.0  0.06227  0.70845  0.53767  1.0000
  O   O5        1.0  0.25000  0.49687  0.50313  1.0000
  O   O6        1.0  0.75000  0.50313  0.49687  1.0000
  O   O7        1.0  0.39659  0.40041  0.80332  1.0000
  O   O8        1.0  0.10341  0.19668  0.59959  1.0000
  O   O9        1.0  0.60341  0.59959  0.19668  1.0000
  O   O10       1.0  0.89660  0.80332  0.40041  1.0000
