data_image0
_chemical_formula_structural       V6Zn2H18C20N6O17
_chemical_formula_sum              "V6 Zn2 H18 C20 N6 O17"
_cell_length_a       7.27659
_cell_length_b       10.3028
_cell_length_c       10.6713
_cell_angle_alpha    80.3476
_cell_angle_beta     69.6662
_cell_angle_gamma    87.8789

_space_group_name_H-M_alt    "P 1"
_space_group_IT_number       1

loop_
  _space_group_symop_operation_xyz
  'x, y, z'

loop_
  _atom_site_type_symbol
  _atom_site_label
  _atom_site_symmetry_multiplicity
  _atom_site_fract_x
  _atom_site_fract_y
  _atom_site_fract_z
  _atom_site_occupancy
  V   V1        1.0  0.43674  0.56823  0.87774  1.0000
  V   V2        1.0  0.56326  0.43177  0.12226  1.0000
  V   V3        1.0  0.08710  0.40182  0.08686  1.0000
  V   V4        1.0  0.91290  0.59818  0.91314  1.0000
  V   V5        1.0  0.86984  0.45676  0.39780  1.0000
  V   V6        1.0  0.13016  0.54323  0.60220  1.0000
  Zn  Zn1       1.0  0.45298  0.32668  0.67623  1.0000
  Zn  Zn2       1.0  0.54702  0.67332  0.32377  1.0000
  H   H1        1.0  0.40964  0.90584  0.81446  1.0000
  H   H2        1.0  0.59036  0.09416  0.18554  1.0000
  H   H3        1.0  0.25819  0.83930  0.68818  1.0000
  H   H4        1.0  0.74181  0.16070  0.31182  1.0000
  H   H5        1.0  0.15895  0.89318  0.48553  1.0000
  H   H6        1.0  0.84105  0.10682  0.51447  1.0000
  H   H7        1.0  0.18903  0.13031  0.36545  1.0000
  H   H8        1.0  0.81097  0.86969  0.63455  1.0000
  H   H9        1.0  0.31763  0.29892  0.45705  1.0000
  H   H10       1.0  0.68237  0.70108  0.54295  1.0000
  H   H11       1.0  0.65350  0.87869  0.88769  1.0000
  H   H12       1.0  0.34650  0.12131  0.11231  1.0000
  H   H13       1.0  0.92993  0.97364  0.92828  1.0000
  H   H14       1.0  0.07007  0.02636  0.07172  1.0000
  H   H15       1.0  0.98703  0.22282  0.87326  1.0000
  H   H16       1.0  0.01297  0.77718  0.12674  1.0000
  H   H17       1.0  0.75684  0.35782  0.78069  1.0000
  H   H18       1.0  0.24316  0.64218  0.21931  1.0000
  C   C1        1.0  0.26498  0.94038  0.63614  1.0000
  C   C2        1.0  0.73502  0.05961  0.36386  1.0000
  C   C3        1.0  0.21046  0.97137  0.52314  1.0000
  C   C4        1.0  0.78954  0.02863  0.47686  1.0000
  C   C5        1.0  0.22737  0.10206  0.45594  1.0000
  C   C6        1.0  0.77263  0.89794  0.54406  1.0000
  C   C7        1.0  0.29842  0.19626  0.50643  1.0000
  C   C8        1.0  0.70158  0.80374  0.49357  1.0000
  C   C9        1.0  0.34220  0.04161  0.67869  1.0000
  C   C10       1.0  0.65780  0.95839  0.32131  1.0000
  C   C11       1.0  0.56084  0.06719  0.80970  1.0000
  C   C12       1.0  0.43916  0.93281  0.19030  1.0000
  C   C13       1.0  0.68101  0.98465  0.86567  1.0000
  C   C14       1.0  0.31899  0.01535  0.13432  1.0000
  C   C15       1.0  0.83533  0.03901  0.88814  1.0000
  C   C16       1.0  0.16467  0.96099  0.11186  1.0000
  C   C17       1.0  0.86780  0.17561  0.85714  1.0000
  C   C18       1.0  0.13220  0.82439  0.14285  1.0000
  C   C19       1.0  0.74156  0.25099  0.80543  1.0000
  C   C20       1.0  0.25844  0.74901  0.19457  1.0000
  N   N1        1.0  0.41309  0.00679  0.78441  1.0000
  N   N2        1.0  0.58691  0.99321  0.21559  1.0000
  N   N3        1.0  0.58971  0.19933  0.78234  1.0000
  N   N4        1.0  0.41029  0.80067  0.21766  1.0000
  N   N5        1.0  0.35366  0.16718  0.61635  1.0000
  N   N6        1.0  0.64634  0.83282  0.38365  1.0000
  O   O1        1.0  0.67023  0.36924  0.49583  1.0000
  O   O2        1.0  0.32977  0.63076  0.50418  1.0000
  O   O3        1.0  0.19370  0.40639  0.68319  1.0000
  O   O4        1.0  0.80630  0.59360  0.31682  1.0000
  O   O5        1.0  0.00000  0.50000  0.50000  1.0000
  O   O6        1.0  0.51296  0.49802  0.73892  1.0000
  O   O7        1.0  0.48704  0.50198  0.26108  1.0000
  O   O8        1.0  0.15516  0.53948  0.92247  1.0000
  O   O9        1.0  0.84484  0.46052  0.07753  1.0000
  O   O10       1.0  0.33571  0.46689  0.06645  1.0000
  O   O11       1.0  0.66428  0.53311  0.93355  1.0000
  O   O12       1.0  0.12325  0.26288  0.03378  1.0000
  O   O13       1.0  0.87675  0.73712  0.96622  1.0000
  O   O14       1.0  0.00945  0.36292  0.26901  1.0000
  O   O15       1.0  0.99055  0.63708  0.73099  1.0000
  O   O16       1.0  0.45010  0.72860  0.83694  1.0000
  O   O17       1.0  0.54990  0.27140  0.16306  1.0000
