data_image0
_chemical_formula_structural       Cd2H24C32N20O4
_chemical_formula_sum              "Cd2 H24 C32 N20 O4"
_cell_length_a       9.44794
_cell_length_b       10.1683
_cell_length_c       10.5927
_cell_angle_alpha    118.681
_cell_angle_beta     90.0004
_cell_angle_gamma    90.0006

_space_group_name_H-M_alt    "P 1"
_space_group_IT_number       1

loop_
  _space_group_symop_operation_xyz
  'x, y, z'

loop_
  _atom_site_type_symbol
  _atom_site_label
  _atom_site_symmetry_multiplicity
  _atom_site_fract_x
  _atom_site_fract_y
  _atom_site_fract_z
  _atom_site_occupancy
  Cd  Cd1       1.0  0.50000  0.50000  0.00000  1.0000
  Cd  Cd2       1.0  0.00000  0.50000  0.50000  1.0000
  H   H1        1.0  0.43761  0.88306  0.11188  1.0000
  H   H2        1.0  0.93761  0.11693  0.38811  1.0000
  H   H3        1.0  0.56239  0.11694  0.88812  1.0000
  H   H4        1.0  0.06239  0.88306  0.61188  1.0000
  H   H5        1.0  0.55192  0.02049  0.22912  1.0000
  H   H6        1.0  0.05192  0.97951  0.27088  1.0000
  H   H7        1.0  0.44808  0.97951  0.77088  1.0000
  H   H8        1.0  0.94808  0.02049  0.72912  1.0000
  H   H9        1.0  0.65097  0.35612  0.68104  1.0000
  H   H10       1.0  0.15096  0.64388  0.81896  1.0000
  H   H11       1.0  0.34903  0.64388  0.31896  1.0000
  H   H12       1.0  0.84904  0.35612  0.18104  1.0000
  H   H13       1.0  0.60899  0.17359  0.42590  1.0000
  H   H14       1.0  0.10899  0.82642  0.07410  1.0000
  H   H15       1.0  0.39101  0.82641  0.57410  1.0000
  H   H16       1.0  0.89101  0.17358  0.92590  1.0000
  H   H17       1.0  0.19370  0.09618  0.54890  1.0000
  H   H18       1.0  0.69370  0.90382  0.95110  1.0000
  H   H19       1.0  0.80630  0.90383  0.45110  1.0000
  H   H20       1.0  0.30630  0.09618  0.04890  1.0000
  H   H21       1.0  0.25426  0.28560  0.80386  1.0000
  H   H22       1.0  0.75425  0.71440  0.69614  1.0000
  H   H23       1.0  0.74574  0.71440  0.19614  1.0000
  H   H24       1.0  0.24574  0.28560  0.30386  1.0000
  C   C1        1.0  0.83839  0.42478  0.89157  1.0000
  C   C2        1.0  0.33839  0.57523  0.60843  1.0000
  C   C3        1.0  0.16162  0.57523  0.10843  1.0000
  C   C4        1.0  0.66161  0.42477  0.39157  1.0000
  C   C5        1.0  0.96517  0.33412  0.68428  1.0000
  C   C6        1.0  0.46518  0.66588  0.81573  1.0000
  C   C7        1.0  0.03482  0.66588  0.31573  1.0000
  C   C8        1.0  0.53482  0.33412  0.18428  1.0000
  C   C9        1.0  0.55054  0.29638  0.64809  1.0000
  C   C10       1.0  0.05053  0.70362  0.85191  1.0000
  C   C11       1.0  0.44946  0.70362  0.35191  1.0000
  C   C12       1.0  0.94947  0.29638  0.14809  1.0000
  C   C13       1.0  0.52546  0.19426  0.50427  1.0000
  C   C14       1.0  0.02545  0.80574  0.99573  1.0000
  C   C15       1.0  0.47454  0.80574  0.49573  1.0000
  C   C16       1.0  0.97455  0.19426  0.00426  1.0000
  C   C17       1.0  0.39487  0.12019  0.46586  1.0000
  C   C18       1.0  0.89487  0.87981  0.03413  1.0000
  C   C19       1.0  0.60513  0.87981  0.53414  1.0000
  C   C20       1.0  0.10513  0.12019  0.96586  1.0000
  C   C21       1.0  0.29571  0.15253  0.57484  1.0000
  C   C22       1.0  0.79571  0.84746  0.92515  1.0000
  C   C23       1.0  0.70429  0.84747  0.42516  1.0000
  C   C24       1.0  0.20429  0.15253  0.07484  1.0000
  C   C25       1.0  0.32926  0.25618  0.71598  1.0000
  C   C26       1.0  0.82926  0.74381  0.78402  1.0000
  C   C27       1.0  0.67074  0.74382  0.28402  1.0000
  C   C28       1.0  0.17074  0.25618  0.21598  1.0000
  C   C29       1.0  0.35690  0.00411  0.31444  1.0000
  C   C30       1.0  0.85690  0.99588  0.18556  1.0000
  C   C31       1.0  0.64310  0.99589  0.68556  1.0000
  C   C32       1.0  0.14310  0.00411  0.81444  1.0000
  N   N1        1.0  0.74162  0.47995  0.96958  1.0000
  N   N2        1.0  0.24162  0.52006  0.53043  1.0000
  N   N3        1.0  0.25838  0.52005  0.03043  1.0000
  N   N4        1.0  0.75838  0.47994  0.46957  1.0000
  N   N5        1.0  0.95164  0.36654  0.81692  1.0000
  N   N6        1.0  0.45166  0.63347  0.68309  1.0000
  N   N7        1.0  0.04836  0.63347  0.18309  1.0000
  N   N8        1.0  0.54834  0.36654  0.31692  1.0000
  N   N9        1.0  0.98830  0.30256  0.56299  1.0000
  N   N10       1.0  0.48830  0.69744  0.93701  1.0000
  N   N11       1.0  0.01170  0.69744  0.43701  1.0000
  N   N12       1.0  0.51170  0.30256  0.06299  1.0000
  N   N13       1.0  0.45494  0.32708  0.75266  1.0000
  N   N14       1.0  0.95494  0.67292  0.74734  1.0000
  N   N15       1.0  0.54506  0.67292  0.24734  1.0000
  N   N16       1.0  0.04506  0.32708  0.25266  1.0000
  N   N17       1.0  0.45240  0.97500  0.21097  1.0000
  N   N18       1.0  0.95241  0.02500  0.28903  1.0000
  N   N19       1.0  0.54760  0.02501  0.78903  1.0000
  N   N20       1.0  0.04759  0.97500  0.71096  1.0000
  O   O1        1.0  0.23993  0.93818  0.28998  1.0000
  O   O2        1.0  0.73993  0.06181  0.21001  1.0000
  O   O3        1.0  0.76007  0.06182  0.71002  1.0000
  O   O4        1.0  0.26007  0.93819  0.78998  1.0000
