data_image0
_chemical_formula_structural       CuH12C16N10O2
_chemical_formula_sum              "Cu1 H12 C16 N10 O2"
_cell_length_a       6.20289
_cell_length_b       7.42199
_cell_length_c       11.4131
_cell_angle_alpha    99.4272
_cell_angle_beta     91.2872
_cell_angle_gamma    102.32

_space_group_name_H-M_alt    "P 1"
_space_group_IT_number       1

loop_
  _space_group_symop_operation_xyz
  'x, y, z'

loop_
  _atom_site_type_symbol
  _atom_site_label
  _atom_site_symmetry_multiplicity
  _atom_site_fract_x
  _atom_site_fract_y
  _atom_site_fract_z
  _atom_site_occupancy
  Cu  Cu1       1.0  0.99997  1.00000  0.99999  1.0000
  H   H1        1.0  0.04477  0.70914  0.40300  1.0000
  H   H2        1.0  0.95522  0.29084  0.59698  1.0000
  H   H3        1.0  0.25706  0.65367  0.31647  1.0000
  H   H4        1.0  0.74298  0.34632  0.68354  1.0000
  H   H5        1.0  0.78764  0.81105  0.76228  1.0000
  H   H6        1.0  0.21236  0.18891  0.23770  1.0000
  H   H7        1.0  0.89995  0.71690  0.56016  1.0000
  H   H8        1.0  0.10009  0.28308  0.43983  1.0000
  H   H9        1.0  0.57762  0.95244  0.69301  1.0000
  H   H10       1.0  0.42240  0.04755  0.30703  1.0000
  H   H11       1.0  0.43154  0.03401  0.89508  1.0000
  H   H12       1.0  0.56843  0.96596  0.10494  1.0000
  C   C1        1.0  0.20563  0.70450  0.09174  1.0000
  C   C2        1.0  0.79437  0.29550  0.90825  1.0000
  C   C3        1.0  0.30593  0.42057  0.08318  1.0000
  C   C4        1.0  0.69407  0.57947  0.91682  1.0000
  C   C5        1.0  0.96114  0.83971  0.74276  1.0000
  C   C6        1.0  0.03886  0.16029  0.25723  1.0000
  C   C7        1.0  0.02848  0.78625  0.62932  1.0000
  C   C8        1.0  0.97154  0.21377  0.37067  1.0000
  C   C9        1.0  0.25469  0.82375  0.61021  1.0000
  C   C10       1.0  0.74534  0.17629  0.38979  1.0000
  C   C11       1.0  0.40167  0.91724  0.70627  1.0000
  C   C12       1.0  0.59833  0.08279  0.29374  1.0000
  C   C13       1.0  0.32263  0.96433  0.81751  1.0000
  C   C14       1.0  0.67735  0.03568  0.18250  1.0000
  C   C15       1.0  0.35051  0.76278  0.49363  1.0000
  C   C16       1.0  0.64948  0.23723  0.50637  1.0000
  N   N1        1.0  0.16603  0.83978  0.06277  1.0000
  N   N2        1.0  0.83396  0.16020  0.93722  1.0000
  N   N3        1.0  0.25436  0.57171  0.13967  1.0000
  N   N4        1.0  0.74560  0.42828  0.86034  1.0000
  N   N5        1.0  0.34723  0.27546  0.04383  1.0000
  N   N6        1.0  0.65277  0.72454  0.95619  1.0000
  N   N7        1.0  0.10523  0.92542  0.83479  1.0000
  N   N8        1.0  0.89476  0.07459  0.16521  1.0000
  N   N9        1.0  0.20565  0.70235  0.39793  1.0000
  N   N10       1.0  0.79436  0.29766  0.60206  1.0000
  O   O1        1.0  0.55123  0.76614  0.48911  1.0000
  O   O2        1.0  0.44875  0.23386  0.51088  1.0000
