data_image0
_chemical_formula_structural       Cu4H28C24I4N12O4
_chemical_formula_sum              "Cu4 H28 C24 I4 N12 O4"
_cell_length_a       4.5983
_cell_length_b       9.96266
_cell_length_c       19.6639
_cell_angle_alpha    102.013
_cell_angle_beta     90.0016
_cell_angle_gamma    89.9961

_space_group_name_H-M_alt    "P 1"
_space_group_IT_number       1

loop_
  _space_group_symop_operation_xyz
  'x, y, z'

loop_
  _atom_site_type_symbol
  _atom_site_label
  _atom_site_symmetry_multiplicity
  _atom_site_fract_x
  _atom_site_fract_y
  _atom_site_fract_z
  _atom_site_occupancy
  Cu  Cu1       1.0  0.67217  0.52462  0.79066  1.0000
  Cu  Cu2       1.0  0.17212  0.47539  0.70932  1.0000
  Cu  Cu3       1.0  0.32784  0.47536  0.20934  1.0000
  Cu  Cu4       1.0  0.82790  0.52461  0.29068  1.0000
  H   H1        1.0  0.27421  0.75600  0.84061  1.0000
  H   H2        1.0  0.77420  0.24400  0.65938  1.0000
  H   H3        1.0  0.72580  0.24398  0.15938  1.0000
  H   H4        1.0  0.22579  0.75600  0.34062  1.0000
  H   H5        1.0  0.12473  0.90375  0.95409  1.0000
  H   H6        1.0  0.62469  0.09627  0.54591  1.0000
  H   H7        1.0  0.87531  0.09626  0.04591  1.0000
  H   H8        1.0  0.37528  0.90373  0.45409  1.0000
  H   H9        1.0  0.70702  0.66593  0.05551  1.0000
  H   H10       1.0  0.20695  0.33404  0.44448  1.0000
  H   H11       1.0  0.29301  0.33407  0.94449  1.0000
  H   H12       1.0  0.79302  0.66597  0.55552  1.0000
  H   H13       1.0  0.83238  0.52888  0.93741  1.0000
  H   H14       1.0  0.33235  0.47110  0.56258  1.0000
  H   H15       1.0  0.16762  0.47112  0.06259  1.0000
  H   H16       1.0  0.66765  0.52890  0.43742  1.0000
  H   H17       1.0  0.72145  0.89356  0.12283  1.0000
  H   H18       1.0  0.22143  0.10644  0.37717  1.0000
  H   H19       1.0  0.27857  0.10645  0.87717  1.0000
  H   H20       1.0  0.77854  0.89357  0.62283  1.0000
  H   H21       1.0  0.33005  0.07801  0.18823  1.0000
  H   H22       1.0  0.83008  0.92198  0.31176  1.0000
  H   H23       1.0  0.66995  0.92199  0.81177  1.0000
  H   H24       1.0  0.16991  0.07802  0.68824  1.0000
  H   H25       1.0  0.29209  0.94829  0.22553  1.0000
  H   H26       1.0  0.79208  0.05172  0.27447  1.0000
  H   H27       1.0  0.70792  0.05171  0.77447  1.0000
  H   H28       1.0  0.20789  0.94828  0.72553  1.0000
  C   C1        1.0  0.36562  0.74038  0.88964  1.0000
  C   C2        1.0  0.86558  0.25963  0.61035  1.0000
  C   C3        1.0  0.63440  0.25962  0.11036  1.0000
  C   C4        1.0  0.13440  0.74037  0.38965  1.0000
  C   C5        1.0  0.28280  0.82177  0.95284  1.0000
  C   C6        1.0  0.78276  0.17823  0.54715  1.0000
  C   C7        1.0  0.71723  0.17823  0.04716  1.0000
  C   C8        1.0  0.21721  0.82177  0.45284  1.0000
  C   C9        1.0  0.40730  0.79785  0.01418  1.0000
  C   C10       1.0  0.90726  0.20214  0.48581  1.0000
  C   C11       1.0  0.59273  0.20215  0.98582  1.0000
  C   C12       1.0  0.09271  0.79787  0.51419  1.0000
  C   C13       1.0  0.60846  0.69094  0.00922  1.0000
  C   C14       1.0  0.10840  0.30905  0.49077  1.0000
  C   C15       1.0  0.39158  0.30907  0.99078  1.0000
  C   C16       1.0  0.89157  0.69095  0.50923  1.0000
  C   C17       1.0  0.67763  0.61369  0.94385  1.0000
  C   C18       1.0  0.17758  0.38629  0.55614  1.0000
  C   C19       1.0  0.32238  0.38630  0.05615  1.0000
  C   C20       1.0  0.82240  0.61371  0.44386  1.0000
  C   C21       1.0  0.30897  0.88382  0.08189  1.0000
  C   C22       1.0  0.80894  0.11617  0.41811  1.0000
  C   C23       1.0  0.69106  0.11618  0.91811  1.0000
  C   C24       1.0  0.19102  0.88384  0.58189  1.0000
  I   I1        1.0  0.55897  0.65048  0.69460  1.0000
  I   I2        1.0  0.05908  0.34954  0.80540  1.0000
  I   I3        1.0  0.44109  0.34951  0.30540  1.0000
  I   I4        1.0  0.94095  0.65046  0.19461  1.0000
  N   N1        1.0  0.56076  0.63747  0.88463  1.0000
  N   N2        1.0  0.06071  0.36252  0.61536  1.0000
  N   N3        1.0  0.43926  0.36252  0.11537  1.0000
  N   N4        1.0  0.93928  0.63748  0.38464  1.0000
  N   N5        1.0  0.50326  0.90661  0.13405  1.0000
  N   N6        1.0  0.00325  0.09338  0.36595  1.0000
  N   N7        1.0  0.49676  0.09339  0.86596  1.0000
  N   N8        1.0  0.99673  0.90662  0.63405  1.0000
  N   N9        1.0  0.43989  0.99433  0.19810  1.0000
  N   N10       1.0  0.93991  0.00567  0.30190  1.0000
  N   N11       1.0  0.56012  0.00567  0.80191  1.0000
  N   N12       1.0  0.06008  0.99434  0.69810  1.0000
  O   O1        1.0  0.05657  0.93194  0.08823  1.0000
  O   O2        1.0  0.55655  0.06805  0.41177  1.0000
  O   O3        1.0  0.94345  0.06806  0.91177  1.0000
  O   O4        1.0  0.44340  0.93197  0.58823  1.0000
