data_image0
_chemical_formula_structural       Hg6H24C44S12N20
_chemical_formula_sum              "Hg6 H24 C44 S12 N20"
_cell_length_a       10.6679
_cell_length_b       11.7793
_cell_length_c       13.604
_cell_angle_alpha    105.337
_cell_angle_beta     110.166
_cell_angle_gamma    95.6294

_space_group_name_H-M_alt    "P 1"
_space_group_IT_number       1

loop_
  _space_group_symop_operation_xyz
  'x, y, z'

loop_
  _atom_site_type_symbol
  _atom_site_label
  _atom_site_symmetry_multiplicity
  _atom_site_fract_x
  _atom_site_fract_y
  _atom_site_fract_z
  _atom_site_occupancy
  Hg  Hg1       1.0  0.72883  0.12332  0.08363  1.0000
  Hg  Hg2       1.0  0.27117  0.87668  0.91637  1.0000
  Hg  Hg3       1.0  0.69942  0.59298  0.02893  1.0000
  Hg  Hg4       1.0  0.30058  0.40702  0.97107  1.0000
  Hg  Hg5       1.0  0.50080  0.25579  0.51730  1.0000
  Hg  Hg6       1.0  0.49920  0.74421  0.48270  1.0000
  H   H1        1.0  0.03715  0.09141  0.12251  1.0000
  H   H2        1.0  0.96285  0.90859  0.87749  1.0000
  H   H3        1.0  0.28340  0.14018  0.25776  1.0000
  H   H4        1.0  0.71660  0.85982  0.74224  1.0000
  H   H5        1.0  0.28587  0.37133  0.59150  1.0000
  H   H6        1.0  0.71413  0.62867  0.40850  1.0000
  H   H7        1.0  0.10620  0.43835  0.65614  1.0000
  H   H8        1.0  0.89380  0.56165  0.34386  1.0000
  H   H9        1.0  0.86195  0.38476  0.52397  1.0000
  H   H10       1.0  0.13805  0.61524  0.47603  1.0000
  H   H11       1.0  0.79811  0.26842  0.32807  1.0000
  H   H12       1.0  0.20189  0.73158  0.67193  1.0000
  H   H13       1.0  0.99583  0.48432  0.11088  1.0000
  H   H14       1.0  0.00417  0.51568  0.88912  1.0000
  H   H15       1.0  0.23539  0.53550  0.25854  1.0000
  H   H16       1.0  0.76461  0.46450  0.74146  1.0000
  H   H17       1.0  0.28775  0.92161  0.48344  1.0000
  H   H18       1.0  0.71225  0.07839  0.51656  1.0000
  H   H19       1.0  0.13605  0.06816  0.48870  1.0000
  H   H20       1.0  0.86395  0.93184  0.51130  1.0000
  H   H21       1.0  0.89771  0.01623  0.34703  1.0000
  H   H22       1.0  0.10229  0.98377  0.65297  1.0000
  H   H23       1.0  0.81091  0.81956  0.19860  1.0000
  H   H24       1.0  0.18909  0.18044  0.80140  1.0000
  C   C1        1.0  0.77306  0.29888  0.95018  1.0000
  C   C2        1.0  0.22694  0.70111  0.04982  1.0000
  C   C3        1.0  0.65836  0.42671  0.16571  1.0000
  C   C4        1.0  0.34164  0.57329  0.83429  1.0000
  C   C5        1.0  0.57728  0.90019  0.11735  1.0000
  C   C6        1.0  0.42272  0.09981  0.88265  1.0000
  C   C7        1.0  0.79044  0.82170  0.96951  1.0000
  C   C8        1.0  0.20956  0.17829  0.03048  1.0000
  C   C9        1.0  0.51207  0.06351  0.64026  1.0000
  C   C10       1.0  0.48793  0.93649  0.35974  1.0000
  C   C11       1.0  0.51119  0.42882  0.37399  1.0000
  C   C12       1.0  0.48881  0.57118  0.62601  1.0000
  C   C13       1.0  0.00419  0.25080  0.34724  1.0000
  C   C14       1.0  0.99581  0.74920  0.65276  1.0000
  C   C15       1.0  0.06672  0.14648  0.20838  1.0000
  C   C16       1.0  0.93328  0.85352  0.79162  1.0000
  C   C17       1.0  0.20449  0.17422  0.28388  1.0000
  C   C18       1.0  0.79551  0.82578  0.71612  1.0000
  C   C19       1.0  0.14420  0.28007  0.42320  1.0000
  C   C20       1.0  0.85580  0.71993  0.57680  1.0000
  C   C21       1.0  0.17916  0.34835  0.53501  1.0000
  C   C22       1.0  0.82083  0.65164  0.46499  1.0000
  C   C23       1.0  0.07865  0.38490  0.57022  1.0000
  C   C24       1.0  0.92135  0.61510  0.42978  1.0000
  C   C25       1.0  0.94066  0.35516  0.49556  1.0000
  C   C26       1.0  0.05934  0.64485  0.50444  1.0000
  C   C27       1.0  0.90366  0.28947  0.38605  1.0000
  C   C28       1.0  0.09634  0.71053  0.61395  1.0000
  C   C29       1.0  0.99961  0.75771  0.25623  1.0000
  C   C30       1.0  0.00039  0.24229  0.74377  1.0000
  C   C31       1.0  0.03451  0.57133  0.17614  1.0000
  C   C32       1.0  0.96550  0.42867  0.82386  1.0000
  C   C33       1.0  0.16859  0.60011  0.25844  1.0000
  C   C34       1.0  0.83141  0.39989  0.74156  1.0000
  C   C35       1.0  0.13595  0.78673  0.33864  1.0000
  C   C36       1.0  0.86404  0.21327  0.66136  1.0000
  C   C37       1.0  0.18374  0.90026  0.42208  1.0000
  C   C38       1.0  0.81625  0.09974  0.57792  1.0000
  C   C39       1.0  0.09882  0.98106  0.42401  1.0000
  C   C40       1.0  0.90118  0.01894  0.57599  1.0000
  C   C41       1.0  0.96390  0.95174  0.34346  1.0000
  C   C42       1.0  0.03610  0.04826  0.65654  1.0000
  C   C43       1.0  0.91478  0.84226  0.26059  1.0000
  C   C44       1.0  0.08522  0.15774  0.73942  1.0000
  S   S1        1.0  0.80126  0.16177  0.93939  1.0000
  S   S2        1.0  0.19874  0.83823  0.06061  1.0000
  S   S3        1.0  0.59801  0.54964  0.15709  1.0000
  S   S4        1.0  0.40199  0.45036  0.84291  1.0000
  S   S5        1.0  0.58275  0.04632  0.16663  1.0000
  S   S6        1.0  0.41725  0.95367  0.83337  1.0000
  S   S7        1.0  0.73640  0.67869  0.89202  1.0000
  S   S8        1.0  0.26360  0.32131  0.10798  1.0000
  S   S9        1.0  0.44968  0.18717  0.65800  1.0000
  S   S10       1.0  0.55032  0.81283  0.34200  1.0000
  S   S11       1.0  0.56651  0.30279  0.37256  1.0000
  S   S12       1.0  0.43349  0.69721  0.62744  1.0000
  N   N1        1.0  0.75742  0.39740  0.95431  1.0000
  N   N2        1.0  0.24258  0.60260  0.04569  1.0000
  N   N3        1.0  0.70292  0.34089  0.17501  1.0000
  N   N4        1.0  0.29708  0.65911  0.82499  1.0000
  N   N5        1.0  0.56773  0.79530  0.08435  1.0000
  N   N6        1.0  0.43227  0.20470  0.91565  1.0000
  N   N7        1.0  0.83139  0.92507  0.01974  1.0000
  N   N8        1.0  0.16860  0.07493  0.98026  1.0000
  N   N9        1.0  0.55585  0.97488  0.63085  1.0000
  N   N10       1.0  0.44415  0.02512  0.36915  1.0000
  N   N11       1.0  0.47013  0.51740  0.36880  1.0000
  N   N12       1.0  0.52987  0.48260  0.63120  1.0000
  N   N13       1.0  0.96936  0.18429  0.23922  1.0000
  N   N14       1.0  0.03064  0.81571  0.76078  1.0000
  N   N15       1.0  0.24213  0.24021  0.38821  1.0000
  N   N16       1.0  0.75787  0.75979  0.61179  1.0000
  N   N17       1.0  0.95217  0.64826  0.17524  1.0000
  N   N18       1.0  0.04783  0.35174  0.82476  1.0000
  N   N19       1.0  0.21815  0.70506  0.33760  1.0000
  N   N20       1.0  0.78185  0.29493  0.66240  1.0000
