data_image0
_chemical_formula_structural       Zn2H46C46S8N18O8
_chemical_formula_sum              "Zn2 H46 C46 S8 N18 O8"
_cell_length_a       9.1559
_cell_length_b       10.4136
_cell_length_c       14.865
_cell_angle_alpha    85.8149
_cell_angle_beta     88.5943
_cell_angle_gamma    88.4203

_space_group_name_H-M_alt    "P 1"
_space_group_IT_number       1

loop_
  _space_group_symop_operation_xyz
  'x, y, z'

loop_
  _atom_site_type_symbol
  _atom_site_label
  _atom_site_symmetry_multiplicity
  _atom_site_fract_x
  _atom_site_fract_y
  _atom_site_fract_z
  _atom_site_occupancy
  Zn  Zn1       1.0  0.48657  0.34703  0.22862  1.0000
  Zn  Zn2       1.0  0.51343  0.65298  0.77138  1.0000
  H   H1        1.0  0.31818  0.53959  0.18731  1.0000
  H   H2        1.0  0.68183  0.46041  0.81269  1.0000
  H   H3        1.0  0.27701  0.42225  0.11967  1.0000
  H   H4        1.0  0.72300  0.57775  0.88033  1.0000
  H   H5        1.0  0.00752  0.81362  0.40912  1.0000
  H   H6        1.0  0.99248  0.18638  0.59088  1.0000
  H   H7        1.0  0.91082  0.96112  0.39530  1.0000
  H   H8        1.0  0.08918  0.03888  0.60470  1.0000
  H   H9        1.0  0.01500  0.17822  0.99060  1.0000
  H   H10       1.0  0.98500  0.82178  0.00940  1.0000
  H   H11       1.0  0.86079  0.08171  0.97637  1.0000
  H   H12       1.0  0.13922  0.91829  0.02362  1.0000
  H   H13       1.0  0.94805  0.07238  0.08177  1.0000
  H   H14       1.0  0.05195  0.92763  0.91823  1.0000
  H   H15       1.0  0.65069  0.81909  0.42885  1.0000
  H   H16       1.0  0.34930  0.18092  0.57115  1.0000
  H   H17       1.0  0.46170  0.79662  0.45524  1.0000
  H   H18       1.0  0.53830  0.20337  0.54477  1.0000
  H   H19       1.0  0.52093  0.83712  0.34160  1.0000
  H   H20       1.0  0.47906  0.16288  0.65841  1.0000
  H   H21       1.0  0.64511  0.93346  0.12814  1.0000
  H   H22       1.0  0.35490  0.06652  0.87186  1.0000
  H   H23       1.0  0.04440  0.43577  0.45751  1.0000
  H   H24       1.0  0.95561  0.56423  0.54250  1.0000
  H   H25       1.0  0.75733  0.01276  0.26202  1.0000
  H   H26       1.0  0.24267  0.98723  0.73798  1.0000
  H   H27       1.0  0.23410  0.52479  0.34962  1.0000
  H   H28       1.0  0.76591  0.47521  0.65038  1.0000
  H   H29       1.0  0.99268  0.64838  0.30644  1.0000
  H   H30       1.0  0.00731  0.35161  0.69358  1.0000
  H   H31       1.0  0.09338  0.27558  0.15114  1.0000
  H   H32       1.0  0.90661  0.72443  0.84885  1.0000
  H   H33       1.0  0.88014  0.56992  0.17291  1.0000
  H   H34       1.0  0.11987  0.43007  0.82710  1.0000
  H   H35       1.0  0.90072  0.18951  0.25810  1.0000
  H   H36       1.0  0.09928  0.81051  0.74190  1.0000
  H   H37       1.0  0.44268  0.12868  0.12094  1.0000
  H   H38       1.0  0.55733  0.87132  0.87907  1.0000
  H   H39       1.0  0.32542  0.91410  0.13997  1.0000
  H   H40       1.0  0.67459  0.08590  0.86004  1.0000
  H   H41       1.0  0.21264  0.84352  0.29162  1.0000
  H   H42       1.0  0.78735  0.15649  0.70838  1.0000
  H   H43       1.0  0.23313  0.98671  0.41909  1.0000
  H   H44       1.0  0.76685  0.01331  0.58091  1.0000
  H   H45       1.0  0.36463  0.19404  0.39042  1.0000
  H   H46       1.0  0.63536  0.80597  0.60958  1.0000
  C   C1        1.0  0.91651  0.13840  0.02419  1.0000
  C   C2        1.0  0.08349  0.86159  0.97580  1.0000
  C   C3        1.0  0.54892  0.78199  0.40452  1.0000
  C   C4        1.0  0.45107  0.21802  0.59548  1.0000
  C   C5        1.0  0.81682  0.24204  0.05588  1.0000
  C   C6        1.0  0.18317  0.75795  0.94412  1.0000
  C   C7        1.0  0.56657  0.64341  0.38763  1.0000
  C   C8        1.0  0.43343  0.35660  0.61237  1.0000
  C   C9        1.0  0.67664  0.43965  0.08286  1.0000
  C   C10       1.0  0.32335  0.56034  0.91714  1.0000
  C   C11       1.0  0.63278  0.41506  0.38824  1.0000
  C   C12       1.0  0.36722  0.58494  0.61175  1.0000
  C   C13       1.0  0.75303  0.74649  0.14244  1.0000
  C   C14       1.0  0.24699  0.25350  0.85757  1.0000
  C   C15       1.0  0.96347  0.30613  0.36519  1.0000
  C   C16       1.0  0.03653  0.69387  0.63480  1.0000
  C   C17       1.0  0.72143  0.87152  0.16735  1.0000
  C   C18       1.0  0.27858  0.12847  0.83264  1.0000
  C   C19       1.0  0.05520  0.40148  0.39033  1.0000
  C   C20       1.0  0.94481  0.59852  0.60967  1.0000
  C   C21       1.0  0.78549  0.91609  0.24240  1.0000
  C   C22       1.0  0.21451  0.08390  0.75760  1.0000
  C   C23       1.0  0.16146  0.45107  0.32985  1.0000
  C   C24       1.0  0.83854  0.54893  0.67015  1.0000
  C   C25       1.0  0.88167  0.83526  0.29556  1.0000
  C   C26       1.0  0.11833  0.16473  0.70445  1.0000
  C   C27       1.0  0.17570  0.40468  0.24398  1.0000
  C   C28       1.0  0.82430  0.59532  0.75601  1.0000
  C   C29       1.0  0.91768  0.71122  0.26672  1.0000
  C   C30       1.0  0.08231  0.28877  0.73328  1.0000
  C   C31       1.0  0.08139  0.31026  0.21834  1.0000
  C   C32       1.0  0.91860  0.68975  0.78165  1.0000
  C   C33       1.0  0.85373  0.66728  0.19178  1.0000
  C   C34       1.0  0.14628  0.33271  0.80822  1.0000
  C   C35       1.0  0.97506  0.26129  0.27867  1.0000
  C   C36       1.0  0.02493  0.73872  0.72132  1.0000
  C   C37       1.0  0.39581  0.09273  0.18587  1.0000
  C   C38       1.0  0.60419  0.90727  0.81413  1.0000
  C   C39       1.0  0.32760  0.97453  0.19674  1.0000
  C   C40       1.0  0.67240  0.02548  0.80326  1.0000
  C   C41       1.0  0.26668  0.93542  0.28083  1.0000
  C   C42       1.0  0.73330  0.06458  0.71917  1.0000
  C   C43       1.0  0.27773  0.01469  0.35211  1.0000
  C   C44       1.0  0.72225  0.98532  0.64789  1.0000
  C   C45       1.0  0.35031  0.12976  0.33682  1.0000
  C   C46       1.0  0.64968  0.87025  0.66319  1.0000
  S   S1        1.0  0.82410  0.40119  0.01014  1.0000
  S   S2        1.0  0.17590  0.59881  0.98985  1.0000
  S   S3        1.0  0.68480  0.54097  0.45141  1.0000
  S   S4        1.0  0.31520  0.45904  0.54859  1.0000
  S   S5        1.0  0.66099  0.68637  0.05252  1.0000
  S   S6        1.0  0.33903  0.31362  0.94748  1.0000
  S   S7        1.0  0.82454  0.24734  0.44118  1.0000
  S   S8        1.0  0.17545  0.75267  0.55882  1.0000
  N   N1        1.0  0.63984  0.33356  0.13474  1.0000
  N   N2        1.0  0.36015  0.66643  0.86525  1.0000
  N   N3        1.0  0.53500  0.45832  0.32674  1.0000
  N   N4        1.0  0.46501  0.54169  0.67326  1.0000
  N   N5        1.0  0.49714  0.58621  0.32681  1.0000
  N   N6        1.0  0.50287  0.41379  0.67319  1.0000
  N   N7        1.0  0.71741  0.22334  0.11928  1.0000
  N   N8        1.0  0.28259  0.77666  0.88071  1.0000
  N   N9        1.0  0.67468  0.29070  0.39442  1.0000
  N   N10       1.0  0.32532  0.70930  0.60557  1.0000
  N   N11       1.0  0.60197  0.54961  0.09149  1.0000
  N   N12       1.0  0.39803  0.45038  0.90851  1.0000
  N   N13       1.0  0.93616  0.87266  0.37342  1.0000
  N   N14       1.0  0.06382  0.12733  0.62658  1.0000
  N   N15       1.0  0.29350  0.44471  0.18517  1.0000
  N   N16       1.0  0.70650  0.55529  0.81483  1.0000
  N   N17       1.0  0.40736  0.16861  0.25507  1.0000
  N   N18       1.0  0.59264  0.83139  0.74493  1.0000
  O   O1        1.0  0.84524  0.30586  0.52676  1.0000
  O   O2        1.0  0.15476  0.69415  0.47324  1.0000
  O   O3        1.0  0.83121  0.10717  0.44600  1.0000
  O   O4        1.0  0.16880  0.89284  0.55400  1.0000
  O   O5        1.0  0.53714  0.77227  0.03132  1.0000
  O   O6        1.0  0.46288  0.22773  0.96867  1.0000
  O   O7        1.0  0.76905  0.66962  0.97821  1.0000
  O   O8        1.0  0.23097  0.33037  0.02179  1.0000
