data_image0
_chemical_formula_structural       Ag8H4C8S8N8Cl4
_chemical_formula_sum              "Ag8 H4 C8 S8 N8 Cl4"
_cell_length_a       3.88779
_cell_length_b       11.1333
_cell_length_c       15.3256
_cell_angle_alpha    90
_cell_angle_beta     92.4464
_cell_angle_gamma    90

_space_group_name_H-M_alt    "P 1"
_space_group_IT_number       1

loop_
  _space_group_symop_operation_xyz
  'x, y, z'

loop_
  _atom_site_type_symbol
  _atom_site_label
  _atom_site_symmetry_multiplicity
  _atom_site_fract_x
  _atom_site_fract_y
  _atom_site_fract_z
  _atom_site_occupancy
  Ag  Ag1       1.0  0.38617  0.20655  0.22410  1.0000
  Ag  Ag2       1.0  0.61383  0.70655  0.27590  1.0000
  Ag  Ag3       1.0  0.61383  0.79345  0.77590  1.0000
  Ag  Ag4       1.0  0.38617  0.29345  0.72410  1.0000
  Ag  Ag5       1.0  0.07563  0.00889  0.40331  1.0000
  Ag  Ag6       1.0  0.92437  0.50889  0.09669  1.0000
  Ag  Ag7       1.0  0.92437  0.99111  0.59669  1.0000
  Ag  Ag8       1.0  0.07563  0.49111  0.90331  1.0000
  H   H1        1.0  0.70002  0.07813  0.85682  1.0000
  H   H2        1.0  0.29998  0.57813  0.64318  1.0000
  H   H3        1.0  0.29997  0.92187  0.14318  1.0000
  H   H4        1.0  0.70003  0.42187  0.35682  1.0000
  C   C1        1.0  0.44215  0.28199  0.01376  1.0000
  C   C2        1.0  0.55785  0.78199  0.48624  1.0000
  C   C3        1.0  0.55785  0.71801  0.98624  1.0000
  C   C4        1.0  0.44215  0.21801  0.51376  1.0000
  C   C5        1.0  0.60352  0.14815  0.89924  1.0000
  C   C6        1.0  0.39648  0.64815  0.60077  1.0000
  C   C7        1.0  0.39647  0.85186  0.10076  1.0000
  C   C8        1.0  0.60353  0.35186  0.39924  1.0000
  S   S1        1.0  0.38437  0.35871  0.10910  1.0000
  S   S2        1.0  0.61563  0.85871  0.39090  1.0000
  S   S3        1.0  0.61563  0.64129  0.89090  1.0000
  S   S4        1.0  0.38437  0.14129  0.60910  1.0000
  S   S5        1.0  0.65956  0.14594  0.01104  1.0000
  S   S6        1.0  0.34044  0.64594  0.48896  1.0000
  S   S7        1.0  0.34044  0.85406  0.98896  1.0000
  S   S8        1.0  0.65956  0.35406  0.51104  1.0000
  N   N1        1.0  0.34093  0.31873  0.93411  1.0000
  N   N2        1.0  0.65907  0.81873  0.56589  1.0000
  N   N3        1.0  0.65906  0.68127  0.06589  1.0000
  N   N4        1.0  0.34093  0.18127  0.43411  1.0000
  N   N5        1.0  0.43600  0.24256  0.86954  1.0000
  N   N6        1.0  0.56400  0.74256  0.63046  1.0000
  N   N7        1.0  0.56399  0.75744  0.13046  1.0000
  N   N8        1.0  0.43601  0.25744  0.36954  1.0000
  Cl  Cl1       1.0  0.89832  0.04792  0.22734  1.0000
  Cl  Cl2       1.0  0.10168  0.54792  0.27266  1.0000
  Cl  Cl3       1.0  0.10168  0.95208  0.77266  1.0000
  Cl  Cl4       1.0  0.89832  0.45208  0.72734  1.0000
