data_image0
_chemical_formula_structural       Dy2H50C72N4O16
_chemical_formula_sum              "Dy2 H50 C72 N4 O16"
_cell_length_a       9.76895
_cell_length_b       12.389
_cell_length_c       13.559
_cell_angle_alpha    73.7874
_cell_angle_beta     84.274
_cell_angle_gamma    78.8135

_space_group_name_H-M_alt    "P 1"
_space_group_IT_number       1

loop_
  _space_group_symop_operation_xyz
  'x, y, z'

loop_
  _atom_site_type_symbol
  _atom_site_label
  _atom_site_symmetry_multiplicity
  _atom_site_fract_x
  _atom_site_fract_y
  _atom_site_fract_z
  _atom_site_occupancy
  Dy  Dy1       1.0  0.61425  0.11967  0.45660  1.0000
  Dy  Dy2       1.0  0.38575  0.88033  0.54339  1.0000
  H   H1        1.0  0.92354  0.04002  0.57800  1.0000
  H   H2        1.0  0.07646  0.95998  0.42201  1.0000
  H   H3        1.0  0.08683  0.10895  0.66489  1.0000
  H   H4        1.0  0.91316  0.89105  0.33511  1.0000
  H   H5        1.0  0.04718  0.31865  0.66080  1.0000
  H   H6        1.0  0.95282  0.68135  0.33920  1.0000
  H   H7        1.0  0.44682  0.36286  0.30145  1.0000
  H   H8        1.0  0.55318  0.63715  0.69855  1.0000
  H   H9        1.0  0.40599  0.57692  0.26138  1.0000
  H   H10       1.0  0.59401  0.42308  0.73862  1.0000
  H   H11       1.0  0.54370  0.66893  0.35175  1.0000
  H   H12       1.0  0.45630  0.33107  0.64825  1.0000
  H   H13       1.0  0.72802  0.64346  0.47761  1.0000
  H   H14       1.0  0.27198  0.35654  0.52239  1.0000
  H   H15       1.0  0.90878  0.51566  0.59211  1.0000
  H   H16       1.0  0.09122  0.48434  0.40789  1.0000
  H   H17       1.0  0.80554  0.17916  0.10201  1.0000
  H   H18       1.0  0.19446  0.82084  0.89799  1.0000
  H   H19       1.0  0.04723  0.07150  0.24942  1.0000
  H   H20       1.0  0.95277  0.92850  0.75058  1.0000
  H   H21       1.0  0.27878  0.07993  0.17310  1.0000
  H   H22       1.0  0.72122  0.92007  0.82690  1.0000
  H   H23       1.0  0.44545  0.09642  0.02179  1.0000
  H   H24       1.0  0.55455  0.90358  0.97821  1.0000
  H   H25       1.0  0.10376  0.14688  0.82578  1.0000
  H   H26       1.0  0.89624  0.85311  0.17422  1.0000
  H   H27       1.0  0.93778  0.13468  0.97511  1.0000
  H   H28       1.0  0.06222  0.86532  0.02489  1.0000
  H   H29       1.0  0.48008  0.16043  0.82323  1.0000
  H   H30       1.0  0.51992  0.83957  0.17676  1.0000
  H   H31       1.0  0.27178  0.04899  0.74592  1.0000
  H   H32       1.0  0.72823  0.95101  0.25408  1.0000
  H   H33       1.0  0.94299  0.81264  0.63318  1.0000
  H   H34       1.0  0.05701  0.18736  0.36682  1.0000
  H   H35       1.0  0.74380  0.64091  0.72410  1.0000
  H   H36       1.0  0.25620  0.35909  0.27590  1.0000
  H   H37       1.0  0.82887  0.47314  0.85621  1.0000
  H   H38       1.0  0.17113  0.52686  0.14379  1.0000
  H   H39       1.0  0.01521  0.35449  0.96955  1.0000
  H   H40       1.0  0.98479  0.64550  0.03046  1.0000
  H   H41       1.0  0.29694  0.58504  0.81756  1.0000
  H   H42       1.0  0.70306  0.41496  0.18244  1.0000
  H   H43       1.0  0.11493  0.69970  0.70185  1.0000
  H   H44       1.0  0.88508  0.30030  0.29815  1.0000
  H   H45       1.0  0.24197  0.33186  0.04063  1.0000
  H   H46       1.0  0.75803  0.66814  0.95938  1.0000
  H   H47       1.0  0.45666  0.45144  0.88788  1.0000
  H   H48       1.0  0.54334  0.54856  0.11212  1.0000
  H   H49       1.0  0.55110  0.23848  0.17168  1.0000
  H   H50       1.0  0.44890  0.76151  0.82832  1.0000
  C   C1        1.0  0.91010  0.13023  0.57514  1.0000
  C   C2        1.0  0.08989  0.86977  0.42486  1.0000
  C   C3        1.0  0.00111  0.17025  0.62531  1.0000
  C   C4        1.0  0.99888  0.82975  0.37469  1.0000
  C   C5        1.0  0.97980  0.28472  0.62171  1.0000
  C   C6        1.0  0.02019  0.71528  0.37829  1.0000
  C   C7        1.0  0.87055  0.36006  0.56371  1.0000
  C   C8        1.0  0.12944  0.63994  0.43630  1.0000
  C   C9        1.0  0.78567  0.31202  0.51412  1.0000
  C   C10       1.0  0.21432  0.68798  0.48588  1.0000
  C   C11       1.0  0.67893  0.38633  0.44890  1.0000
  C   C12       1.0  0.32107  0.61367  0.55110  1.0000
  C   C13       1.0  0.50656  0.40618  0.33709  1.0000
  C   C14       1.0  0.49344  0.59382  0.66291  1.0000
  C   C15       1.0  0.48484  0.52586  0.31501  1.0000
  C   C16       1.0  0.51516  0.47414  0.68498  1.0000
  C   C17       1.0  0.56188  0.57645  0.36368  1.0000
  C   C18       1.0  0.43812  0.42356  0.63632  1.0000
  C   C19       1.0  0.66292  0.50647  0.43254  1.0000
  C   C20       1.0  0.33708  0.49353  0.56746  1.0000
  C   C21       1.0  0.74639  0.55153  0.48701  1.0000
  C   C22       1.0  0.25361  0.44847  0.51298  1.0000
  C   C23       1.0  0.84555  0.48085  0.55085  1.0000
  C   C24       1.0  0.15444  0.51916  0.44915  1.0000
  C   C25       1.0  0.77581  0.13597  0.26903  1.0000
  C   C26       1.0  0.22419  0.86403  0.73097  1.0000
  C   C27       1.0  0.86076  0.13956  0.17289  1.0000
  C   C28       1.0  0.13924  0.86044  0.82711  1.0000
  C   C29       1.0  0.00041  0.10303  0.17453  1.0000
  C   C30       1.0  0.99959  0.89697  0.82547  1.0000
  C   C31       1.0  0.09633  0.10616  0.08529  1.0000
  C   C32       1.0  0.90367  0.89384  0.91471  1.0000
  C   C33       1.0  0.24084  0.09371  0.09674  1.0000
  C   C34       1.0  0.75916  0.90629  0.90326  1.0000
  C   C35       1.0  0.33446  0.10315  0.01170  1.0000
  C   C36       1.0  0.66554  0.89685  0.98830  1.0000
  C   C37       1.0  0.28727  0.12051  0.91285  1.0000
  C   C38       1.0  0.71273  0.87949  0.08715  1.0000
  C   C39       1.0  0.14274  0.13084  0.90197  1.0000
  C   C40       1.0  0.85726  0.86915  0.09803  1.0000
  C   C41       1.0  0.04904  0.12469  0.98595  1.0000
  C   C42       1.0  0.95096  0.87531  0.01405  1.0000
  C   C43       1.0  0.38409  0.12736  0.82294  1.0000
  C   C44       1.0  0.61591  0.87264  0.17706  1.0000
  C   C45       1.0  0.36088  0.09120  0.74202  1.0000
  C   C46       1.0  0.63912  0.90880  0.25798  1.0000
  C   C47       1.0  0.45125  0.09712  0.64805  1.0000
  C   C48       1.0  0.54875  0.90288  0.35195  1.0000
  C   C49       1.0  0.72342  0.85153  0.59756  1.0000
  C   C50       1.0  0.27658  0.14847  0.40244  1.0000
  C   C51       1.0  0.84816  0.77525  0.64697  1.0000
  C   C52       1.0  0.15184  0.22475  0.35303  1.0000
  C   C53       1.0  0.84383  0.67063  0.71110  1.0000
  C   C54       1.0  0.15618  0.32937  0.28890  1.0000
  C   C55       1.0  0.95787  0.59575  0.77042  1.0000
  C   C56       1.0  0.04214  0.40425  0.22958  1.0000
  C   C57       1.0  0.93284  0.49611  0.84561  1.0000
  C   C58       1.0  0.06716  0.50389  0.15439  1.0000
  C   C59       1.0  0.03743  0.42954  0.90995  1.0000
  C   C60       1.0  0.96257  0.57046  0.09005  1.0000
  C   C61       1.0  0.17103  0.45922  0.90088  1.0000
  C   C62       1.0  0.82897  0.54078  0.09912  1.0000
  C   C63       1.0  0.19638  0.55766  0.82403  1.0000
  C   C64       1.0  0.80362  0.44234  0.17597  1.0000
  C   C65       1.0  0.09294  0.62354  0.75976  1.0000
  C   C66       1.0  0.90707  0.37646  0.24024  1.0000
  C   C67       1.0  0.27740  0.39192  0.97176  1.0000
  C   C68       1.0  0.72260  0.60808  0.02824  1.0000
  C   C69       1.0  0.41498  0.39737  0.95771  1.0000
  C   C70       1.0  0.58502  0.60263  0.04229  1.0000
  C   C71       1.0  0.52224  0.32827  0.02902  1.0000
  C   C72       1.0  0.47778  0.67173  0.97097  1.0000
  N   N1        1.0  0.80388  0.19828  0.52247  1.0000
  N   N2        1.0  0.19612  0.80172  0.47753  1.0000
  N   N3        1.0  0.59920  0.33776  0.40288  1.0000
  N   N4        1.0  0.40080  0.66224  0.59712  1.0000
  O   O1        1.0  0.82858  0.08842  0.35656  1.0000
  O   O2        1.0  0.17142  0.91158  0.64344  1.0000
  O   O3        1.0  0.64506  0.18132  0.26594  1.0000
  O   O4        1.0  0.35494  0.81868  0.73406  1.0000
  O   O5        1.0  0.73515  0.95669  0.56214  1.0000
  O   O6        1.0  0.26485  0.04331  0.43786  1.0000
  O   O7        1.0  0.61458  0.80989  0.59438  1.0000
  O   O8        1.0  0.38542  0.19011  0.40562  1.0000
  O   O9        1.0  0.64811  0.31572  0.00214  1.0000
  O   O10       1.0  0.35188  0.68428  0.99786  1.0000
  O   O11       1.0  0.47190  0.28136  0.12385  1.0000
  O   O12       1.0  0.52810  0.71864  0.87615  1.0000
  O   O13       1.0  0.53458  0.16842  0.61832  1.0000
  O   O14       1.0  0.46542  0.83158  0.38168  1.0000
  O   O15       1.0  0.44160  0.02928  0.59349  1.0000
  O   O16       1.0  0.55840  0.97072  0.40651  1.0000
