data_image0
_chemical_formula_structural       Zn2H20C28S4N24
_chemical_formula_sum              "Zn2 H20 C28 S4 N24"
_cell_length_a       6.39793
_cell_length_b       11.0779
_cell_length_c       14.1781
_cell_angle_alpha    90.0004
_cell_angle_beta     94.3057
_cell_angle_gamma    89.9999

_space_group_name_H-M_alt    "P 1"
_space_group_IT_number       1

loop_
  _space_group_symop_operation_xyz
  'x, y, z'

loop_
  _atom_site_type_symbol
  _atom_site_label
  _atom_site_symmetry_multiplicity
  _atom_site_fract_x
  _atom_site_fract_y
  _atom_site_fract_z
  _atom_site_occupancy
  Zn  Zn1       1.0  0.49998  0.50001  0.50000  1.0000
  Zn  Zn2       1.0  0.00001  0.00000  0.00000  1.0000
  H   H1        1.0  0.02410  0.96963  0.25507  1.0000
  H   H2        1.0  0.47590  0.46964  0.24493  1.0000
  H   H3        1.0  0.97592  0.03036  0.74493  1.0000
  H   H4        1.0  0.52410  0.53037  0.75507  1.0000
  H   H5        1.0  0.63461  0.81364  0.03625  1.0000
  H   H6        1.0  0.86537  0.31363  0.46375  1.0000
  H   H7        1.0  0.36538  0.18638  0.96375  1.0000
  H   H8        1.0  0.13461  0.68637  0.53625  1.0000
  H   H9        1.0  0.56645  0.65377  0.32026  1.0000
  H   H10       1.0  0.93356  0.15377  0.17973  1.0000
  H   H11       1.0  0.43355  0.34623  0.67974  1.0000
  H   H12       1.0  0.06646  0.84623  0.82027  1.0000
  H   H13       1.0  0.90579  0.92106  0.55722  1.0000
  H   H14       1.0  0.59420  0.42106  0.94278  1.0000
  H   H15       1.0  0.09419  0.07894  0.44278  1.0000
  H   H16       1.0  0.40581  0.57893  0.05722  1.0000
  H   H17       1.0  0.71879  0.73253  0.60474  1.0000
  H   H18       1.0  0.78120  0.23252  0.89526  1.0000
  H   H19       1.0  0.28118  0.26747  0.39526  1.0000
  H   H20       1.0  0.21881  0.76747  0.10474  1.0000
  C   C1        1.0  0.90438  0.91801  0.21443  1.0000
  C   C2        1.0  0.59563  0.41800  0.28557  1.0000
  C   C3        1.0  0.09565  0.08199  0.78557  1.0000
  C   C4        1.0  0.40437  0.58200  0.71443  1.0000
  C   C5        1.0  0.70406  0.83434  0.10637  1.0000
  C   C6        1.0  0.79592  0.33434  0.39363  1.0000
  C   C7        1.0  0.29594  0.16567  0.89363  1.0000
  C   C8        1.0  0.20405  0.66567  0.60637  1.0000
  C   C9        1.0  0.64441  0.71121  0.37410  1.0000
  C   C10       1.0  0.85559  0.21121  0.12590  1.0000
  C   C11       1.0  0.35559  0.28879  0.62590  1.0000
  C   C12       1.0  0.14441  0.78879  0.87411  1.0000
  C   C13       1.0  0.75465  0.81407  0.34959  1.0000
  C   C14       1.0  0.74535  0.31407  0.15041  1.0000
  C   C15       1.0  0.24536  0.18592  0.65041  1.0000
  C   C16       1.0  0.25465  0.68593  0.84959  1.0000
  C   C17       1.0  0.83195  0.86019  0.50404  1.0000
  C   C18       1.0  0.66805  0.36020  0.99596  1.0000
  C   C19       1.0  0.16803  0.13980  0.49596  1.0000
  C   C20       1.0  0.33197  0.63980  0.00404  1.0000
  C   C21       1.0  0.72680  0.75649  0.53058  1.0000
  C   C22       1.0  0.77319  0.25648  0.96942  1.0000
  C   C23       1.0  0.27317  0.24352  0.46942  1.0000
  C   C24       1.0  0.22683  0.74351  0.03058  1.0000
  C   C25       1.0  0.16028  0.55879  0.33552  1.0000
  C   C26       1.0  0.33971  0.05880  0.16447  1.0000
  C   C27       1.0  0.83970  0.44121  0.66447  1.0000
  C   C28       1.0  0.66032  0.94120  0.83553  1.0000
  S   S1        1.0  0.06340  0.57957  0.22819  1.0000
  S   S2        1.0  0.43659  0.07957  0.27180  1.0000
  S   S3        1.0  0.93659  0.42043  0.77179  1.0000
  S   S4        1.0  0.56344  0.92043  0.72820  1.0000
  N   N1        1.0  0.63508  0.68210  0.46503  1.0000
  N   N2        1.0  0.86492  0.18209  0.03496  1.0000
  N   N3        1.0  0.36490  0.31791  0.53496  1.0000
  N   N4        1.0  0.13510  0.81790  0.96504  1.0000
  N   N5        1.0  0.84944  0.88860  0.41292  1.0000
  N   N6        1.0  0.65057  0.38860  0.08708  1.0000
  N   N7        1.0  0.15056  0.11139  0.58708  1.0000
  N   N8        1.0  0.34945  0.61139  0.91292  1.0000
  N   N9        1.0  0.64228  0.78633  0.18485  1.0000
  N   N10       1.0  0.85771  0.28632  0.31516  1.0000
  N   N11       1.0  0.35773  0.21368  0.81515  1.0000
  N   N12       1.0  0.14228  0.71368  0.68485  1.0000
  N   N13       1.0  0.86485  0.91542  0.12089  1.0000
  N   N14       1.0  0.63513  0.41541  0.37911  1.0000
  N   N15       1.0  0.13515  0.08459  0.87911  1.0000
  N   N16       1.0  0.36484  0.58459  0.62089  1.0000
  N   N17       1.0  0.77086  0.84100  0.25337  1.0000
  N   N18       1.0  0.72914  0.34100  0.24663  1.0000
  N   N19       1.0  0.22916  0.15899  0.74663  1.0000
  N   N20       1.0  0.27085  0.65900  0.75337  1.0000
  N   N21       1.0  0.23306  0.54274  0.41434  1.0000
  N   N22       1.0  0.26693  0.04274  0.08565  1.0000
  N   N23       1.0  0.76690  0.45727  0.58565  1.0000
  N   N24       1.0  0.73309  0.95726  0.91435  1.0000
