data_image0
_chemical_formula_structural       Ni2H40C44N8O10
_chemical_formula_sum              "Ni2 H40 C44 N8 O10"
_cell_length_a       6.66098
_cell_length_b       10.2072
_cell_length_c       15.805
_cell_angle_alpha    82.0782
_cell_angle_beta     87.6048
_cell_angle_gamma    77.2189

_space_group_name_H-M_alt    "P 1"
_space_group_IT_number       1

loop_
  _space_group_symop_operation_xyz
  'x, y, z'

loop_
  _atom_site_type_symbol
  _atom_site_label
  _atom_site_symmetry_multiplicity
  _atom_site_fract_x
  _atom_site_fract_y
  _atom_site_fract_z
  _atom_site_occupancy
  Ni  Ni1       1.0  0.86551  0.95049  0.74401  1.0000
  Ni  Ni2       1.0  0.13465  0.04945  0.25594  1.0000
  H   H1        1.0  0.80913  0.41458  0.72333  1.0000
  H   H2        1.0  0.19102  0.58523  0.27652  1.0000
  H   H3        1.0  0.28208  0.61356  0.78196  1.0000
  H   H4        1.0  0.71726  0.38670  0.21799  1.0000
  H   H5        1.0  0.53476  0.39361  0.79841  1.0000
  H   H6        1.0  0.46529  0.60683  0.20143  1.0000
  H   H7        1.0  0.42884  0.18313  0.77100  1.0000
  H   H8        1.0  0.57126  0.81695  0.22903  1.0000
  H   H9        1.0  0.70440  0.21760  0.61704  1.0000
  H   H10       1.0  0.29617  0.78246  0.38286  1.0000
  H   H11       1.0  0.85128  0.80527  0.58108  1.0000
  H   H12       1.0  0.14956  0.19475  0.41900  1.0000
  H   H13       1.0  0.73954  0.96248  0.42441  1.0000
  H   H14       1.0  0.26115  0.03755  0.57554  1.0000
  H   H15       1.0  0.51754  0.21911  0.39875  1.0000
  H   H16       1.0  0.48270  0.78079  0.60133  1.0000
  H   H17       1.0  0.77289  0.24280  0.39203  1.0000
  H   H18       1.0  0.22727  0.75724  0.60785  1.0000
  H   H19       1.0  0.29733  0.32187  0.53390  1.0000
  H   H20       1.0  0.70316  0.67805  0.46624  1.0000
  H   H21       1.0  0.82305  0.45638  0.41430  1.0000
  H   H22       1.0  0.17752  0.54354  0.58583  1.0000
  H   H23       1.0  0.25048  0.82781  0.86245  1.0000
  H   H24       1.0  0.74886  0.17210  0.13754  1.0000
  H   H25       1.0  0.82775  0.84791  0.07132  1.0000
  H   H26       1.0  0.17155  0.15224  0.92863  1.0000
  H   H27       1.0  0.61637  0.95182  0.91782  1.0000
  H   H28       1.0  0.38303  0.04843  0.08203  1.0000
  H   H29       1.0  0.18778  0.74615  0.10678  1.0000
  H   H30       1.0  0.81137  0.25399  0.89327  1.0000
  H   H31       1.0  0.35401  0.83082  0.04188  1.0000
  H   H32       1.0  0.64506  0.16940  0.95819  1.0000
  H   H33       1.0  0.17469  0.50482  0.08423  1.0000
  H   H34       1.0  0.82471  0.49535  0.91588  1.0000
  H   H35       1.0  0.61543  0.71307  0.95124  1.0000
  H   H36       1.0  0.38389  0.28711  0.04881  1.0000
  H   H37       1.0  0.55100  0.81116  0.76857  1.0000
  H   H38       1.0  0.44865  0.18829  0.23144  1.0000
  H   H39       1.0  0.38830  0.95239  0.75383  1.0000
  H   H40       1.0  0.61215  0.04736  0.24635  1.0000
  C   C1        1.0  0.05722  0.15532  0.73209  1.0000
  C   C2        1.0  0.94365  0.84453  0.26774  1.0000
  C   C3        1.0  0.11205  0.28471  0.74696  1.0000
  C   C4        1.0  0.88834  0.71527  0.25293  1.0000
  C   C5        1.0  0.96847  0.40839  0.73991  1.0000
  C   C6        1.0  0.03159  0.59149  0.26009  1.0000
  C   C7        1.0  0.03047  0.52731  0.75123  1.0000
  C   C8        1.0  0.96927  0.47261  0.24897  1.0000
  C   C9        1.0  0.23477  0.52099  0.77300  1.0000
  C   C10       1.0  0.76495  0.47908  0.22714  1.0000
  C   C11       1.0  0.37676  0.39722  0.78161  1.0000
  C   C12       1.0  0.62328  0.60296  0.21842  1.0000
  C   C13       1.0  0.31749  0.27976  0.76708  1.0000
  C   C14       1.0  0.68277  0.72038  0.23289  1.0000
  C   C15       1.0  0.87795  0.66103  0.73967  1.0000
  C   C16       1.0  0.12175  0.33887  0.26029  1.0000
  C   C17       1.0  0.72959  0.12634  0.58696  1.0000
  C   C18       1.0  0.27096  0.87369  0.41297  1.0000
  C   C19       1.0  0.80300  0.91399  0.56527  1.0000
  C   C20       1.0  0.19772  0.08598  0.43469  1.0000
  C   C21       1.0  0.74597  0.99007  0.48805  1.0000
  C   C22       1.0  0.25478  0.00988  0.51189  1.0000
  C   C23       1.0  0.64072  0.23972  0.43575  1.0000
  C   C24       1.0  0.35964  0.76025  0.56423  1.0000
  C   C25       1.0  0.56916  0.37311  0.47015  1.0000
  C   C26       1.0  0.43127  0.62681  0.52991  1.0000
  C   C27       1.0  0.38653  0.39992  0.51827  1.0000
  C   C28       1.0  0.61396  0.59997  0.48184  1.0000
  C   C29       1.0  0.68192  0.47468  0.45252  1.0000
  C   C30       1.0  0.31859  0.52521  0.54759  1.0000
  C   C31       1.0  0.10427  0.84403  0.89747  1.0000
  C   C32       1.0  0.89512  0.15593  0.10255  1.0000
  C   C33       1.0  0.88082  0.86051  0.00558  1.0000
  C   C34       1.0  0.11843  0.13960  0.99438  1.0000
  C   C35       1.0  0.77870  0.91319  0.93044  1.0000
  C   C36       1.0  0.22064  0.08695  0.06951  1.0000
  C   C37       1.0  0.25589  0.75730  0.04250  1.0000
  C   C38       1.0  0.74330  0.24284  0.95756  1.0000
  C   C39       1.0  0.38085  0.62410  0.02015  1.0000
  C   C40       1.0  0.61853  0.37606  0.97996  1.0000
  C   C41       1.0  0.31666  0.50329  0.04695  1.0000
  C   C42       1.0  0.68274  0.49688  0.95318  1.0000
  C   C43       1.0  0.56445  0.61966  0.97304  1.0000
  C   C44       1.0  0.43493  0.38052  0.02707  1.0000
  N   N1        1.0  0.79242  0.99990  0.62664  1.0000
  N   N2        1.0  0.20817  0.00013  0.37330  1.0000
  N   N3        1.0  0.70026  0.12357  0.50291  1.0000
  N   N4        1.0  0.30039  0.87639  0.49703  1.0000
  N   N5        1.0  0.92020  0.90201  0.86379  1.0000
  N   N6        1.0  0.07925  0.09799  0.13620  1.0000
  N   N7        1.0  0.08514  0.81716  0.98352  1.0000
  N   N8        1.0  0.91411  0.18284  0.01649  1.0000
  O   O1        1.0  0.87336  0.13948  0.75499  1.0000
  O   O2        1.0  0.12768  0.86026  0.24504  1.0000
  O   O3        1.0  0.19131  0.06802  0.70014  1.0000
  O   O4        1.0  0.80971  0.93198  0.29963  1.0000
  O   O5        1.0  0.68849  0.66450  0.73850  1.0000
  O   O6        1.0  0.31124  0.33539  0.26118  1.0000
  O   O7        1.0  0.96416  0.76421  0.73064  1.0000
  O   O8        1.0  0.03566  0.23567  0.26932  1.0000
  O   O9        1.0  0.48458  0.89282  0.79582  1.0000
  O   O10       1.0  0.51550  0.10659  0.20436  1.0000
