data_image0
_chemical_formula_structural       Zn2H32C36S4N16
_chemical_formula_sum              "Zn2 H32 C36 S4 N16"
_cell_length_a       8.16118
_cell_length_b       10.1647
_cell_length_c       12.9659
_cell_angle_alpha    90.2036
_cell_angle_beta     98.5171
_cell_angle_gamma    107.788

_space_group_name_H-M_alt    "P 1"
_space_group_IT_number       1

loop_
  _space_group_symop_operation_xyz
  'x, y, z'

loop_
  _atom_site_type_symbol
  _atom_site_label
  _atom_site_symmetry_multiplicity
  _atom_site_fract_x
  _atom_site_fract_y
  _atom_site_fract_z
  _atom_site_occupancy
  Zn  Zn1       1.0  0.50835  0.87392  0.79074  1.0000
  Zn  Zn2       1.0  0.49165  0.12608  0.20926  1.0000
  H   H1        1.0  0.73355  0.10833  0.98905  1.0000
  H   H2        1.0  0.26645  0.89167  0.01095  1.0000
  H   H3        1.0  0.93422  0.19077  0.15822  1.0000
  H   H4        1.0  0.06578  0.80922  0.84179  1.0000
  H   H5        1.0  0.05732  0.03267  0.26334  1.0000
  H   H6        1.0  0.94269  0.96733  0.73666  1.0000
  H   H7        1.0  0.98896  0.78387  0.20677  1.0000
  H   H8        1.0  0.01104  0.21613  0.79323  1.0000
  H   H9        1.0  0.69706  0.47416  0.98968  1.0000
  H   H10       1.0  0.30294  0.52584  0.01032  1.0000
  H   H11       1.0  0.81919  0.54871  0.11352  1.0000
  H   H12       1.0  0.18081  0.45128  0.88648  1.0000
  H   H13       1.0  0.08137  0.65610  0.02529  1.0000
  H   H14       1.0  0.91863  0.34389  0.97471  1.0000
  H   H15       1.0  0.95727  0.57797  0.90346  1.0000
  H   H16       1.0  0.04272  0.42203  0.09654  1.0000
  H   H17       1.0  0.62455  0.48836  0.59906  1.0000
  H   H18       1.0  0.37544  0.51165  0.40094  1.0000
  H   H19       1.0  0.62609  0.42463  0.47221  1.0000
  H   H20       1.0  0.37390  0.57537  0.52779  1.0000
  H   H21       1.0  0.85559  0.64312  0.51112  1.0000
  H   H22       1.0  0.14440  0.35688  0.48888  1.0000
  H   H23       1.0  0.69701  0.65750  0.40505  1.0000
  H   H24       1.0  0.30298  0.34250  0.59495  1.0000
  H   H25       1.0  0.83023  0.90111  0.36381  1.0000
  H   H26       1.0  0.16977  0.09889  0.63619  1.0000
  H   H27       1.0  0.87552  0.15518  0.35776  1.0000
  H   H28       1.0  0.12447  0.84482  0.64224  1.0000
  H   H29       1.0  0.80591  0.28408  0.49699  1.0000
  H   H30       1.0  0.19409  0.71592  0.50301  1.0000
  H   H31       1.0  0.67892  0.16538  0.64843  1.0000
  H   H32       1.0  0.32108  0.83462  0.35157  1.0000
  C   C1        1.0  0.75376  0.90057  0.00338  1.0000
  C   C2        1.0  0.24624  0.09943  0.99662  1.0000
  C   C3        1.0  0.79087  0.03991  0.03565  1.0000
  C   C4        1.0  0.20914  0.96009  0.96435  1.0000
  C   C5        1.0  0.90172  0.08376  0.12937  1.0000
  C   C6        1.0  0.09828  0.91623  0.87063  1.0000
  C   C7        1.0  0.97191  0.99250  0.19012  1.0000
  C   C8        1.0  0.02809  0.00750  0.80988  1.0000
  C   C9        1.0  0.93610  0.85443  0.15959  1.0000
  C   C10       1.0  0.06390  0.14557  0.84041  1.0000
  C   C11       1.0  0.82587  0.81090  0.06408  1.0000
  C   C12       1.0  0.17413  0.18910  0.93592  1.0000
  C   C13       1.0  0.80685  0.56000  0.02875  1.0000
  C   C14       1.0  0.19315  0.44000  0.97125  1.0000
  C   C15       1.0  0.97536  0.56551  0.98833  1.0000
  C   C16       1.0  0.02464  0.43448  0.01167  1.0000
  C   C17       1.0  0.59590  0.50519  0.51549  1.0000
  C   C18       1.0  0.40409  0.49481  0.48451  1.0000
  C   C19       1.0  0.71958  0.64154  0.48917  1.0000
  C   C20       1.0  0.28042  0.35846  0.51083  1.0000
  C   C21       1.0  0.73221  0.89357  0.51187  1.0000
  C   C22       1.0  0.26779  0.10643  0.48813  1.0000
  C   C23       1.0  0.79914  0.95817  0.42533  1.0000
  C   C24       1.0  0.20086  0.04183  0.57467  1.0000
  C   C25       1.0  0.82384  0.09909  0.42315  1.0000
  C   C26       1.0  0.17615  0.90091  0.57685  1.0000
  C   C27       1.0  0.78218  0.17301  0.50307  1.0000
  C   C28       1.0  0.21782  0.82699  0.49693  1.0000
  C   C29       1.0  0.71245  0.10841  0.58785  1.0000
  C   C30       1.0  0.28755  0.89159  0.41215  1.0000
  C   C31       1.0  0.68735  0.96540  0.59127  1.0000
  C   C32       1.0  0.31265  0.03460  0.40873  1.0000
  C   C33       1.0  0.18109  0.62012  0.72850  1.0000
  C   C34       1.0  0.81892  0.37989  0.27150  1.0000
  C   C35       1.0  0.51992  0.18056  0.80336  1.0000
  C   C36       1.0  0.48009  0.81945  0.19664  1.0000
  S   S1        1.0  0.01924  0.48841  0.68104  1.0000
  S   S2        1.0  0.98076  0.51159  0.31896  1.0000
  S   S3        1.0  0.53280  0.34079  0.79344  1.0000
  S   S4        1.0  0.46721  0.65922  0.20657  1.0000
  N   N1        1.0  0.65291  0.82358  0.91610  1.0000
  N   N2        1.0  0.34709  0.17642  0.08390  1.0000
  N   N3        1.0  0.65990  0.69572  0.91940  1.0000
  N   N4        1.0  0.34010  0.30428  0.08060  1.0000
  N   N5        1.0  0.76245  0.68672  0.00777  1.0000
  N   N6        1.0  0.23755  0.31328  0.99223  1.0000
  N   N7        1.0  0.62630  0.86941  0.66269  1.0000
  N   N8        1.0  0.37370  0.13060  0.33732  1.0000
  N   N9        1.0  0.63352  0.74752  0.63280  1.0000
  N   N10       1.0  0.36648  0.25248  0.36720  1.0000
  N   N11       1.0  0.69607  0.76025  0.54255  1.0000
  N   N12       1.0  0.30393  0.23975  0.45745  1.0000
  N   N13       1.0  0.29693  0.71903  0.76518  1.0000
  N   N14       1.0  0.70307  0.28097  0.23482  1.0000
  N   N15       1.0  0.51186  0.06214  0.81095  1.0000
  N   N16       1.0  0.48815  0.93786  0.18906  1.0000
