data_image0
_chemical_formula_structural       Co2H40C44N8O10
_chemical_formula_sum              "Co2 H40 C44 N8 O10"
_cell_length_a       6.53705
_cell_length_b       10.2201
_cell_length_c       15.5598
_cell_angle_alpha    81.2748
_cell_angle_beta     86.1416
_cell_angle_gamma    77.1186

_space_group_name_H-M_alt    "P 1"
_space_group_IT_number       1

loop_
  _space_group_symop_operation_xyz
  'x, y, z'

loop_
  _atom_site_type_symbol
  _atom_site_label
  _atom_site_symmetry_multiplicity
  _atom_site_fract_x
  _atom_site_fract_y
  _atom_site_fract_z
  _atom_site_occupancy
  Co  Co1       1.0  0.85032  0.94826  0.74239  1.0000
  Co  Co2       1.0  0.15993  0.05032  0.25675  1.0000
  H   H1        1.0  0.79333  0.41428  0.72247  1.0000
  H   H2        1.0  0.19647  0.58780  0.27725  1.0000
  H   H3        1.0  0.29209  0.59945  0.77635  1.0000
  H   H4        1.0  0.69169  0.40735  0.22475  1.0000
  H   H5        1.0  0.53803  0.37522  0.79010  1.0000
  H   H6        1.0  0.45085  0.63446  0.20922  1.0000
  H   H7        1.0  0.41810  0.17073  0.76730  1.0000
  H   H8        1.0  0.57724  0.83695  0.23043  1.0000
  H   H9        1.0  0.68108  0.21468  0.61357  1.0000
  H   H10       1.0  0.32940  0.77713  0.39325  1.0000
  H   H11       1.0  0.86720  0.80591  0.57291  1.0000
  H   H12       1.0  0.15302  0.18545  0.43383  1.0000
  H   H13       1.0  0.75491  0.96638  0.41432  1.0000
  H   H14       1.0  0.25783  0.02451  0.59311  1.0000
  H   H15       1.0  0.50133  0.22478  0.39460  1.0000
  H   H16       1.0  0.50448  0.76385  0.61400  1.0000
  H   H17       1.0  0.76329  0.24701  0.38183  1.0000
  H   H18       1.0  0.24149  0.74417  0.62408  1.0000
  H   H19       1.0  0.26152  0.33698  0.51525  1.0000
  H   H20       1.0  0.74436  0.65447  0.49072  1.0000
  H   H21       1.0  0.85236  0.44021  0.42805  1.0000
  H   H22       1.0  0.15351  0.55140  0.57752  1.0000
  H   H23       1.0  0.24863  0.81887  0.85838  1.0000
  H   H24       1.0  0.75567  0.18237  0.13477  1.0000
  H   H25       1.0  0.82783  0.85726  0.07658  1.0000
  H   H26       1.0  0.16470  0.14930  0.91280  1.0000
  H   H27       1.0  0.60807  0.95701  0.92284  1.0000
  H   H28       1.0  0.39261  0.04834  0.06396  1.0000
  H   H29       1.0  0.19286  0.75146  0.10839  1.0000
  H   H30       1.0  0.79453  0.25370  0.88514  1.0000
  H   H31       1.0  0.36340  0.83314  0.03819  1.0000
  H   H32       1.0  0.62887  0.17105  0.95713  1.0000
  H   H33       1.0  0.15667  0.51380  0.08142  1.0000
  H   H34       1.0  0.83955  0.48931  0.91602  1.0000
  H   H35       1.0  0.63753  0.70924  0.95422  1.0000
  H   H36       1.0  0.35818  0.29413  0.04276  1.0000
  H   H37       1.0  0.56675  0.81667  0.76476  1.0000
  H   H38       1.0  0.42358  0.19143  0.23746  1.0000
  H   H39       1.0  0.40787  0.96376  0.75046  1.0000
  H   H40       1.0  0.59229  0.04521  0.25000  1.0000
  C   C1        1.0  0.02702  0.14937  0.73782  1.0000
  C   C2        1.0  0.98150  0.84913  0.25980  1.0000
  C   C3        1.0  0.09603  0.27734  0.74491  1.0000
  C   C4        1.0  0.89679  0.72681  0.25413  1.0000
  C   C5        1.0  0.95676  0.40437  0.73756  1.0000
  C   C6        1.0  0.03277  0.59871  0.26235  1.0000
  C   C7        1.0  0.02677  0.52109  0.74785  1.0000
  C   C8        1.0  0.96006  0.48328  0.25266  1.0000
  C   C9        1.0  0.23700  0.50961  0.76746  1.0000
  C   C10       1.0  0.74933  0.49663  0.23295  1.0000
  C   C11       1.0  0.37542  0.38362  0.77479  1.0000
  C   C12       1.0  0.61402  0.62386  0.22446  1.0000
  C   C13       1.0  0.30749  0.26833  0.76236  1.0000
  C   C14       1.0  0.68547  0.73848  0.23615  1.0000
  C   C15       1.0  0.87706  0.65740  0.74014  1.0000
  C   C16       1.0  0.10722  0.34641  0.26258  1.0000
  C   C17       1.0  0.71660  0.12460  0.58207  1.0000
  C   C18       1.0  0.29616  0.86712  0.42492  1.0000
  C   C19       1.0  0.80956  0.91426  0.55795  1.0000
  C   C20       1.0  0.20850  0.07683  0.44908  1.0000
  C   C21       1.0  0.75404  0.99189  0.47954  1.0000
  C   C22       1.0  0.26059  0.99917  0.52775  1.0000
  C   C23       1.0  0.63149  0.24259  0.42921  1.0000
  C   C24       1.0  0.37557  0.74790  0.57782  1.0000
  C   C25       1.0  0.56512  0.37313  0.46735  1.0000
  C   C26       1.0  0.44149  0.61783  0.53915  1.0000
  C   C27       1.0  0.36772  0.40677  0.50915  1.0000
  C   C28       1.0  0.63852  0.58446  0.49699  1.0000
  C   C29       1.0  0.69955  0.46365  0.46162  1.0000
  C   C30       1.0  0.30663  0.52776  0.54428  1.0000
  C   C31       1.0  0.10218  0.84231  0.89558  1.0000
  C   C32       1.0  0.90024  0.15916  0.09628  1.0000
  C   C33       1.0  0.87948  0.86613  0.00874  1.0000
  C   C34       1.0  0.11649  0.13924  0.98099  1.0000
  C   C35       1.0  0.77343  0.91613  0.93326  1.0000
  C   C36       1.0  0.22628  0.08927  0.05560  1.0000
  C   C37       1.0  0.26087  0.76071  0.04198  1.0000
  C   C38       1.0  0.73172  0.24343  0.95233  1.0000
  C   C39       1.0  0.38354  0.62632  0.01987  1.0000
  C   C40       1.0  0.61132  0.37715  0.97642  1.0000
  C   C41       1.0  0.30570  0.50887  0.04468  1.0000
  C   C42       1.0  0.69010  0.49438  0.95242  1.0000
  C   C43       1.0  0.57639  0.61802  0.97387  1.0000
  C   C44       1.0  0.41935  0.38529  0.02309  1.0000
  N   N1        1.0  0.78627  0.99793  0.62166  1.0000
  N   N2        1.0  0.23135  0.99371  0.38534  1.0000
  N   N3        1.0  0.69624  0.12418  0.49591  1.0000
  N   N4        1.0  0.31548  0.86674  0.51122  1.0000
  N   N5        1.0  0.91423  0.90058  0.86324  1.0000
  N   N6        1.0  0.08964  0.10216  0.12688  1.0000
  N   N7        1.0  0.08616  0.81966  0.98380  1.0000
  N   N8        1.0  0.91069  0.18366  0.00803  1.0000
  O   O1        1.0  0.83235  0.14381  0.75270  1.0000
  O   O2        1.0  0.17970  0.83978  0.24954  1.0000
  O   O3        1.0  0.16065  0.04539  0.71982  1.0000
  O   O4        1.0  0.86009  0.96228  0.27241  1.0000
  O   O5        1.0  0.68163  0.66328  0.74530  1.0000
  O   O6        1.0  0.30358  0.33965  0.25730  1.0000
  O   O7        1.0  0.96592  0.76003  0.72877  1.0000
  O   O8        1.0  0.01880  0.24428  0.27559  1.0000
  O   O9        1.0  0.53262  0.91032  0.78226  1.0000
  O   O10       1.0  0.46193  0.09596  0.22096  1.0000
