data_image0
_chemical_formula_structural       Zn2H48C56N8O8
_chemical_formula_sum              "Zn2 H48 C56 N8 O8"
_cell_length_a       6.09532
_cell_length_b       12.8705
_cell_length_c       16.335
_cell_angle_alpha    85.8316
_cell_angle_beta     79.194
_cell_angle_gamma    76.1952

_space_group_name_H-M_alt    "P 1"
_space_group_IT_number       1

loop_
  _space_group_symop_operation_xyz
  'x, y, z'

loop_
  _atom_site_type_symbol
  _atom_site_label
  _atom_site_symmetry_multiplicity
  _atom_site_fract_x
  _atom_site_fract_y
  _atom_site_fract_z
  _atom_site_occupancy
  Zn  Zn1       1.0  0.61863  0.24989  0.74982  1.0000
  Zn  Zn2       1.0  0.38138  0.75013  0.25016  1.0000
  H   H1        1.0  0.24526  0.11166  0.76772  1.0000
  H   H2        1.0  0.12364  0.38761  0.73225  1.0000
  H   H3        1.0  0.75472  0.88837  0.23225  1.0000
  H   H4        1.0  0.87634  0.61239  0.26775  1.0000
  H   H5        1.0  0.65545  0.20482  0.54932  1.0000
  H   H6        1.0  0.40935  0.29524  0.95054  1.0000
  H   H7        1.0  0.34454  0.79520  0.45066  1.0000
  H   H8        1.0  0.59065  0.70473  0.04945  1.0000
  H   H9        1.0  0.35795  0.09459  0.50488  1.0000
  H   H10       1.0  0.95649  0.40551  0.99503  1.0000
  H   H11       1.0  0.64204  0.90542  0.49509  1.0000
  H   H12       1.0  0.04355  0.59444  0.00497  1.0000
  H   H13       1.0  0.96034  0.06642  0.59838  1.0000
  H   H14       1.0  0.62333  0.43366  0.90182  1.0000
  H   H15       1.0  0.03965  0.93359  0.40162  1.0000
  H   H16       1.0  0.37665  0.56633  0.09820  1.0000
  H   H17       1.0  0.95317  0.05302  0.70671  1.0000
  H   H18       1.0  0.71172  0.44680  0.79336  1.0000
  H   H19       1.0  0.04679  0.94698  0.29328  1.0000
  H   H20       1.0  0.28826  0.55317  0.20667  1.0000
  H   H21       1.0  0.84230  0.90832  0.58425  1.0000
  H   H22       1.0  0.33269  0.59224  0.91514  1.0000
  H   H23       1.0  0.15768  0.09167  0.41574  1.0000
  H   H24       1.0  0.66732  0.40771  0.08488  1.0000
  H   H25       1.0  0.93103  0.70915  0.57858  1.0000
  H   H26       1.0  0.21651  0.79149  0.92092  1.0000
  H   H27       1.0  0.06897  0.29085  0.42144  1.0000
  H   H28       1.0  0.78346  0.20847  0.07909  1.0000
  H   H29       1.0  0.27412  0.59979  0.63365  1.0000
  H   H30       1.0  0.50675  0.90006  0.86644  1.0000
  H   H31       1.0  0.72587  0.40022  0.36636  1.0000
  H   H32       1.0  0.49320  0.09992  0.13356  1.0000
  H   H33       1.0  0.52389  0.69080  0.69193  1.0000
  H   H34       1.0  0.90655  0.80833  0.80850  1.0000
  H   H35       1.0  0.47610  0.30922  0.30808  1.0000
  H   H36       1.0  0.09340  0.19167  0.19149  1.0000
  H   H37       1.0  0.43666  0.88836  0.69661  1.0000
  H   H38       1.0  0.02110  0.61073  0.80373  1.0000
  H   H39       1.0  0.56334  0.11166  0.30338  1.0000
  H   H40       1.0  0.97887  0.38927  0.19627  1.0000
  H   H41       1.0  0.12556  0.14929  0.91361  1.0000
  H   H42       1.0  0.18876  0.35054  0.58635  1.0000
  H   H43       1.0  0.87445  0.85071  0.08639  1.0000
  H   H44       1.0  0.81130  0.64949  0.41367  1.0000
  H   H45       1.0  0.66849  0.93599  0.97181  1.0000
  H   H46       1.0  0.57572  0.56425  0.52806  1.0000
  H   H47       1.0  0.33156  0.06400  0.02817  1.0000
  H   H48       1.0  0.42431  0.43578  0.47196  1.0000
  C   C1        1.0  0.32172  0.12100  0.70295  1.0000
  C   C2        1.0  0.14473  0.37846  0.79700  1.0000
  C   C3        1.0  0.67826  0.87903  0.29702  1.0000
  C   C4        1.0  0.85525  0.62151  0.20301  1.0000
  C   C5        1.0  0.52965  0.16738  0.58839  1.0000
  C   C6        1.0  0.28501  0.33254  0.91145  1.0000
  C   C7        1.0  0.47034  0.83264  0.41158  1.0000
  C   C8        1.0  0.71500  0.66744  0.08855  1.0000
  C   C9        1.0  0.38236  0.11373  0.56540  1.0000
  C   C10       1.0  0.06061  0.38613  0.93450  1.0000
  C   C11       1.0  0.61762  0.88628  0.43458  1.0000
  C   C12       1.0  0.93943  0.61384  0.06550  1.0000
  C   C13       1.0  0.06340  0.03163  0.64615  1.0000
  C   C14       1.0  0.73949  0.46821  0.85393  1.0000
  C   C15       1.0  0.93659  0.96839  0.35385  1.0000
  C   C16       1.0  0.26053  0.53176  0.14610  1.0000
  C   C17       1.0  0.13450  0.91135  0.63955  1.0000
  C   C18       1.0  0.68391  0.58853  0.86043  1.0000
  C   C19       1.0  0.86549  0.08867  0.36044  1.0000
  C   C20       1.0  0.31609  0.41146  0.13959  1.0000
  C   C21       1.0  0.99345  0.85978  0.60678  1.0000
  C   C22       1.0  0.45806  0.64055  0.89286  1.0000
  C   C23       1.0  0.00653  0.14024  0.39321  1.0000
  C   C24       1.0  0.54193  0.35943  0.10717  1.0000
  C   C25       1.0  0.04198  0.74833  0.60435  1.0000
  C   C26       1.0  0.39280  0.75200  0.89533  1.0000
  C   C27       1.0  0.95803  0.25168  0.39565  1.0000
  C   C28       1.0  0.60717  0.24797  0.10469  1.0000
  C   C29       1.0  0.23342  0.68701  0.63494  1.0000
  C   C30       1.0  0.55429  0.81284  0.86506  1.0000
  C   C31       1.0  0.76659  0.31301  0.36506  1.0000
  C   C32       1.0  0.44568  0.18714  0.13494  1.0000
  C   C33       1.0  0.37506  0.73811  0.66750  1.0000
  C   C34       1.0  0.78008  0.76134  0.83274  1.0000
  C   C35       1.0  0.62495  0.26191  0.33250  1.0000
  C   C36       1.0  0.21988  0.23866  0.16726  1.0000
  C   C37       1.0  0.32624  0.84972  0.66992  1.0000
  C   C38       1.0  0.84508  0.64972  0.83028  1.0000
  C   C39       1.0  0.67376  0.15029  0.33008  1.0000
  C   C40       1.0  0.15489  0.35028  0.16973  1.0000
  C   C41       1.0  0.75774  0.09833  0.86700  1.0000
  C   C42       1.0  0.72289  0.40156  0.63281  1.0000
  C   C43       1.0  0.24230  0.90167  0.13298  1.0000
  C   C44       1.0  0.27713  0.59845  0.36720  1.0000
  C   C45       1.0  0.88518  0.04712  0.93504  1.0000
  C   C46       1.0  0.86712  0.45282  0.56485  1.0000
  C   C47       1.0  0.11484  0.95288  0.06494  1.0000
  C   C48       1.0  0.13290  0.54718  0.43518  1.0000
  C   C49       1.0  0.07153  0.08367  0.95136  1.0000
  C   C50       1.0  0.10670  0.41622  0.54861  1.0000
  C   C51       1.0  0.92850  0.91634  0.04862  1.0000
  C   C52       1.0  0.89335  0.58379  0.45141  1.0000
  C   C53       1.0  0.81462  0.96314  0.98424  1.0000
  C   C54       1.0  0.76164  0.53696  0.51569  1.0000
  C   C55       1.0  0.18543  0.03685  0.01574  1.0000
  C   C56       1.0  0.23837  0.46307  0.48433  1.0000
  N   N1        1.0  0.49056  0.17075  0.67447  1.0000
  N   N2        1.0  0.33534  0.32891  0.82538  1.0000
  N   N3        1.0  0.50943  0.82928  0.32551  1.0000
  N   N4        1.0  0.66464  0.67108  0.17462  1.0000
  N   N5        1.0  0.25151  0.08551  0.63862  1.0000
  N   N6        1.0  0.97434  0.41409  0.86137  1.0000
  N   N7        1.0  0.74847  0.91452  0.36137  1.0000
  N   N8        1.0  0.02565  0.58589  0.13865  1.0000
  O   O1        1.0  0.82898  0.17895  0.82677  1.0000
  O   O2        1.0  0.83489  0.32083  0.67298  1.0000
  O   O3        1.0  0.17100  0.82107  0.17324  1.0000
  O   O4        1.0  0.16514  0.67919  0.32703  1.0000
  O   O5        1.0  0.59397  0.06475  0.85130  1.0000
  O   O6        1.0  0.50953  0.43519  0.64857  1.0000
  O   O7        1.0  0.40615  0.93520  0.14865  1.0000
  O   O8        1.0  0.49048  0.56483  0.35144  1.0000
