data_image0
_chemical_formula_structural       Zn2H28C34S4N16
_chemical_formula_sum              "Zn2 H28 C34 S4 N16"
_cell_length_a       8.65432
_cell_length_b       9.46616
_cell_length_c       11.6955
_cell_angle_alpha    84.7758
_cell_angle_beta     88.5123
_cell_angle_gamma    81.7814

_space_group_name_H-M_alt    "P 1"
_space_group_IT_number       1

loop_
  _space_group_symop_operation_xyz
  'x, y, z'

loop_
  _atom_site_type_symbol
  _atom_site_label
  _atom_site_symmetry_multiplicity
  _atom_site_fract_x
  _atom_site_fract_y
  _atom_site_fract_z
  _atom_site_occupancy
  Zn  Zn1       1.0  0.64301  0.84812  0.77268  1.0000
  Zn  Zn2       1.0  0.35699  0.15188  0.22732  1.0000
  H   H1        1.0  0.50314  0.80075  0.05365  1.0000
  H   H2        1.0  0.49686  0.19925  0.94635  1.0000
  H   H3        1.0  0.45663  0.65698  0.23640  1.0000
  H   H4        1.0  0.54338  0.34303  0.76360  1.0000
  H   H5        1.0  0.58440  0.40703  0.27489  1.0000
  H   H6        1.0  0.41559  0.59298  0.72511  1.0000
  H   H7        1.0  0.77335  0.29111  0.13474  1.0000
  H   H8        1.0  0.22664  0.70889  0.86527  1.0000
  H   H9        1.0  0.88115  0.23790  0.91460  1.0000
  H   H10       1.0  0.11885  0.76210  0.08540  1.0000
  H   H11       1.0  0.03129  0.31397  0.97402  1.0000
  H   H12       1.0  0.96870  0.68603  0.02599  1.0000
  H   H13       1.0  0.07085  0.44369  0.77052  1.0000
  H   H14       1.0  0.92915  0.55631  0.22948  1.0000
  H   H15       1.0  0.13785  0.25928  0.79528  1.0000
  H   H16       1.0  0.86215  0.74072  0.20473  1.0000
  H   H17       1.0  0.81812  0.36963  0.68588  1.0000
  H   H18       1.0  0.18188  0.63037  0.31412  1.0000
  H   H19       1.0  0.99526  0.33943  0.60604  1.0000
  H   H20       1.0  0.00474  0.66056  0.39396  1.0000
  H   H21       1.0  0.23126  0.14442  0.58486  1.0000
  H   H22       1.0  0.76875  0.85558  0.41514  1.0000
  H   H23       1.0  0.36452  0.90583  0.53259  1.0000
  H   H24       1.0  0.63548  0.09417  0.46741  1.0000
  H   H25       1.0  0.23955  0.68860  0.56921  1.0000
  H   H26       1.0  0.76044  0.31140  0.43079  1.0000
  H   H27       1.0  0.97740  0.69479  0.66655  1.0000
  H   H28       1.0  0.02260  0.30521  0.33344  1.0000
  C   C1        1.0  0.66671  0.62587  0.99134  1.0000
  C   C2        1.0  0.33329  0.37413  0.00867  1.0000
  C   C3        1.0  0.56093  0.69127  0.07042  1.0000
  C   C4        1.0  0.43907  0.30872  0.92958  1.0000
  C   C5        1.0  0.53555  0.60944  0.17176  1.0000
  C   C6        1.0  0.46446  0.39056  0.82824  1.0000
  C   C7        1.0  0.61092  0.46680  0.19453  1.0000
  C   C8        1.0  0.38908  0.53320  0.80547  1.0000
  C   C9        1.0  0.71639  0.40105  0.11771  1.0000
  C   C10       1.0  0.28362  0.59895  0.88230  1.0000
  C   C11       1.0  0.74282  0.48434  0.01563  1.0000
  C   C12       1.0  0.25718  0.51565  0.98438  1.0000
  C   C13       1.0  0.94708  0.32961  0.90375  1.0000
  C   C14       1.0  0.05291  0.67039  0.09625  1.0000
  C   C15       1.0  0.03195  0.33850  0.78841  1.0000
  C   C16       1.0  0.96805  0.66150  0.21159  1.0000
  C   C17       1.0  0.93627  0.30960  0.68708  1.0000
  C   C18       1.0  0.06373  0.69040  0.31292  1.0000
  C   C19       1.0  0.02908  0.04973  0.65341  1.0000
  C   C20       1.0  0.97092  0.95027  0.34658  1.0000
  C   C21       1.0  0.17698  0.04749  0.60152  1.0000
  C   C22       1.0  0.82301  0.95251  0.39847  1.0000
  C   C23       1.0  0.24920  0.91480  0.57305  1.0000
  C   C24       1.0  0.75079  0.08520  0.42695  1.0000
  C   C25       1.0  0.17792  0.78932  0.59568  1.0000
  C   C26       1.0  0.82208  0.21068  0.40432  1.0000
  C   C27       1.0  0.03248  0.79115  0.64881  1.0000
  C   C28       1.0  0.96753  0.20885  0.35119  1.0000
  C   C29       1.0  0.95794  0.92510  0.67794  1.0000
  C   C30       1.0  0.04206  0.07489  0.32206  1.0000
  C   C31       1.0  0.65254  0.68098  0.55809  1.0000
  C   C32       1.0  0.34747  0.31903  0.44191  1.0000
  C   C33       1.0  0.34245  0.97621  0.88899  1.0000
  C   C34       1.0  0.65755  0.02380  0.11101  1.0000
  S   S1        1.0  0.69978  0.58515  0.45277  1.0000
  S   S2        1.0  0.30021  0.41485  0.54724  1.0000
  S   S3        1.0  0.18270  0.00730  0.96120  1.0000
  S   S4        1.0  0.81730  0.99269  0.03881  1.0000
  N   N1        1.0  0.81448  0.96754  0.72728  1.0000
  N   N2        1.0  0.18553  0.03246  0.27272  1.0000
  N   N3        1.0  0.79339  0.10734  0.73329  1.0000
  N   N4        1.0  0.20661  0.89266  0.26671  1.0000
  N   N5        1.0  0.92091  0.15798  0.68883  1.0000
  N   N6        1.0  0.07910  0.84202  0.31117  1.0000
  N   N7        1.0  0.71939  0.67369  0.88451  1.0000
  N   N8        1.0  0.28061  0.32631  0.11550  1.0000
  N   N9        1.0  0.82120  0.57279  0.84372  1.0000
  N   N10       1.0  0.17880  0.42721  0.15628  1.0000
  N   N11       1.0  0.83702  0.45890  0.92137  1.0000
  N   N12       1.0  0.16299  0.54110  0.07863  1.0000
  N   N13       1.0  0.61556  0.75488  0.63407  1.0000
  N   N14       1.0  0.38443  0.24512  0.36593  1.0000
  N   N15       1.0  0.46183  0.95395  0.83691  1.0000
  N   N16       1.0  0.53816  0.04605  0.16310  1.0000
