data_image0
_chemical_formula_structural       Zn4H36C40N16O16
_chemical_formula_sum              "Zn4 H36 C40 N16 O16"
_cell_length_a       9.43605
_cell_length_b       10.2247
_cell_length_c       13.938
_cell_angle_alpha    90
_cell_angle_beta     109.429
_cell_angle_gamma    90

_space_group_name_H-M_alt    "P 1"
_space_group_IT_number       1

loop_
  _space_group_symop_operation_xyz
  'x, y, z'

loop_
  _atom_site_type_symbol
  _atom_site_label
  _atom_site_symmetry_multiplicity
  _atom_site_fract_x
  _atom_site_fract_y
  _atom_site_fract_z
  _atom_site_occupancy
  Zn  Zn1       1.0  0.43434  0.82799  0.24822  1.0000
  Zn  Zn2       1.0  0.06566  0.32799  0.25178  1.0000
  Zn  Zn3       1.0  0.56566  0.17201  0.75178  1.0000
  Zn  Zn4       1.0  0.93434  0.67201  0.74822  1.0000
  H   H1        1.0  0.38411  0.59849  0.54233  1.0000
  H   H2        1.0  0.11589  0.09849  0.95767  1.0000
  H   H3        1.0  0.61589  0.40151  0.45767  1.0000
  H   H4        1.0  0.88411  0.90151  0.04233  1.0000
  H   H5        1.0  0.18068  0.58897  0.12446  1.0000
  H   H6        1.0  0.31932  0.08897  0.37554  1.0000
  H   H7        1.0  0.81932  0.41103  0.87554  1.0000
  H   H8        1.0  0.68068  0.91103  0.62446  1.0000
  H   H9        1.0  0.75038  0.74795  0.41846  1.0000
  H   H10       1.0  0.74962  0.24795  0.08154  1.0000
  H   H11       1.0  0.24963  0.25205  0.58154  1.0000
  H   H12       1.0  0.25038  0.75205  0.91846  1.0000
  H   H13       1.0  0.95754  0.94214  0.23138  1.0000
  H   H14       1.0  0.54246  0.44214  0.26863  1.0000
  H   H15       1.0  0.04246  0.05786  0.76863  1.0000
  H   H16       1.0  0.45753  0.55786  0.73137  1.0000
  H   H17       1.0  0.64988  0.93000  0.13065  1.0000
  H   H18       1.0  0.85012  0.43000  0.36935  1.0000
  H   H19       1.0  0.35012  0.07000  0.86935  1.0000
  H   H20       1.0  0.14988  0.57000  0.63065  1.0000
  H   H21       1.0  0.12718  0.81278  0.40463  1.0000
  H   H22       1.0  0.37282  0.31278  0.09537  1.0000
  H   H23       1.0  0.87282  0.18722  0.59537  1.0000
  H   H24       1.0  0.62718  0.68722  0.90463  1.0000
  H   H25       1.0  0.02618  0.76743  0.48702  1.0000
  H   H26       1.0  0.47382  0.26743  0.01298  1.0000
  H   H27       1.0  0.97382  0.23257  0.51298  1.0000
  H   H28       1.0  0.52618  0.73257  0.98702  1.0000
  H   H29       1.0  0.17052  0.97242  0.54478  1.0000
  H   H30       1.0  0.32948  0.47242  0.95522  1.0000
  H   H31       1.0  0.82948  0.02758  0.45522  1.0000
  H   H32       1.0  0.67052  0.52758  0.04478  1.0000
  H   H33       1.0  0.07957  0.04853  0.42663  1.0000
  H   H34       1.0  0.42043  0.54853  0.07337  1.0000
  H   H35       1.0  0.92043  0.95147  0.57337  1.0000
  H   H36       1.0  0.57957  0.45147  0.92663  1.0000
  C   C1        1.0  0.33788  0.63904  0.36552  1.0000
  C   C2        1.0  0.16212  0.13904  0.13448  1.0000
  C   C3        1.0  0.66211  0.36096  0.63448  1.0000
  C   C4        1.0  0.83789  0.86096  0.86552  1.0000
  C   C5        1.0  0.43235  0.72062  0.44919  1.0000
  C   C6        1.0  0.06765  0.22062  0.05081  1.0000
  C   C7        1.0  0.56765  0.27938  0.55081  1.0000
  C   C8        1.0  0.93235  0.77938  0.94919  1.0000
  C   C9        1.0  0.22232  0.58566  0.20708  1.0000
  C   C10       1.0  0.27769  0.08566  0.29292  1.0000
  C   C11       1.0  0.77769  0.41434  0.79292  1.0000
  C   C12       1.0  0.72232  0.91434  0.70708  1.0000
  C   C13       1.0  0.76165  0.79820  0.35286  1.0000
  C   C14       1.0  0.73835  0.29820  0.14714  1.0000
  C   C15       1.0  0.23835  0.20180  0.64714  1.0000
  C   C16       1.0  0.26165  0.70180  0.85286  1.0000
  C   C17       1.0  0.86794  0.90023  0.25384  1.0000
  C   C18       1.0  0.63206  0.40023  0.24615  1.0000
  C   C19       1.0  0.13206  0.09977  0.74615  1.0000
  C   C20       1.0  0.36794  0.59977  0.75384  1.0000
  C   C21       1.0  0.71568  0.89371  0.20503  1.0000
  C   C22       1.0  0.78432  0.39371  0.29497  1.0000
  C   C23       1.0  0.28432  0.10629  0.79497  1.0000
  C   C24       1.0  0.21568  0.60629  0.70503  1.0000
  C   C25       1.0  0.03542  0.84137  0.43225  1.0000
  C   C26       1.0  0.46458  0.34137  0.06775  1.0000
  C   C27       1.0  0.96458  0.15863  0.56775  1.0000
  C   C28       1.0  0.53542  0.65863  0.93225  1.0000
  C   C29       1.0  0.06345  0.97709  0.48128  1.0000
  C   C30       1.0  0.43655  0.47709  0.01872  1.0000
  C   C31       1.0  0.93655  0.02291  0.51872  1.0000
  C   C32       1.0  0.56345  0.52291  0.98128  1.0000
  C   C33       1.0  0.25098  0.52844  0.36288  1.0000
  C   C34       1.0  0.24902  0.02844  0.13712  1.0000
  C   C35       1.0  0.74902  0.47156  0.63712  1.0000
  C   C36       1.0  0.75098  0.97156  0.86288  1.0000
  C   C37       1.0  0.23070  0.44577  0.44405  1.0000
  C   C38       1.0  0.26930  0.94577  0.05595  1.0000
  C   C39       1.0  0.76930  0.55423  0.55595  1.0000
  C   C40       1.0  0.73070  0.05423  0.94405  1.0000
  N   N1        1.0  0.31937  0.67293  0.26652  1.0000
  N   N2        1.0  0.18062  0.17293  0.23348  1.0000
  N   N3        1.0  0.68062  0.32707  0.73348  1.0000
  N   N4        1.0  0.81938  0.82707  0.76652  1.0000
  N   N5        1.0  0.65091  0.83004  0.26769  1.0000
  N   N6        1.0  0.84909  0.33004  0.23231  1.0000
  N   N7        1.0  0.34909  0.16996  0.73231  1.0000
  N   N8        1.0  0.15091  0.66996  0.76769  1.0000
  N   N9        1.0  0.89474  0.83852  0.34658  1.0000
  N   N10       1.0  0.60526  0.33852  0.15342  1.0000
  N   N11       1.0  0.10526  0.16148  0.65342  1.0000
  N   N12       1.0  0.39474  0.66148  0.84658  1.0000
  N   N13       1.0  0.17904  0.49655  0.26294  1.0000
  N   N14       1.0  0.32096  0.99655  0.23706  1.0000
  N   N15       1.0  0.82096  0.50345  0.73706  1.0000
  N   N16       1.0  0.67904  0.00345  0.76294  1.0000
  O   O1        1.0  0.49474  0.81999  0.43009  1.0000
  O   O2        1.0  0.00526  0.31999  0.06991  1.0000
  O   O3        1.0  0.50526  0.18001  0.56990  1.0000
  O   O4        1.0  0.99475  0.68001  0.93010  1.0000
  O   O5        1.0  0.44487  0.68650  0.54293  1.0000
  O   O6        1.0  0.05512  0.18650  0.95707  1.0000
  O   O7        1.0  0.55512  0.31350  0.45707  1.0000
  O   O8        1.0  0.94488  0.81350  0.04293  1.0000
  O   O9        1.0  0.29935  0.47798  0.53628  1.0000
  O   O10       1.0  0.20065  0.97798  0.96372  1.0000
  O   O11       1.0  0.70064  0.52202  0.46372  1.0000
  O   O12       1.0  0.79935  0.02202  0.03628  1.0000
  O   O13       1.0  0.14535  0.34606  0.41627  1.0000
  O   O14       1.0  0.35465  0.84606  0.08373  1.0000
  O   O15       1.0  0.85465  0.65394  0.58373  1.0000
  O   O16       1.0  0.64535  0.15394  0.91627  1.0000
