data_image0
_chemical_formula_structural       Cu4H48C48N16O24
_chemical_formula_sum              "Cu4 H48 C48 N16 O24"
_cell_length_a       8.72499
_cell_length_b       11.4743
_cell_length_c       15.469
_cell_angle_alpha    107.045
_cell_angle_beta     90
_cell_angle_gamma    90

_space_group_name_H-M_alt    "P 1"
_space_group_IT_number       1

loop_
  _space_group_symop_operation_xyz
  'x, y, z'

loop_
  _atom_site_type_symbol
  _atom_site_label
  _atom_site_symmetry_multiplicity
  _atom_site_fract_x
  _atom_site_fract_y
  _atom_site_fract_z
  _atom_site_occupancy
  Cu  Cu1       1.0  0.85990  0.87941  0.77122  1.0000
  Cu  Cu2       1.0  0.35991  0.62060  0.72878  1.0000
  Cu  Cu3       1.0  0.14009  0.12060  0.22878  1.0000
  Cu  Cu4       1.0  0.64009  0.37940  0.27122  1.0000
  H   H1        1.0  0.77306  0.68330  0.85980  1.0000
  H   H2        1.0  0.27306  0.81670  0.64021  1.0000
  H   H3        1.0  0.22694  0.31670  0.14021  1.0000
  H   H4        1.0  0.72694  0.18330  0.35980  1.0000
  H   H5        1.0  0.89378  0.60483  0.97850  1.0000
  H   H6        1.0  0.39378  0.89517  0.52150  1.0000
  H   H7        1.0  0.10622  0.39517  0.02150  1.0000
  H   H8        1.0  0.60622  0.10483  0.47850  1.0000
  H   H9        1.0  0.23876  0.88324  0.01195  1.0000
  H   H10       1.0  0.73876  0.61676  0.48805  1.0000
  H   H11       1.0  0.76124  0.11676  0.98805  1.0000
  H   H12       1.0  0.26124  0.38324  0.51195  1.0000
  H   H13       1.0  0.20760  0.77025  0.12764  1.0000
  H   H14       1.0  0.70760  0.72975  0.37236  1.0000
  H   H15       1.0  0.79240  0.22975  0.87237  1.0000
  H   H16       1.0  0.29240  0.27025  0.62764  1.0000
  H   H17       1.0  0.24613  0.62979  0.04349  1.0000
  H   H18       1.0  0.74613  0.87021  0.45651  1.0000
  H   H19       1.0  0.75387  0.37021  0.95651  1.0000
  H   H20       1.0  0.25387  0.12979  0.54349  1.0000
  H   H21       1.0  0.07433  0.64610  0.10785  1.0000
  H   H22       1.0  0.57433  0.85390  0.39216  1.0000
  H   H23       1.0  0.92567  0.35390  0.89216  1.0000
  H   H24       1.0  0.42567  0.14610  0.60785  1.0000
  H   H25       1.0  0.02134  0.07843  0.70841  1.0000
  H   H26       1.0  0.52134  0.42158  0.79159  1.0000
  H   H27       1.0  0.97866  0.92158  0.29159  1.0000
  H   H28       1.0  0.47866  0.57843  0.20841  1.0000
  H   H29       1.0  0.23963  0.21811  0.76704  1.0000
  H   H30       1.0  0.73962  0.28190  0.73296  1.0000
  H   H31       1.0  0.76038  0.78190  0.23296  1.0000
  H   H32       1.0  0.26037  0.71811  0.26704  1.0000
  H   H33       1.0  0.30956  0.03219  0.96898  1.0000
  H   H34       1.0  0.80956  0.46781  0.53102  1.0000
  H   H35       1.0  0.69044  0.96781  0.03102  1.0000
  H   H36       1.0  0.19044  0.53219  0.46898  1.0000
  H   H37       1.0  0.47217  0.20077  0.97283  1.0000
  H   H38       1.0  0.97217  0.29924  0.52717  1.0000
  H   H39       1.0  0.52783  0.79924  0.02717  1.0000
  H   H40       1.0  0.02783  0.70077  0.47283  1.0000
  H   H41       1.0  0.39402  0.31301  0.92564  1.0000
  H   H42       1.0  0.89402  0.18699  0.57436  1.0000
  H   H43       1.0  0.60598  0.68699  0.07436  1.0000
  H   H44       1.0  0.10598  0.81301  0.42564  1.0000
  H   H45       1.0  0.52009  0.19884  0.86073  1.0000
  H   H46       1.0  0.02008  0.30117  0.63928  1.0000
  H   H47       1.0  0.47992  0.80117  0.13928  1.0000
  H   H48       1.0  0.97991  0.69884  0.36073  1.0000
  C   C1        1.0  0.87638  0.72486  0.89537  1.0000
  C   C2        1.0  0.37638  0.77515  0.60463  1.0000
  C   C3        1.0  0.12362  0.27515  0.10463  1.0000
  C   C4        1.0  0.62362  0.22486  0.39537  1.0000
  C   C5        1.0  0.94464  0.68147  0.96101  1.0000
  C   C6        1.0  0.44464  0.81853  0.53899  1.0000
  C   C7        1.0  0.05536  0.31853  0.03899  1.0000
  C   C8        1.0  0.55536  0.18147  0.46101  1.0000
  C   C9        1.0  0.07687  0.73841  0.00537  1.0000
  C   C10       1.0  0.57687  0.76159  0.49463  1.0000
  C   C11       1.0  0.92313  0.26159  0.99463  1.0000
  C   C12       1.0  0.42313  0.23841  0.50537  1.0000
  C   C13       1.0  0.13570  0.83690  0.97970  1.0000
  C   C14       1.0  0.63570  0.66310  0.52030  1.0000
  C   C15       1.0  0.86430  0.16310  0.02030  1.0000
  C   C16       1.0  0.36430  0.33690  0.47970  1.0000
  C   C17       1.0  0.06354  0.87467  0.91211  1.0000
  C   C18       1.0  0.56354  0.62533  0.58789  1.0000
  C   C19       1.0  0.93646  0.12533  0.08789  1.0000
  C   C20       1.0  0.43646  0.37467  0.41211  1.0000
  C   C21       1.0  0.15497  0.69419  0.07593  1.0000
  C   C22       1.0  0.65497  0.80581  0.42407  1.0000
  C   C23       1.0  0.84503  0.30581  0.92407  1.0000
  C   C24       1.0  0.34503  0.19419  0.57593  1.0000
  C   C25       1.0  0.08743  0.07179  0.76654  1.0000
  C   C26       1.0  0.58743  0.42821  0.73346  1.0000
  C   C27       1.0  0.91257  0.92821  0.23346  1.0000
  C   C28       1.0  0.41257  0.57179  0.26654  1.0000
  C   C29       1.0  0.21107  0.14812  0.79907  1.0000
  C   C30       1.0  0.71107  0.35188  0.70093  1.0000
  C   C31       1.0  0.78893  0.85188  0.20093  1.0000
  C   C32       1.0  0.28893  0.64812  0.29907  1.0000
  C   C33       1.0  0.29404  0.13590  0.87367  1.0000
  C   C34       1.0  0.79404  0.36410  0.62633  1.0000
  C   C35       1.0  0.70596  0.86410  0.12633  1.0000
  C   C36       1.0  0.20596  0.63590  0.37367  1.0000
  C   C37       1.0  0.24722  0.04509  0.91156  1.0000
  C   C38       1.0  0.74722  0.45491  0.58845  1.0000
  C   C39       1.0  0.75278  0.95491  0.08845  1.0000
  C   C40       1.0  0.25278  0.54509  0.41155  1.0000
  C   C41       1.0  0.12111  0.97202  0.87644  1.0000
  C   C42       1.0  0.62111  0.52798  0.62356  1.0000
  C   C43       1.0  0.87890  0.02798  0.12356  1.0000
  C   C44       1.0  0.37889  0.47202  0.37644  1.0000
  C   C45       1.0  0.42750  0.21679  0.91107  1.0000
  C   C46       1.0  0.92750  0.28321  0.58893  1.0000
  C   C47       1.0  0.57250  0.78321  0.08893  1.0000
  C   C48       1.0  0.07250  0.71679  0.41107  1.0000
  N   N1        1.0  0.93382  0.81963  0.87200  1.0000
  N   N2        1.0  0.43382  0.68038  0.62801  1.0000
  N   N3        1.0  0.06618  0.18038  0.12801  1.0000
  N   N4        1.0  0.56618  0.31963  0.37200  1.0000
  N   N5        1.0  0.04243  0.98614  0.80451  1.0000
  N   N6        1.0  0.54243  0.51386  0.69549  1.0000
  N   N7        1.0  0.95757  0.01386  0.19549  1.0000
  N   N8        1.0  0.45757  0.48614  0.30451  1.0000
  N   N9        1.0  0.56520  0.85580  0.83688  1.0000
  N   N10       1.0  0.06521  0.64419  0.66312  1.0000
  N   N11       1.0  0.43479  0.14419  0.16312  1.0000
  N   N12       1.0  0.93480  0.35580  0.33688  1.0000
  N   N13       1.0  0.72532  0.01955  0.67012  1.0000
  N   N14       1.0  0.22532  0.48046  0.82987  1.0000
  N   N15       1.0  0.27468  0.98046  0.32987  1.0000
  N   N16       1.0  0.77468  0.51954  0.17012  1.0000
  O   O1        1.0  0.65387  0.80218  0.76855  1.0000
  O   O2        1.0  0.15388  0.69781  0.73145  1.0000
  O   O3        1.0  0.34613  0.19781  0.23145  1.0000
  O   O4        1.0  0.84613  0.30218  0.26855  1.0000
  O   O5        1.0  0.60805  0.95162  0.89339  1.0000
  O   O6        1.0  0.10806  0.54837  0.60661  1.0000
  O   O7        1.0  0.39194  0.04837  0.10661  1.0000
  O   O8        1.0  0.89195  0.45162  0.39339  1.0000
  O   O9        1.0  0.43870  0.80607  0.84236  1.0000
  O   O10       1.0  0.93871  0.69392  0.65764  1.0000
  O   O11       1.0  0.56129  0.19392  0.15764  1.0000
  O   O12       1.0  0.06130  0.30607  0.34236  1.0000
  O   O13       1.0  0.81378  0.92380  0.65872  1.0000
  O   O14       1.0  0.31378  0.57620  0.84127  1.0000
  O   O15       1.0  0.18622  0.07620  0.34127  1.0000
  O   O16       1.0  0.68621  0.42380  0.15872  1.0000
  O   O17       1.0  0.68226  0.07625  0.74837  1.0000
  O   O18       1.0  0.18226  0.42375  0.75162  1.0000
  O   O19       1.0  0.31774  0.92375  0.25162  1.0000
  O   O20       1.0  0.81773  0.57625  0.24837  1.0000
  O   O21       1.0  0.69024  0.04975  0.60157  1.0000
  O   O22       1.0  0.19024  0.45025  0.89843  1.0000
  O   O23       1.0  0.30976  0.95025  0.39843  1.0000
  O   O24       1.0  0.80976  0.54975  0.10157  1.0000
