data_image0
_chemical_formula_structural       Cd2H32C28N4O12
_chemical_formula_sum              "Cd2 H32 C28 N4 O12"
_cell_length_a       8.80536
_cell_length_b       9.38231
_cell_length_c       9.67589
_cell_angle_alpha    109.519
_cell_angle_beta     90
_cell_angle_gamma    90

_space_group_name_H-M_alt    "P 1"
_space_group_IT_number       1

loop_
  _space_group_symop_operation_xyz
  'x, y, z'

loop_
  _atom_site_type_symbol
  _atom_site_label
  _atom_site_symmetry_multiplicity
  _atom_site_fract_x
  _atom_site_fract_y
  _atom_site_fract_z
  _atom_site_occupancy
  Cd  Cd1       1.0  1.00000  0.50000  0.50000  1.0000
  Cd  Cd2       1.0  0.50000  1.00000  0.00000  1.0000
  H   H1        1.0  0.01563  0.28905  0.19941  1.0000
  H   H2        1.0  0.51563  0.21095  0.30059  1.0000
  H   H3        1.0  0.98437  0.71095  0.80059  1.0000
  H   H4        1.0  0.48437  0.78905  0.69941  1.0000
  H   H5        1.0  0.84856  0.30020  0.27947  1.0000
  H   H6        1.0  0.34856  0.19980  0.22053  1.0000
  H   H7        1.0  0.15144  0.69980  0.72053  1.0000
  H   H8        1.0  0.65144  0.80020  0.77947  1.0000
  H   H9        1.0  0.02654  0.63352  0.23272  1.0000
  H   H10       1.0  0.52654  0.86648  0.26728  1.0000
  H   H11       1.0  0.97346  0.36648  0.76728  1.0000
  H   H12       1.0  0.47345  0.13352  0.73272  1.0000
  H   H13       1.0  0.82414  0.81434  0.64023  1.0000
  H   H14       1.0  0.32415  0.68566  0.85977  1.0000
  H   H15       1.0  0.17585  0.18566  0.35977  1.0000
  H   H16       1.0  0.67585  0.31434  0.14023  1.0000
  H   H17       1.0  0.73129  0.03921  0.58265  1.0000
  H   H18       1.0  0.23129  0.46079  0.91735  1.0000
  H   H19       1.0  0.26871  0.96079  0.41734  1.0000
  H   H20       1.0  0.76871  0.53921  0.08265  1.0000
  H   H21       1.0  0.79781  0.06395  0.33958  1.0000
  H   H22       1.0  0.29781  0.43605  0.16042  1.0000
  H   H23       1.0  0.20219  0.93605  0.66042  1.0000
  H   H24       1.0  0.70219  0.56395  0.83958  1.0000
  H   H25       1.0  0.03299  0.75725  0.05770  1.0000
  H   H26       1.0  0.53299  0.74275  0.44230  1.0000
  H   H27       1.0  0.96701  0.24276  0.94230  1.0000
  H   H28       1.0  0.46701  0.25724  0.55770  1.0000
  H   H29       1.0  0.04369  0.95621  0.13657  1.0000
  H   H30       1.0  0.54369  0.54379  0.36343  1.0000
  H   H31       1.0  0.95631  0.04379  0.86343  1.0000
  H   H32       1.0  0.45631  0.45621  0.63657  1.0000
  C   C1        1.0  0.96166  0.72709  0.30694  1.0000
  C   C2        1.0  0.46166  0.77291  0.19306  1.0000
  C   C3        1.0  0.03834  0.27291  0.69306  1.0000
  C   C4        1.0  0.53834  0.22709  0.80694  1.0000
  C   C5        1.0  0.84770  0.82663  0.53443  1.0000
  C   C6        1.0  0.34770  0.67337  0.96557  1.0000
  C   C7        1.0  0.15230  0.17337  0.46557  1.0000
  C   C8        1.0  0.65230  0.32663  0.03443  1.0000
  C   C9        1.0  0.79726  0.95243  0.50164  1.0000
  C   C10       1.0  0.29726  0.54757  0.99836  1.0000
  C   C11       1.0  0.20274  0.04757  0.49836  1.0000
  C   C12       1.0  0.70274  0.45243  0.00164  1.0000
  C   C13       1.0  0.83467  0.96580  0.36684  1.0000
  C   C14       1.0  0.33467  0.53420  0.13316  1.0000
  C   C15       1.0  0.16533  0.03420  0.63316  1.0000
  C   C16       1.0  0.66533  0.46579  0.86684  1.0000
  C   C17       1.0  0.91939  0.85070  0.26555  1.0000
  C   C18       1.0  0.41939  0.64930  0.23445  1.0000
  C   C19       1.0  0.08061  0.14930  0.73445  1.0000
  C   C20       1.0  0.58061  0.35070  0.76555  1.0000
  C   C21       1.0  0.96771  0.85820  0.11870  1.0000
  C   C22       1.0  0.46771  0.64181  0.38130  1.0000
  C   C23       1.0  0.03229  0.14180  0.88130  1.0000
  C   C24       1.0  0.53229  0.35819  0.61870  1.0000
  C   C25       1.0  0.83599  0.88016  0.02358  1.0000
  C   C26       1.0  0.33599  0.61984  0.47642  1.0000
  C   C27       1.0  0.16401  0.11984  0.97642  1.0000
  C   C28       1.0  0.66401  0.38016  0.52358  1.0000
  N   N1        1.0  0.92799  0.71561  0.43849  1.0000
  N   N2        1.0  0.42799  0.78438  0.06151  1.0000
  N   N3        1.0  0.07201  0.28439  0.56151  1.0000
  N   N4        1.0  0.57201  0.21561  0.93849  1.0000
  O   O1        1.0  0.74036  0.98201  0.08657  1.0000
  O   O2        1.0  0.24036  0.51799  0.41343  1.0000
  O   O3        1.0  0.25964  0.01798  0.91343  1.0000
  O   O4        1.0  0.75964  0.48202  0.58657  1.0000
  O   O5        1.0  0.83225  0.79774  0.88865  1.0000
  O   O6        1.0  0.33226  0.70226  0.61135  1.0000
  O   O7        1.0  0.16775  0.20226  0.11135  1.0000
  O   O8        1.0  0.66775  0.29774  0.38865  1.0000
  O   O9        1.0  0.93477  0.35761  0.25973  1.0000
  O   O10       1.0  0.43477  0.14239  0.24027  1.0000
  O   O11       1.0  0.06523  0.64239  0.74027  1.0000
  O   O12       1.0  0.56523  0.85761  0.75973  1.0000
