data_image0
_chemical_formula_structural       Cu4H40C24N16Cl8
_chemical_formula_sum              "Cu4 H40 C24 N16 Cl8"
_cell_length_a       6.87097
_cell_length_b       8.5587
_cell_length_c       16.3295
_cell_angle_alpha    90.0001
_cell_angle_beta     90.0001
_cell_angle_gamma    108.792

_space_group_name_H-M_alt    "P 1"
_space_group_IT_number       1

loop_
  _space_group_symop_operation_xyz
  'x, y, z'

loop_
  _atom_site_type_symbol
  _atom_site_label
  _atom_site_symmetry_multiplicity
  _atom_site_fract_x
  _atom_site_fract_y
  _atom_site_fract_z
  _atom_site_occupancy
  Cu  Cu1       1.0  0.00000  0.00000  0.00000  1.0000
  Cu  Cu2       1.0  0.50000  0.50000  0.50000  1.0000
  Cu  Cu3       1.0  0.50000  1.00000  1.00000  1.0000
  Cu  Cu4       1.0  1.00000  0.50000  0.50000  1.0000
  H   H1        1.0  0.33262  0.31100  0.92637  1.0000
  H   H2        1.0  0.16738  0.18900  0.42637  1.0000
  H   H3        1.0  0.66738  0.68900  0.07363  1.0000
  H   H4        1.0  0.83262  0.81100  0.57363  1.0000
  H   H5        1.0  0.33108  0.51713  0.93143  1.0000
  H   H6        1.0  0.16891  0.98288  0.43142  1.0000
  H   H7        1.0  0.66892  0.48287  0.06858  1.0000
  H   H8        1.0  0.83108  0.01712  0.56858  1.0000
  H   H9        1.0  0.47252  0.43548  0.79952  1.0000
  H   H10       1.0  0.02748  0.06452  0.29952  1.0000
  H   H11       1.0  0.52748  0.56452  0.20048  1.0000
  H   H12       1.0  0.97252  0.93548  0.70048  1.0000
  H   H13       1.0  0.22333  0.30714  0.77487  1.0000
  H   H14       1.0  0.27667  0.19286  0.27487  1.0000
  H   H15       1.0  0.77667  0.69286  0.22513  1.0000
  H   H16       1.0  0.72333  0.80713  0.72513  1.0000
  H   H17       1.0  0.32383  0.58021  0.70611  1.0000
  H   H18       1.0  0.17617  0.91979  0.20611  1.0000
  H   H19       1.0  0.67618  0.41979  0.29389  1.0000
  H   H20       1.0  0.82382  0.08020  0.79390  1.0000
  H   H21       1.0  0.35896  0.68207  0.80218  1.0000
  H   H22       1.0  0.14104  0.81793  0.30218  1.0000
  H   H23       1.0  0.64105  0.31793  0.19781  1.0000
  H   H24       1.0  0.85896  0.18207  0.69782  1.0000
  H   H25       1.0  0.03130  0.67301  0.73440  1.0000
  H   H26       1.0  0.46870  0.82699  0.23440  1.0000
  H   H27       1.0  0.96870  0.32699  0.26560  1.0000
  H   H28       1.0  0.53130  0.17301  0.76560  1.0000
  H   H29       1.0  0.94864  0.45690  0.73220  1.0000
  H   H30       1.0  0.55136  0.04309  0.23220  1.0000
  H   H31       1.0  0.05136  0.54309  0.26780  1.0000
  H   H32       1.0  0.44864  0.95690  0.76780  1.0000
  H   H33       1.0  0.04148  0.66731  0.88896  1.0000
  H   H34       1.0  0.45853  0.83269  0.38895  1.0000
  H   H35       1.0  0.95853  0.33269  0.11104  1.0000
  H   H36       1.0  0.54147  0.16731  0.61105  1.0000
  H   H37       1.0  0.79347  0.58647  0.84525  1.0000
  H   H38       1.0  0.70653  0.91353  0.34525  1.0000
  H   H39       1.0  0.20653  0.41353  0.15475  1.0000
  H   H40       1.0  0.29347  0.08647  0.65475  1.0000
  C   C1        1.0  0.26291  0.39770  0.89995  1.0000
  C   C2        1.0  0.23708  0.10230  0.39995  1.0000
  C   C3        1.0  0.73709  0.60230  0.10005  1.0000
  C   C4        1.0  0.76291  0.89770  0.60005  1.0000
  C   C5        1.0  0.30881  0.42097  0.80758  1.0000
  C   C6        1.0  0.19119  0.07903  0.30758  1.0000
  C   C7        1.0  0.69119  0.57903  0.19242  1.0000
  C   C8        1.0  0.80881  0.92096  0.69242  1.0000
  C   C9        1.0  0.26712  0.57019  0.76943  1.0000
  C   C10       1.0  0.23287  0.92981  0.26943  1.0000
  C   C11       1.0  0.73288  0.42981  0.23057  1.0000
  C   C12       1.0  0.76712  0.07019  0.73057  1.0000
  C   C13       1.0  0.04240  0.56429  0.76739  1.0000
  C   C14       1.0  0.45760  0.93571  0.26739  1.0000
  C   C15       1.0  0.95760  0.43571  0.23261  1.0000
  C   C16       1.0  0.54240  0.06429  0.73261  1.0000
  C   C17       1.0  0.94326  0.56726  0.85057  1.0000
  C   C18       1.0  0.55674  0.93274  0.35057  1.0000
  C   C19       1.0  0.05674  0.43274  0.14943  1.0000
  C   C20       1.0  0.44326  0.06726  0.64943  1.0000
  C   C21       1.0  0.04028  0.33460  0.91722  1.0000
  C   C22       1.0  0.45972  0.16540  0.41722  1.0000
  C   C23       1.0  0.95972  0.66540  0.08278  1.0000
  C   C24       1.0  0.54028  0.83460  0.58278  1.0000
  N   N1        1.0  0.93021  0.19411  0.95398  1.0000
  N   N2        1.0  0.56979  0.30589  0.45398  1.0000
  N   N3        1.0  0.06979  0.80590  0.04602  1.0000
  N   N4        1.0  0.43021  0.69410  0.54602  1.0000
  N   N5        1.0  0.73216  0.18980  0.95272  1.0000
  N   N6        1.0  0.76784  0.31020  0.45272  1.0000
  N   N7        1.0  0.26784  0.81020  0.04728  1.0000
  N   N8        1.0  0.23216  0.68980  0.54728  1.0000
  N   N9        1.0  0.71263  0.31926  0.91703  1.0000
  N   N10       1.0  0.78737  0.18074  0.41703  1.0000
  N   N11       1.0  0.28737  0.68074  0.08297  1.0000
  N   N12       1.0  0.21263  0.81926  0.58297  1.0000
  N   N13       1.0  0.90377  0.41093  0.89490  1.0000
  N   N14       1.0  0.59623  0.08907  0.39490  1.0000
  N   N15       1.0  0.09623  0.58907  0.10510  1.0000
  N   N16       1.0  0.40377  0.91093  0.60510  1.0000
  Cl  Cl1       1.0  0.61960  0.82187  0.92661  1.0000
  Cl  Cl2       1.0  0.88039  0.67813  0.42660  1.0000
  Cl  Cl3       1.0  0.38040  0.17813  0.07339  1.0000
  Cl  Cl4       1.0  0.11961  0.32187  0.57340  1.0000
  Cl  Cl5       1.0  0.18122  0.98606  0.88396  1.0000
  Cl  Cl6       1.0  0.31878  0.51394  0.38396  1.0000
  Cl  Cl7       1.0  0.81878  0.01394  0.11604  1.0000
  Cl  Cl8       1.0  0.68122  0.48606  0.61604  1.0000
