data_image0
_chemical_formula_structural       Zn2H40C28N8O8
_chemical_formula_sum              "Zn2 H40 C28 N8 O8"
_cell_length_a       7.89687
_cell_length_b       8.35223
_cell_length_c       13.6883
_cell_angle_alpha    76.4561
_cell_angle_beta     85.888
_cell_angle_gamma    71.6978

_space_group_name_H-M_alt    "P 1"
_space_group_IT_number       1

loop_
  _space_group_symop_operation_xyz
  'x, y, z'

loop_
  _atom_site_type_symbol
  _atom_site_label
  _atom_site_symmetry_multiplicity
  _atom_site_fract_x
  _atom_site_fract_y
  _atom_site_fract_z
  _atom_site_occupancy
  Zn  Zn1       1.0  0.61754  0.58382  0.24672  1.0000
  Zn  Zn2       1.0  0.38246  0.41619  0.75328  1.0000
  H   H1        1.0  0.93287  0.73007  0.29015  1.0000
  H   H2        1.0  0.06712  0.26994  0.70986  1.0000
  H   H3        1.0  0.88344  0.15416  0.33820  1.0000
  H   H4        1.0  0.11655  0.84586  0.66180  1.0000
  H   H5        1.0  0.03733  0.94379  0.33778  1.0000
  H   H6        1.0  0.96267  0.05622  0.66221  1.0000
  H   H7        1.0  0.06564  0.70778  0.98426  1.0000
  H   H8        1.0  0.93436  0.29220  0.01574  1.0000
  H   H9        1.0  0.15427  0.78481  0.86546  1.0000
  H   H10       1.0  0.84574  0.21518  0.13454  1.0000
  H   H11       1.0  0.94934  0.83276  0.51270  1.0000
  H   H12       1.0  0.05068  0.16724  0.48729  1.0000
  H   H13       1.0  0.79716  0.03961  0.51492  1.0000
  H   H14       1.0  0.20285  0.96038  0.48509  1.0000
  H   H15       1.0  0.53608  0.15503  0.36813  1.0000
  H   H16       1.0  0.46392  0.84498  0.63187  1.0000
  H   H17       1.0  0.24660  0.63109  0.13899  1.0000
  H   H18       1.0  0.75340  0.36890  0.86101  1.0000
  H   H19       1.0  0.89594  0.01451  0.90552  1.0000
  H   H20       1.0  0.10407  0.98548  0.09448  1.0000
  H   H21       1.0  0.08868  0.07804  0.90465  1.0000
  H   H22       1.0  0.91133  0.92195  0.09534  1.0000
  H   H23       1.0  0.45920  0.85732  0.86902  1.0000
  H   H24       1.0  0.54080  0.14267  0.13098  1.0000
  H   H25       1.0  0.37354  0.93257  0.31155  1.0000
  H   H26       1.0  0.62645  0.06745  0.68845  1.0000
  H   H27       1.0  0.72028  0.73392  0.02141  1.0000
  H   H28       1.0  0.27972  0.26607  0.97860  1.0000
  H   H29       1.0  0.16060  0.19600  0.27669  1.0000
  H   H30       1.0  0.83939  0.80401  0.72331  1.0000
  H   H31       1.0  0.26806  0.35913  0.23616  1.0000
  H   H32       1.0  0.73194  0.64087  0.76384  1.0000
  H   H33       1.0  0.20600  0.26722  0.14664  1.0000
  H   H34       1.0  0.79399  0.73279  0.85335  1.0000
  H   H35       1.0  0.32522  0.32212  0.49262  1.0000
  H   H36       1.0  0.67479  0.67788  0.50737  1.0000
  H   H37       1.0  0.11247  0.45425  0.43811  1.0000
  H   H38       1.0  0.88753  0.54575  0.56189  1.0000
  H   H39       1.0  0.22089  0.53062  0.51794  1.0000
  H   H40       1.0  0.77910  0.46937  0.48206  1.0000
  C   C1        1.0  0.98595  0.44741  0.20296  1.0000
  C   C2        1.0  0.01404  0.55260  0.79704  1.0000
  C   C3        1.0  0.80041  0.81202  0.30342  1.0000
  C   C4        1.0  0.19958  0.18800  0.69657  1.0000
  C   C5        1.0  0.91185  0.01451  0.36926  1.0000
  C   C6        1.0  0.08815  0.98550  0.63074  1.0000
  C   C7        1.0  0.13218  0.80088  0.94315  1.0000
  C   C8        1.0  0.86782  0.19910  0.05685  1.0000
  C   C9        1.0  0.92518  0.97265  0.48352  1.0000
  C   C10       1.0  0.07484  0.02735  0.51648  1.0000
  C   C11       1.0  0.58985  0.03273  0.34511  1.0000
  C   C12       1.0  0.41015  0.96728  0.65489  1.0000
  C   C13       1.0  0.33256  0.53977  0.37035  1.0000
  C   C14       1.0  0.66744  0.46024  0.62965  1.0000
  C   C15       1.0  0.34395  0.67247  0.08790  1.0000
  C   C16       1.0  0.65606  0.32752  0.91210  1.0000
  C   C17       1.0  0.02081  0.98616  0.94653  1.0000
  C   C18       1.0  0.97919  0.01383  0.05347  1.0000
  C   C19       1.0  0.45702  0.79178  0.94732  1.0000
  C   C20       1.0  0.54298  0.20821  0.05268  1.0000
  C   C21       1.0  0.51230  0.92522  0.31562  1.0000
  C   C22       1.0  0.48770  0.07479  0.68438  1.0000
  C   C23       1.0  0.58362  0.73195  0.02199  1.0000
  C   C24       1.0  0.41638  0.26804  0.97801  1.0000
  C   C25       1.0  0.16533  0.30791  0.21754  1.0000
  C   C26       1.0  0.83466  0.69209  0.78246  1.0000
  C   C27       1.0  0.24335  0.45436  0.46014  1.0000
  C   C28       1.0  0.75665  0.54564  0.53986  1.0000
  N   N1        1.0  0.77193  0.95839  0.33671  1.0000
  N   N2        1.0  0.22807  0.04162  0.66328  1.0000
  N   N3        1.0  0.30712  0.75194  0.99036  1.0000
  N   N4        1.0  0.69288  0.24805  0.00965  1.0000
  N   N5        1.0  0.64492  0.78875  0.28960  1.0000
  N   N6        1.0  0.35507  0.21126  0.71040  1.0000
  N   N7        1.0  0.51108  0.65811  0.10930  1.0000
  N   N8        1.0  0.48893  0.34188  0.89070  1.0000
  O   O1        1.0  0.49362  0.45084  0.35062  1.0000
  O   O2        1.0  0.50637  0.54917  0.64938  1.0000
  O   O3        1.0  0.85850  0.41061  0.26014  1.0000
  O   O4        1.0  0.14150  0.58941  0.73987  1.0000
  O   O5        1.0  0.25173  0.68759  0.32024  1.0000
  O   O6        1.0  0.74826  0.31241  0.67976  1.0000
  O   O7        1.0  0.96824  0.58615  0.13917  1.0000
  O   O8        1.0  0.03176  0.41386  0.86083  1.0000
