data_image0
_chemical_formula_structural       Ag4H44C44N4O12
_chemical_formula_sum              "Ag4 H44 C44 N4 O12"
_cell_length_a       7.16393
_cell_length_b       11.7894
_cell_length_c       13.38
_cell_angle_alpha    93.1471
_cell_angle_beta     90
_cell_angle_gamma    107.688

_space_group_name_H-M_alt    "P 1"
_space_group_IT_number       1

loop_
  _space_group_symop_operation_xyz
  'x, y, z'

loop_
  _atom_site_type_symbol
  _atom_site_label
  _atom_site_symmetry_multiplicity
  _atom_site_fract_x
  _atom_site_fract_y
  _atom_site_fract_z
  _atom_site_occupancy
  Ag  Ag1       1.0  0.51537  0.43533  0.89956  1.0000
  Ag  Ag2       1.0  0.07974  0.56501  0.60022  1.0000
  Ag  Ag3       1.0  0.48463  0.56467  0.10044  1.0000
  Ag  Ag4       1.0  0.92027  0.43499  0.39978  1.0000
  H   H1        1.0  0.05244  0.19866  0.86352  1.0000
  H   H2        1.0  0.85426  0.80132  0.63660  1.0000
  H   H3        1.0  0.94755  0.80134  0.13648  1.0000
  H   H4        1.0  0.14573  0.19869  0.36339  1.0000
  H   H5        1.0  0.30368  0.13466  0.94783  1.0000
  H   H6        1.0  0.16916  0.86513  0.55223  1.0000
  H   H7        1.0  0.69632  0.86535  0.05217  1.0000
  H   H8        1.0  0.83084  0.13487  0.44777  1.0000
  H   H9        1.0  0.24795  0.34673  0.21366  1.0000
  H   H10       1.0  0.90101  0.65349  0.28622  1.0000
  H   H11       1.0  0.75205  0.65327  0.78634  1.0000
  H   H12       1.0  0.09900  0.34650  0.71378  1.0000
  H   H13       1.0  0.99041  0.40649  0.12977  1.0000
  H   H14       1.0  0.58369  0.59368  0.37021  1.0000
  H   H15       1.0  0.00959  0.59351  0.87023  1.0000
  H   H16       1.0  0.41630  0.40632  0.62978  1.0000
  H   H17       1.0  0.64589  0.16521  0.04788  1.0000
  H   H18       1.0  0.48049  0.83460  0.45228  1.0000
  H   H19       1.0  0.35411  0.83479  0.95213  1.0000
  H   H20       1.0  0.51951  0.16540  0.54772  1.0000
  H   H21       1.0  0.41930  0.05025  0.05038  1.0000
  H   H22       1.0  0.36915  0.94974  0.44966  1.0000
  H   H23       1.0  0.58070  0.94976  0.94962  1.0000
  H   H24       1.0  0.63084  0.05026  0.55035  1.0000
  H   H25       1.0  0.89938  0.10497  0.12002  1.0000
  H   H26       1.0  0.79416  0.89486  0.38027  1.0000
  H   H27       1.0  0.10062  0.89503  0.87998  1.0000
  H   H28       1.0  0.20583  0.10513  0.61973  1.0000
  H   H29       1.0  0.02017  0.99990  0.25013  1.0000
  H   H30       1.0  0.97983  0.00010  0.74987  1.0000
  H   H31       1.0  0.32775  0.99978  0.25007  1.0000
  H   H32       1.0  0.67226  0.00023  0.74994  1.0000
  H   H33       1.0  0.14980  0.43907  0.84232  1.0000
  H   H34       1.0  0.71076  0.56113  0.65769  1.0000
  H   H35       1.0  0.85020  0.56092  0.15768  1.0000
  H   H36       1.0  0.28923  0.43887  0.34231  1.0000
  H   H37       1.0  0.26956  0.55543  0.90585  1.0000
  H   H38       1.0  0.71431  0.44466  0.59427  1.0000
  H   H39       1.0  0.73043  0.44457  0.09415  1.0000
  H   H40       1.0  0.28569  0.55534  0.40573  1.0000
  H   H41       1.0  0.47593  0.24371  0.20846  1.0000
  H   H42       1.0  0.23221  0.75648  0.29145  1.0000
  H   H43       1.0  0.52407  0.75629  0.79154  1.0000
  H   H44       1.0  0.76779  0.24352  0.70855  1.0000
  C   C1        1.0  0.09390  0.23003  0.94095  1.0000
  C   C2        1.0  0.86392  0.76995  0.55911  1.0000
  C   C3        1.0  0.90610  0.76997  0.05905  1.0000
  C   C4        1.0  0.13608  0.23005  0.44089  1.0000
  C   C5        1.0  0.23715  0.19447  0.98856  1.0000
  C   C6        1.0  0.04271  0.80544  0.51146  1.0000
  C   C7        1.0  0.76286  0.80553  0.01144  1.0000
  C   C8        1.0  0.95729  0.19456  0.48854  1.0000
  C   C9        1.0  0.29451  0.23576  0.08887  1.0000
  C   C10       1.0  0.05862  0.76427  0.41110  1.0000
  C   C11       1.0  0.70549  0.76423  0.91113  1.0000
  C   C12       1.0  0.94138  0.23573  0.58890  1.0000
  C   C13       1.0  0.20434  0.31545  0.13678  1.0000
  C   C14       1.0  0.88866  0.68475  0.36313  1.0000
  C   C15       1.0  0.79566  0.68456  0.86323  1.0000
  C   C16       1.0  0.11135  0.31524  0.63687  1.0000
  C   C17       1.0  0.05739  0.34688  0.08916  1.0000
  C   C18       1.0  0.71031  0.65331  0.41080  1.0000
  C   C19       1.0  0.94261  0.65312  0.91084  1.0000
  C   C20       1.0  0.28969  0.34668  0.58919  1.0000
  C   C21       1.0  0.00020  0.30582  0.98977  1.0000
  C   C22       1.0  0.69426  0.69427  0.51025  1.0000
  C   C23       1.0  0.99979  0.69418  0.01023  1.0000
  C   C24       1.0  0.30574  0.30573  0.48974  1.0000
  C   C25       1.0  0.85567  0.34497  0.93297  1.0000
  C   C26       1.0  0.51058  0.65502  0.56711  1.0000
  C   C27       1.0  0.14433  0.65503  0.06704  1.0000
  C   C28       1.0  0.48943  0.34498  0.43289  1.0000
  C   C29       1.0  0.52706  0.11932  0.09743  1.0000
  C   C30       1.0  0.40769  0.88056  0.40271  1.0000
  C   C31       1.0  0.47294  0.88068  0.90257  1.0000
  C   C32       1.0  0.59231  0.11944  0.59729  1.0000
  C   C33       1.0  0.60539  0.05923  0.17677  1.0000
  C   C34       1.0  0.54613  0.94065  0.32343  1.0000
  C   C35       1.0  0.39461  0.94077  0.82324  1.0000
  C   C36       1.0  0.45387  0.05935  0.67657  1.0000
  C   C37       1.0  0.80068  0.05894  0.17707  1.0000
  C   C38       1.0  0.74169  0.94102  0.32325  1.0000
  C   C39       1.0  0.19932  0.94106  0.82293  1.0000
  C   C40       1.0  0.25830  0.05898  0.67675  1.0000
  C   C41       1.0  0.86796  0.00002  0.25019  1.0000
  C   C42       1.0  0.13204  0.99998  0.74981  1.0000
  C   C43       1.0  0.48016  0.99989  0.25008  1.0000
  C   C44       1.0  0.51984  0.00011  0.74993  1.0000
  N   N1        1.0  0.42778  0.19998  0.14077  1.0000
  N   N2        1.0  0.22773  0.79993  0.35930  1.0000
  N   N3        1.0  0.57222  0.80002  0.85923  1.0000
  N   N4        1.0  0.77227  0.20006  0.64070  1.0000
  O   O1        1.0  0.86865  0.34906  0.83897  1.0000
  O   O2        1.0  0.51946  0.65068  0.66108  1.0000
  O   O3        1.0  0.13135  0.65094  0.16103  1.0000
  O   O4        1.0  0.48055  0.34933  0.33892  1.0000
  O   O5        1.0  0.72102  0.37496  0.98351  1.0000
  O   O6        1.0  0.34591  0.62513  0.51661  1.0000
  O   O7        1.0  0.27898  0.62504  0.01649  1.0000
  O   O8        1.0  0.65410  0.37487  0.48339  1.0000
  O   O9        1.0  0.27941  0.50069  0.84686  1.0000
  O   O10       1.0  0.77892  0.49957  0.65316  1.0000
  O   O11       1.0  0.72058  0.49931  0.15314  1.0000
  O   O12       1.0  0.22108  0.50043  0.34685  1.0000
