data_image0
_chemical_formula_structural       Mn8H56C40O44
_chemical_formula_sum              "Mn8 H56 C40 O44"
_cell_length_a       6.41746
_cell_length_b       8.11642
_cell_length_c       26.1749
_cell_angle_alpha    90
_cell_angle_beta     90.0002
_cell_angle_gamma    89.8181

_space_group_name_H-M_alt    "P 1"
_space_group_IT_number       1

loop_
  _space_group_symop_operation_xyz
  'x, y, z'

loop_
  _atom_site_type_symbol
  _atom_site_label
  _atom_site_symmetry_multiplicity
  _atom_site_fract_x
  _atom_site_fract_y
  _atom_site_fract_z
  _atom_site_occupancy
  Mn  Mn1       1.0  0.57163  0.09812  0.79597  1.0000
  Mn  Mn2       1.0  0.92837  0.40188  0.29597  1.0000
  Mn  Mn3       1.0  0.42836  0.90188  0.20403  1.0000
  Mn  Mn4       1.0  0.07163  0.59812  0.70402  1.0000
  Mn  Mn5       1.0  0.54044  0.11241  0.95207  1.0000
  Mn  Mn6       1.0  0.95956  0.38758  0.45207  1.0000
  Mn  Mn7       1.0  0.45957  0.88756  0.04794  1.0000
  Mn  Mn8       1.0  0.04043  0.61243  0.54793  1.0000
  H   H1        1.0  0.64783  0.43236  0.78191  1.0000
  H   H2        1.0  0.85216  0.06765  0.28190  1.0000
  H   H3        1.0  0.35215  0.56765  0.21809  1.0000
  H   H4        1.0  0.14785  0.93235  0.71810  1.0000
  H   H5        1.0  0.39910  0.41554  0.77696  1.0000
  H   H6        1.0  0.10089  0.08445  0.27696  1.0000
  H   H7        1.0  0.60089  0.58445  0.22303  1.0000
  H   H8        1.0  0.89912  0.91555  0.72304  1.0000
  H   H9        1.0  0.25850  0.01195  0.85619  1.0000
  H   H10       1.0  0.24151  0.48805  0.35619  1.0000
  H   H11       1.0  0.74151  0.98804  0.14381  1.0000
  H   H12       1.0  0.75850  0.51197  0.64381  1.0000
  H   H13       1.0  0.13382  0.11641  0.81500  1.0000
  H   H14       1.0  0.36618  0.38359  0.31500  1.0000
  H   H15       1.0  0.86617  0.88358  0.18500  1.0000
  H   H16       1.0  0.63383  0.61642  0.68500  1.0000
  H   H17       1.0  0.73009  0.76778  0.81943  1.0000
  H   H18       1.0  0.76991  0.73222  0.31943  1.0000
  H   H19       1.0  0.26990  0.23221  0.18057  1.0000
  H   H20       1.0  0.23010  0.26779  0.68057  1.0000
  H   H21       1.0  0.68161  0.86616  0.87061  1.0000
  H   H22       1.0  0.81839  0.63384  0.37061  1.0000
  H   H23       1.0  0.31839  0.13384  0.12939  1.0000
  H   H24       1.0  0.18161  0.36617  0.62939  1.0000
  H   H25       1.0  0.02352  0.31299  0.92790  1.0000
  H   H26       1.0  0.47649  0.18700  0.42789  1.0000
  H   H27       1.0  0.97648  0.68699  0.07210  1.0000
  H   H28       1.0  0.52351  0.81301  0.57210  1.0000
  H   H29       1.0  0.69704  0.44877  0.94903  1.0000
  H   H30       1.0  0.80297  0.05123  0.44903  1.0000
  H   H31       1.0  0.30296  0.55121  0.05097  1.0000
  H   H32       1.0  0.19703  0.94879  0.55097  1.0000
  H   H33       1.0  0.69790  0.56122  0.89105  1.0000
  H   H34       1.0  0.80211  0.93878  0.39105  1.0000
  H   H35       1.0  0.30211  0.43878  0.10895  1.0000
  H   H36       1.0  0.19789  0.06123  0.60895  1.0000
  H   H37       1.0  0.00069  0.59531  0.98090  1.0000
  H   H38       1.0  0.49932  0.90469  0.48090  1.0000
  H   H39       1.0  0.99932  0.40467  0.01910  1.0000
  H   H40       1.0  0.50067  0.09533  0.51910  1.0000
  H   H41       1.0  0.00876  0.79120  0.88122  1.0000
  H   H42       1.0  0.49124  0.70879  0.38122  1.0000
  H   H43       1.0  0.99124  0.20878  0.11879  1.0000
  H   H44       1.0  0.50875  0.29122  0.61879  1.0000
  H   H45       1.0  0.34882  0.65132  0.86765  1.0000
  H   H46       1.0  0.15118  0.84868  0.36766  1.0000
  H   H47       1.0  0.65118  0.34867  0.13234  1.0000
  H   H48       1.0  0.84882  0.15134  0.63234  1.0000
  H   H49       1.0  0.31445  0.53700  0.92500  1.0000
  H   H50       1.0  0.18557  0.96300  0.42500  1.0000
  H   H51       1.0  0.68557  0.46298  0.07500  1.0000
  H   H52       1.0  0.81443  0.03702  0.57500  1.0000
  H   H53       1.0  0.23428  0.36131  0.85537  1.0000
  H   H54       1.0  0.26572  0.13868  0.35537  1.0000
  H   H55       1.0  0.76572  0.63867  0.14463  1.0000
  H   H56       1.0  0.73428  0.86133  0.64463  1.0000
  C   C1        1.0  0.94463  0.38070  0.89669  1.0000
  C   C2        1.0  0.55537  0.11930  0.39668  1.0000
  C   C3        1.0  0.05537  0.61929  0.10331  1.0000
  C   C4        1.0  0.44463  0.88072  0.60331  1.0000
  C   C5        1.0  0.79844  0.50880  0.92087  1.0000
  C   C6        1.0  0.70157  0.99120  0.42086  1.0000
  C   C7        1.0  0.20157  0.49119  0.07914  1.0000
  C   C8        1.0  0.29842  0.00882  0.57914  1.0000
  C   C9        1.0  0.91875  0.64682  0.94778  1.0000
  C   C10       1.0  0.58126  0.85318  0.44778  1.0000
  C   C11       1.0  0.08127  0.35316  0.05223  1.0000
  C   C12       1.0  0.41873  0.14684  0.55223  1.0000
  C   C13       1.0  0.08245  0.72692  0.91345  1.0000
  C   C14       1.0  0.41756  0.77307  0.41345  1.0000
  C   C15       1.0  0.91756  0.27306  0.08655  1.0000
  C   C16       1.0  0.58244  0.22694  0.58655  1.0000
  C   C17       1.0  0.23185  0.59433  0.89266  1.0000
  C   C18       1.0  0.26815  0.90567  0.39266  1.0000
  C   C19       1.0  0.76815  0.40566  0.10734  1.0000
  C   C20       1.0  0.73185  0.09435  0.60734  1.0000
  C   C21       1.0  0.11716  0.45678  0.86352  1.0000
  C   C22       1.0  0.38284  0.04322  0.36351  1.0000
  C   C23       1.0  0.88284  0.54321  0.13648  1.0000
  C   C24       1.0  0.61716  0.95680  0.63648  1.0000
  C   C25       1.0  0.81870  0.25517  0.86714  1.0000
  C   C26       1.0  0.68130  0.24483  0.36714  1.0000
  C   C27       1.0  0.18130  0.74482  0.13286  1.0000
  C   C28       1.0  0.31870  0.75518  0.63286  1.0000
  C   C29       1.0  0.76082  0.76907  0.96820  1.0000
  C   C30       1.0  0.73919  0.73093  0.46820  1.0000
  C   C31       1.0  0.23919  0.23091  0.03180  1.0000
  C   C32       1.0  0.26080  0.26909  0.53181  1.0000
  C   C33       1.0  0.20997  0.85254  0.94300  1.0000
  C   C34       1.0  0.29004  0.64746  0.44300  1.0000
  C   C35       1.0  0.79005  0.14744  0.05700  1.0000
  C   C36       1.0  0.70995  0.35256  0.55700  1.0000
  C   C37       1.0  0.03926  0.51788  0.81167  1.0000
  C   C38       1.0  0.46073  0.98211  0.31167  1.0000
  C   C39       1.0  0.96072  0.48211  0.18833  1.0000
  C   C40       1.0  0.53928  0.01790  0.68833  1.0000
  O   O1        1.0  0.88255  0.19910  0.82463  1.0000
  O   O2        1.0  0.61745  0.30089  0.32463  1.0000
  O   O3        1.0  0.11745  0.80089  0.17537  1.0000
  O   O4        1.0  0.38255  0.69911  0.67537  1.0000
  O   O5        1.0  0.63932  0.21038  0.88440  1.0000
  O   O6        1.0  0.86068  0.28962  0.38440  1.0000
  O   O7        1.0  0.36068  0.78961  0.11560  1.0000
  O   O8        1.0  0.13932  0.71039  0.61560  1.0000
  O   O9        1.0  0.68645  0.74314  0.01243  1.0000
  O   O10       1.0  0.81356  0.75686  0.51242  1.0000
  O   O11       1.0  0.31355  0.25683  0.98758  1.0000
  O   O12       1.0  0.18644  0.24316  0.48758  1.0000
  O   O13       1.0  0.70612  0.88798  0.93890  1.0000
  O   O14       1.0  0.79389  0.61201  0.43890  1.0000
  O   O15       1.0  0.29390  0.11200  0.06110  1.0000
  O   O16       1.0  0.20610  0.38800  0.56110  1.0000
  O   O17       1.0  0.24403  0.82622  0.99011  1.0000
  O   O18       1.0  0.25597  0.67379  0.49011  1.0000
  O   O19       1.0  0.75597  0.17377  0.00989  1.0000
  O   O20       1.0  0.74402  0.32623  0.50989  1.0000
  O   O21       1.0  0.28386  0.97552  0.91841  1.0000
  O   O22       1.0  0.21615  0.52447  0.41841  1.0000
  O   O23       1.0  0.71615  0.02446  0.08159  1.0000
  O   O24       1.0  0.78384  0.47555  0.58158  1.0000
  O   O25       1.0  0.85691  0.57363  0.80542  1.0000
  O   O26       1.0  0.64308  0.92636  0.30541  1.0000
  O   O27       1.0  0.14308  0.42636  0.19459  1.0000
  O   O28       1.0  0.35693  0.07365  0.69459  1.0000
  O   O29       1.0  0.17255  0.51035  0.77478  1.0000
  O   O30       1.0  0.32743  0.98963  0.27478  1.0000
  O   O31       1.0  0.82743  0.48964  0.22522  1.0000
  O   O32       1.0  0.67258  0.01037  0.72522  1.0000
  O   O33       1.0  0.53403  0.35321  0.77617  1.0000
  O   O34       1.0  0.96596  0.14679  0.27617  1.0000
  O   O35       1.0  0.46595  0.64679  0.22383  1.0000
  O   O36       1.0  0.03405  0.85321  0.72383  1.0000
  O   O37       1.0  0.26341  0.05196  0.82002  1.0000
  O   O38       1.0  0.23659  0.44805  0.32002  1.0000
  O   O39       1.0  0.73659  0.94804  0.17998  1.0000
  O   O40       1.0  0.76341  0.55196  0.67998  1.0000
  O   O41       1.0  0.65090  0.86211  0.83354  1.0000
  O   O42       1.0  0.84910  0.63790  0.33354  1.0000
  O   O43       1.0  0.34910  0.13789  0.16646  1.0000
  O   O44       1.0  0.15090  0.36211  0.66646  1.0000
