data_image0
_chemical_formula_structural       Mn8H48C40O40
_chemical_formula_sum              "Mn8 H48 C40 O40"
_cell_length_a       7.41223
_cell_length_b       11.4018
_cell_length_c       14.6486
_cell_angle_alpha    90
_cell_angle_beta     90
_cell_angle_gamma    90

_space_group_name_H-M_alt    "P 1"
_space_group_IT_number       1

loop_
  _space_group_symop_operation_xyz
  'x, y, z'

loop_
  _atom_site_type_symbol
  _atom_site_label
  _atom_site_symmetry_multiplicity
  _atom_site_fract_x
  _atom_site_fract_y
  _atom_site_fract_z
  _atom_site_occupancy
  Mn  Mn1       1.0  0.94379  0.69933  0.55919  1.0000
  Mn  Mn2       1.0  0.55621  0.19933  0.44081  1.0000
  Mn  Mn3       1.0  0.05621  0.30067  0.05919  1.0000
  Mn  Mn4       1.0  0.44379  0.80067  0.94081  1.0000
  Mn  Mn5       1.0  0.05621  0.30068  0.44081  1.0000
  Mn  Mn6       1.0  0.44378  0.80067  0.55919  1.0000
  Mn  Mn7       1.0  0.94379  0.69933  0.94081  1.0000
  Mn  Mn8       1.0  0.55621  0.19933  0.05919  1.0000
  H   H1        1.0  0.07046  0.50278  0.62624  1.0000
  H   H2        1.0  0.42955  0.00278  0.37377  1.0000
  H   H3        1.0  0.92954  0.49722  0.12624  1.0000
  H   H4        1.0  0.57045  0.99722  0.87376  1.0000
  H   H5        1.0  0.92954  0.49722  0.37376  1.0000
  H   H6        1.0  0.57045  0.99722  0.62623  1.0000
  H   H7        1.0  0.07046  0.50278  0.87376  1.0000
  H   H8        1.0  0.42955  0.00278  0.12623  1.0000
  H   H9        1.0  0.23034  0.59752  0.64176  1.0000
  H   H10       1.0  0.26967  0.09752  0.35824  1.0000
  H   H11       1.0  0.76966  0.40248  0.14177  1.0000
  H   H12       1.0  0.73033  0.90248  0.85824  1.0000
  H   H13       1.0  0.76966  0.40248  0.35824  1.0000
  H   H14       1.0  0.73033  0.90248  0.64176  1.0000
  H   H15       1.0  0.23034  0.59752  0.85824  1.0000
  H   H16       1.0  0.26967  0.09752  0.14176  1.0000
  H   H17       1.0  0.13892  0.51556  0.25000  1.0000
  H   H18       1.0  0.36108  0.01556  0.75000  1.0000
  H   H19       1.0  0.86108  0.48444  0.75000  1.0000
  H   H20       1.0  0.63892  0.98444  0.25000  1.0000
  H   H21       1.0  0.04860  0.65746  0.25000  1.0000
  H   H22       1.0  0.45139  0.15746  0.75000  1.0000
  H   H23       1.0  0.95140  0.34254  0.75000  1.0000
  H   H24       1.0  0.54860  0.84254  0.25000  1.0000
  H   H25       1.0  0.33895  0.73060  0.32507  1.0000
  H   H26       1.0  0.16105  0.23060  0.67493  1.0000
  H   H27       1.0  0.66105  0.26940  0.82507  1.0000
  H   H28       1.0  0.83895  0.76940  0.17493  1.0000
  H   H29       1.0  0.66105  0.26940  0.67493  1.0000
  H   H30       1.0  0.83895  0.76940  0.32507  1.0000
  H   H31       1.0  0.33895  0.73060  0.17493  1.0000
  H   H32       1.0  0.16105  0.23060  0.82507  1.0000
  H   H33       1.0  0.54518  0.59734  0.39439  1.0000
  H   H34       1.0  0.95481  0.09734  0.60562  1.0000
  H   H35       1.0  0.45482  0.40266  0.89438  1.0000
  H   H36       1.0  0.04518  0.90266  0.10562  1.0000
  H   H37       1.0  0.45482  0.40266  0.60562  1.0000
  H   H38       1.0  0.04518  0.90266  0.39438  1.0000
  H   H39       1.0  0.54519  0.59734  0.10562  1.0000
  H   H40       1.0  0.95482  0.09734  0.89438  1.0000
  H   H41       1.0  0.63282  0.65715  0.25000  1.0000
  H   H42       1.0  0.86717  0.15715  0.75000  1.0000
  H   H43       1.0  0.36718  0.34286  0.75000  1.0000
  H   H44       1.0  0.13282  0.84285  0.25000  1.0000
  H   H45       1.0  0.67296  0.50563  0.25000  1.0000
  H   H46       1.0  0.82704  0.00563  0.75000  1.0000
  H   H47       1.0  0.32705  0.49438  0.75000  1.0000
  H   H48       1.0  0.17296  0.99437  0.25000  1.0000
  C   C1        1.0  0.17613  0.60878  0.25000  1.0000
  C   C2        1.0  0.32388  0.10878  0.75000  1.0000
  C   C3        1.0  0.82387  0.39122  0.75000  1.0000
  C   C4        1.0  0.67612  0.89122  0.25000  1.0000
  C   C5        1.0  0.28683  0.64038  0.33392  1.0000
  C   C6        1.0  0.21317  0.14038  0.66608  1.0000
  C   C7        1.0  0.71317  0.35963  0.83392  1.0000
  C   C8        1.0  0.78684  0.85962  0.16608  1.0000
  C   C9        1.0  0.71317  0.35962  0.66608  1.0000
  C   C10       1.0  0.78684  0.85962  0.33392  1.0000
  C   C11       1.0  0.28684  0.64037  0.16608  1.0000
  C   C12       1.0  0.21316  0.14038  0.83392  1.0000
  C   C13       1.0  0.45669  0.56272  0.33989  1.0000
  C   C14       1.0  0.04330  0.06272  0.66011  1.0000
  C   C15       1.0  0.54331  0.43729  0.83989  1.0000
  C   C16       1.0  0.95670  0.93728  0.16011  1.0000
  C   C17       1.0  0.54331  0.43728  0.66011  1.0000
  C   C18       1.0  0.95670  0.93728  0.33989  1.0000
  C   C19       1.0  0.45670  0.56271  0.16011  1.0000
  C   C20       1.0  0.04330  0.06272  0.83989  1.0000
  C   C21       1.0  0.56551  0.57137  0.25000  1.0000
  C   C22       1.0  0.93449  0.07138  0.75000  1.0000
  C   C23       1.0  0.43449  0.42863  0.75000  1.0000
  C   C24       1.0  0.06551  0.92863  0.25000  1.0000
  C   C25       1.0  0.17348  0.65172  0.41924  1.0000
  C   C26       1.0  0.32652  0.15173  0.58075  1.0000
  C   C27       1.0  0.82652  0.34828  0.91925  1.0000
  C   C28       1.0  0.67347  0.84827  0.08076  1.0000
  C   C29       1.0  0.82651  0.34827  0.58076  1.0000
  C   C30       1.0  0.67347  0.84827  0.41924  1.0000
  C   C31       1.0  0.17349  0.65172  0.08075  1.0000
  C   C32       1.0  0.32652  0.15173  0.91924  1.0000
  C   C33       1.0  0.41505  0.43731  0.37151  1.0000
  C   C34       1.0  0.08495  0.93730  0.62849  1.0000
  C   C35       1.0  0.58495  0.56269  0.87151  1.0000
  C   C36       1.0  0.91504  0.06270  0.12848  1.0000
  C   C37       1.0  0.58496  0.56269  0.62849  1.0000
  C   C38       1.0  0.91504  0.06270  0.37152  1.0000
  C   C39       1.0  0.41506  0.43730  0.12849  1.0000
  C   C40       1.0  0.08496  0.93730  0.87151  1.0000
  O   O1        1.0  0.00596  0.62477  0.41960  1.0000
  O   O2        1.0  0.49402  0.12478  0.58039  1.0000
  O   O3        1.0  0.99403  0.37523  0.91961  1.0000
  O   O4        1.0  0.50598  0.87522  0.08039  1.0000
  O   O5        1.0  0.99404  0.37523  0.58040  1.0000
  O   O6        1.0  0.50598  0.87522  0.41960  1.0000
  O   O7        1.0  0.00597  0.62477  0.08039  1.0000
  O   O8        1.0  0.49402  0.12478  0.91960  1.0000
  O   O9        1.0  0.24027  0.70165  0.48953  1.0000
  O   O10       1.0  0.25972  0.20166  0.51046  1.0000
  O   O11       1.0  0.75973  0.29835  0.98954  1.0000
  O   O12       1.0  0.74028  0.79834  0.01046  1.0000
  O   O13       1.0  0.75973  0.29835  0.51047  1.0000
  O   O14       1.0  0.74028  0.79834  0.48953  1.0000
  O   O15       1.0  0.24028  0.70165  0.01046  1.0000
  O   O16       1.0  0.25972  0.20166  0.98953  1.0000
  O   O17       1.0  0.26291  0.41952  0.40787  1.0000
  O   O18       1.0  0.23707  0.91952  0.59214  1.0000
  O   O19       1.0  0.73708  0.58048  0.90787  1.0000
  O   O20       1.0  0.76293  0.08047  0.09214  1.0000
  O   O21       1.0  0.73709  0.58048  0.59213  1.0000
  O   O22       1.0  0.76293  0.08048  0.40787  1.0000
  O   O23       1.0  0.26292  0.41952  0.09213  1.0000
  O   O24       1.0  0.23707  0.91953  0.90786  1.0000
  O   O25       1.0  0.53969  0.36017  0.36431  1.0000
  O   O26       1.0  0.96030  0.86017  0.63569  1.0000
  O   O27       1.0  0.46030  0.63984  0.86431  1.0000
  O   O28       1.0  0.03970  0.13983  0.13569  1.0000
  O   O29       1.0  0.46031  0.63984  0.63569  1.0000
  O   O30       1.0  0.03970  0.13983  0.36431  1.0000
  O   O31       1.0  0.53969  0.36017  0.13570  1.0000
  O   O32       1.0  0.96030  0.86017  0.86431  1.0000
  O   O33       1.0  0.09794  0.58526  0.64399  1.0000
  O   O34       1.0  0.40206  0.08526  0.35602  1.0000
  O   O35       1.0  0.90207  0.41474  0.14399  1.0000
  O   O36       1.0  0.59794  0.91474  0.85602  1.0000
  O   O37       1.0  0.90206  0.41474  0.35602  1.0000
  O   O38       1.0  0.59794  0.91473  0.64398  1.0000
  O   O39       1.0  0.09794  0.58526  0.85601  1.0000
  O   O40       1.0  0.40205  0.08527  0.14398  1.0000
