data_image0
_chemical_formula_structural       Mn4H40C20O28
_chemical_formula_sum              "Mn4 H40 C20 O28"
_cell_length_a       7.01799
_cell_length_b       9.53642
_cell_length_c       12.2103
_cell_angle_alpha    102.18
_cell_angle_beta     95.2179
_cell_angle_gamma    94.5742

_space_group_name_H-M_alt    "P 1"
_space_group_IT_number       1

loop_
  _space_group_symop_operation_xyz
  'x, y, z'

loop_
  _atom_site_type_symbol
  _atom_site_label
  _atom_site_symmetry_multiplicity
  _atom_site_fract_x
  _atom_site_fract_y
  _atom_site_fract_z
  _atom_site_occupancy
  Mn  Mn1       1.0  0.54553  0.21411  0.41674  1.0000
  Mn  Mn2       1.0  0.45424  0.78573  0.58324  1.0000
  Mn  Mn3       1.0  0.18015  0.26064  0.21581  1.0000
  Mn  Mn4       1.0  0.81951  0.73903  0.78424  1.0000
  H   H1        1.0  0.70250  0.16492  0.61662  1.0000
  H   H2        1.0  0.29746  0.83505  0.38334  1.0000
  H   H3        1.0  0.88136  0.15734  0.53740  1.0000
  H   H4        1.0  0.11858  0.84267  0.46254  1.0000
  H   H5        1.0  0.17526  0.12121  0.40086  1.0000
  H   H6        1.0  0.82511  0.87916  0.59921  1.0000
  H   H7        1.0  0.28214  0.01610  0.30063  1.0000
  H   H8        1.0  0.71826  0.98420  0.69936  1.0000
  H   H9        1.0  0.98742  0.42073  0.38319  1.0000
  H   H10       1.0  0.01245  0.57930  0.61682  1.0000
  H   H11       1.0  0.20548  0.46157  0.43463  1.0000
  H   H12       1.0  0.79446  0.53829  0.56530  1.0000
  H   H13       1.0  0.42381  0.13847  0.05663  1.0000
  H   H14       1.0  0.57608  0.86151  0.94342  1.0000
  H   H15       1.0  0.29267  0.00278  0.07059  1.0000
  H   H16       1.0  0.70730  0.99710  0.92930  1.0000
  H   H17       1.0  0.15751  0.48478  0.09119  1.0000
  H   H18       1.0  0.84251  0.51510  0.90895  1.0000
  H   H19       1.0  0.98015  0.36550  0.04521  1.0000
  H   H20       1.0  0.01988  0.63441  0.95487  1.0000
  H   H21       1.0  0.79711  0.17588  0.11298  1.0000
  H   H22       1.0  0.20291  0.82398  0.88696  1.0000
  H   H23       1.0  0.81088  0.11662  0.22689  1.0000
  H   H24       1.0  0.18890  0.88324  0.77307  1.0000
  H   H25       1.0  0.77801  0.47618  0.18036  1.0000
  H   H26       1.0  0.22198  0.52385  0.81962  1.0000
  H   H27       1.0  0.97226  0.63376  0.32691  1.0000
  H   H28       1.0  0.02775  0.36628  0.67309  1.0000
  H   H29       1.0  0.94507  0.87687  0.28084  1.0000
  H   H30       1.0  0.05495  0.12312  0.71912  1.0000
  H   H31       1.0  0.94916  0.73144  0.16485  1.0000
  H   H32       1.0  0.05077  0.26855  0.83509  1.0000
  H   H33       1.0  0.72219  0.88006  0.11214  1.0000
  H   H34       1.0  0.27775  0.11991  0.88783  1.0000
  H   H35       1.0  0.63611  0.63093  0.04098  1.0000
  H   H36       1.0  0.36386  0.36904  0.95906  1.0000
  H   H37       1.0  0.43950  0.47221  0.12929  1.0000
  H   H38       1.0  0.56044  0.52781  0.87081  1.0000
  H   H39       1.0  0.41418  0.61532  0.24324  1.0000
  H   H40       1.0  0.58586  0.38473  0.75685  1.0000
  C   C1        1.0  0.69448  0.53680  0.24380  1.0000
  C   C2        1.0  0.30555  0.46322  0.75622  1.0000
  C   C3        1.0  0.83034  0.66926  0.30659  1.0000
  C   C4        1.0  0.16968  0.33077  0.69340  1.0000
  C   C5        1.0  0.86164  0.77818  0.23095  1.0000
  C   C6        1.0  0.13835  0.22182  0.76901  1.0000
  C   C7        1.0  0.67551  0.81747  0.17280  1.0000
  C   C8        1.0  0.32444  0.18253  0.82720  1.0000
  C   C9        1.0  0.55078  0.68046  0.10799  1.0000
  C   C10       1.0  0.44918  0.31953  0.89204  1.0000
  C   C11       1.0  0.51163  0.57297  0.18182  1.0000
  C   C12       1.0  0.48835  0.42704  0.81823  1.0000
  C   C13       1.0  0.64326  0.43070  0.31577  1.0000
  C   C14       1.0  0.35679  0.56930  0.68425  1.0000
  C   C15       1.0  0.77071  0.74315  0.41944  1.0000
  C   C16       1.0  0.22931  0.25698  0.58052  1.0000
  C   C17       1.0  0.56376  0.91798  0.25129  1.0000
  C   C18       1.0  0.43622  0.08208  0.74867  1.0000
  C   C19       1.0  0.36598  0.71279  0.04579  1.0000
  C   C20       1.0  0.63399  0.28716  0.95423  1.0000
  O   O1        1.0  0.48669  0.34681  0.28905  1.0000
  O   O2        1.0  0.51344  0.65309  0.71088  1.0000
  O   O3        1.0  0.75702  0.41561  0.39996  1.0000
  O   O4        1.0  0.24295  0.58446  0.60010  1.0000
  O   O5        1.0  0.60519  0.70676  0.44564  1.0000
  O   O6        1.0  0.39482  0.29347  0.55435  1.0000
  O   O7        1.0  0.89376  0.83897  0.48278  1.0000
  O   O8        1.0  0.10632  0.16120  0.51710  1.0000
  O   O9        1.0  0.64983  0.04262  0.29954  1.0000
  O   O10       1.0  0.35020  0.95742  0.70042  1.0000
  O   O11       1.0  0.39051  0.87770  0.26171  1.0000
  O   O12       1.0  0.60937  0.12248  0.73819  1.0000
  O   O13       1.0  0.37524  0.81706  0.99408  1.0000
  O   O14       1.0  0.62472  0.18288  0.00593  1.0000
  O   O15       1.0  0.21123  0.63304  0.04255  1.0000
  O   O16       1.0  0.78878  0.36690  0.95749  1.0000
  O   O17       1.0  0.74018  0.16726  0.54129  1.0000
  O   O18       1.0  0.25977  0.83274  0.45868  1.0000
  O   O19       1.0  0.24533  0.11679  0.32992  1.0000
  O   O20       1.0  0.75553  0.88366  0.67026  1.0000
  O   O21       1.0  0.12323  0.42029  0.36425  1.0000
  O   O22       1.0  0.87661  0.57965  0.63570  1.0000
  O   O23       1.0  0.30249  0.10855  0.08723  1.0000
  O   O24       1.0  0.69739  0.89134  0.91275  1.0000
  O   O25       1.0  0.10085  0.38858  0.09940  1.0000
  O   O26       1.0  0.89914  0.61131  0.90072  1.0000
  O   O27       1.0  0.88751  0.16550  0.17827  1.0000
  O   O28       1.0  0.11245  0.83420  0.82166  1.0000
