data_image0
_chemical_formula_structural       Cd2Cu2H20C20N8Cl4O12
_chemical_formula_sum              "Cd2 Cu2 H20 C20 N8 Cl4 O12"
_cell_length_a       7.6283
_cell_length_b       10.1855
_cell_length_c       11.0159
_cell_angle_alpha    68.3389
_cell_angle_beta     88.7994
_cell_angle_gamma    89.3653

_space_group_name_H-M_alt    "P 1"
_space_group_IT_number       1

loop_
  _space_group_symop_operation_xyz
  'x, y, z'

loop_
  _atom_site_type_symbol
  _atom_site_label
  _atom_site_symmetry_multiplicity
  _atom_site_fract_x
  _atom_site_fract_y
  _atom_site_fract_z
  _atom_site_occupancy
  Cd  Cd1       1.0  0.89128  0.84898  0.95729  1.0000
  Cd  Cd2       1.0  0.10871  0.15102  0.04272  1.0000
  Cu  Cu1       1.0  0.39431  0.33840  0.44517  1.0000
  Cu  Cu2       1.0  0.60571  0.66161  0.55482  1.0000
  H   H1        1.0  0.98652  0.73597  0.25780  1.0000
  H   H2        1.0  0.01346  0.26402  0.74222  1.0000
  H   H3        1.0  0.19522  0.59835  0.97266  1.0000
  H   H4        1.0  0.80478  0.40166  0.02734  1.0000
  H   H5        1.0  0.38388  0.41974  0.14122  1.0000
  H   H6        1.0  0.61611  0.58026  0.85879  1.0000
  H   H7        1.0  0.83320  0.96899  0.64709  1.0000
  H   H8        1.0  0.16680  0.03102  0.35290  1.0000
  H   H9        1.0  0.58313  0.09994  0.92256  1.0000
  H   H10       1.0  0.41682  0.90002  0.07745  1.0000
  H   H11       1.0  0.39907  0.27131  0.74633  1.0000
  H   H12       1.0  0.60091  0.72867  0.25368  1.0000
  H   H13       1.0  0.05138  0.24094  0.49002  1.0000
  H   H14       1.0  0.94864  0.75907  0.50997  1.0000
  H   H15       1.0  0.17087  0.10119  0.51676  1.0000
  H   H16       1.0  0.82915  0.89881  0.48323  1.0000
  H   H17       1.0  0.11233  0.82537  0.74650  1.0000
  H   H18       1.0  0.88768  0.17464  0.25350  1.0000
  H   H19       1.0  0.94029  0.76588  0.71568  1.0000
  H   H20       1.0  0.05972  0.23412  0.28431  1.0000
  C   C1        1.0  0.18216  0.57011  0.32491  1.0000
  C   C2        1.0  0.81785  0.42990  0.67509  1.0000
  C   C3        1.0  0.07606  0.66551  0.23237  1.0000
  C   C4        1.0  0.92394  0.33447  0.76765  1.0000
  C   C5        1.0  0.19138  0.58992  0.07424  1.0000
  C   C6        1.0  0.80862  0.41008  0.92577  1.0000
  C   C7        1.0  0.29758  0.49165  0.16716  1.0000
  C   C8        1.0  0.70242  0.50835  0.83284  1.0000
  C   C9        1.0  0.18955  0.55585  0.46565  1.0000
  C   C10       1.0  0.81046  0.44416  0.53436  1.0000
  C   C11       1.0  0.62961  0.12527  0.57210  1.0000
  C   C12       1.0  0.37039  0.87473  0.42790  1.0000
  C   C13       1.0  0.73293  0.03367  0.66944  1.0000
  C   C14       1.0  0.26706  0.96633  0.33056  1.0000
  C   C15       1.0  0.59540  0.10585  0.82189  1.0000
  C   C16       1.0  0.40458  0.89413  0.17811  1.0000
  C   C17       1.0  0.49206  0.20084  0.72442  1.0000
  C   C18       1.0  0.50791  0.79915  0.27558  1.0000
  C   C19       1.0  0.64398  0.14527  0.42995  1.0000
  C   C20       1.0  0.35605  0.85474  0.57005  1.0000
  N   N1        1.0  0.29038  0.48296  0.29105  1.0000
  N   N2        1.0  0.70962  0.51705  0.70895  1.0000
  N   N3        1.0  0.08173  0.67511  0.10729  1.0000
  N   N4        1.0  0.91826  0.32489  0.89271  1.0000
  N   N5        1.0  0.51138  0.20926  0.60100  1.0000
  N   N6        1.0  0.48863  0.79074  0.39900  1.0000
  N   N7        1.0  0.71535  0.02406  0.79391  1.0000
  N   N8        1.0  0.28463  0.97593  0.20610  1.0000
  Cl  Cl1       1.0  0.83496  0.98071  0.12315  1.0000
  Cl  Cl2       1.0  0.16503  0.01928  0.87686  1.0000
  Cl  Cl3       1.0  0.63240  0.68724  0.03164  1.0000
  Cl  Cl4       1.0  0.36759  0.31276  0.96837  1.0000
  O   O1        1.0  0.28673  0.45352  0.53822  1.0000
  O   O2        1.0  0.71331  0.54649  0.46178  1.0000
  O   O3        1.0  0.10941  0.64085  0.50435  1.0000
  O   O4        1.0  0.89061  0.35914  0.49565  1.0000
  O   O5        1.0  0.54277  0.24027  0.35384  1.0000
  O   O6        1.0  0.45726  0.75975  0.64616  1.0000
  O   O7        1.0  0.75055  0.07110  0.39395  1.0000
  O   O8        1.0  0.24946  0.92892  0.60605  1.0000
  O   O9        1.0  0.14748  0.19875  0.45452  1.0000
  O   O10       1.0  0.85254  0.80126  0.54547  1.0000
  O   O11       1.0  0.00835  0.76849  0.79009  1.0000
  O   O12       1.0  0.99166  0.23151  0.20991  1.0000
