data_image0
_chemical_formula_structural       Cd4Cu2H12C20N8Cl8O8
_chemical_formula_sum              "Cd4 Cu2 H12 C20 N8 Cl8 O8"
_cell_length_a       8.83686
_cell_length_b       8.83687
_cell_length_c       13.5323
_cell_angle_alpha    80.3194
_cell_angle_beta     80.3194
_cell_angle_gamma    61.8358

_space_group_name_H-M_alt    "P 1"
_space_group_IT_number       1

loop_
  _space_group_symop_operation_xyz
  'x, y, z'

loop_
  _atom_site_type_symbol
  _atom_site_label
  _atom_site_symmetry_multiplicity
  _atom_site_fract_x
  _atom_site_fract_y
  _atom_site_fract_z
  _atom_site_occupancy
  Cd  Cd1       1.0  0.13830  0.96567  0.36613  1.0000
  Cd  Cd2       1.0  0.96568  0.13830  0.86613  1.0000
  Cd  Cd3       1.0  0.86170  0.03433  0.63387  1.0000
  Cd  Cd4       1.0  0.03433  0.86170  0.13387  1.0000
  Cu  Cu1       1.0  0.00000  0.50000  0.50000  1.0000
  Cu  Cu2       1.0  0.50000  1.00000  0.00000  1.0000
  H   H1        1.0  0.52519  0.85182  0.28890  1.0000
  H   H2        1.0  0.85182  0.52519  0.78890  1.0000
  H   H3        1.0  0.47481  0.14818  0.71110  1.0000
  H   H4        1.0  0.14817  0.47481  0.21110  1.0000
  H   H5        1.0  0.33391  0.78846  0.58869  1.0000
  H   H6        1.0  0.78846  0.33390  0.08869  1.0000
  H   H7        1.0  0.66609  0.21154  0.41130  1.0000
  H   H8        1.0  0.21154  0.66609  0.91131  1.0000
  H   H9        1.0  0.64243  0.60773  0.63580  1.0000
  H   H10       1.0  0.60773  0.64243  0.13580  1.0000
  H   H11       1.0  0.35757  0.39227  0.36420  1.0000
  H   H12       1.0  0.39227  0.35757  0.86420  1.0000
  C   C1        1.0  0.71705  0.70317  0.39289  1.0000
  C   C2        1.0  0.70317  0.71705  0.89289  1.0000
  C   C3        1.0  0.28295  0.29683  0.60711  1.0000
  C   C4        1.0  0.29683  0.28295  0.10711  1.0000
  C   C5        1.0  0.54938  0.79969  0.36689  1.0000
  C   C6        1.0  0.79969  0.54938  0.86689  1.0000
  C   C7        1.0  0.45061  0.20031  0.63310  1.0000
  C   C8        1.0  0.20030  0.45062  0.13311  1.0000
  C   C9        1.0  0.44503  0.76314  0.53236  1.0000
  C   C10       1.0  0.76313  0.44503  0.03236  1.0000
  C   C11       1.0  0.55497  0.23687  0.46764  1.0000
  C   C12       1.0  0.23686  0.55498  0.96764  1.0000
  C   C13       1.0  0.61394  0.66514  0.55911  1.0000
  C   C14       1.0  0.66514  0.61394  0.05911  1.0000
  C   C15       1.0  0.38606  0.33486  0.44089  1.0000
  C   C16       1.0  0.33486  0.38606  0.94089  1.0000
  C   C17       1.0  0.87368  0.66466  0.31817  1.0000
  C   C18       1.0  0.66467  0.87368  0.81817  1.0000
  C   C19       1.0  0.12632  0.33534  0.68183  1.0000
  C   C20       1.0  0.33533  0.12632  0.18183  1.0000
  N   N1        1.0  0.74776  0.63558  0.48857  1.0000
  N   N2        1.0  0.63558  0.74776  0.98857  1.0000
  N   N3        1.0  0.25224  0.36443  0.51143  1.0000
  N   N4        1.0  0.36442  0.25225  0.01143  1.0000
  N   N5        1.0  0.41409  0.82842  0.43670  1.0000
  N   N6        1.0  0.82841  0.41409  0.93670  1.0000
  N   N7        1.0  0.58591  0.17159  0.56330  1.0000
  N   N8        1.0  0.17158  0.58591  0.06330  1.0000
  Cl  Cl1       1.0  0.01779  0.79625  0.51044  1.0000
  Cl  Cl2       1.0  0.79625  0.01779  0.01043  1.0000
  Cl  Cl3       1.0  0.98221  0.20375  0.48956  1.0000
  Cl  Cl4       1.0  0.20375  0.98222  0.98957  1.0000
  Cl  Cl5       1.0  0.28810  0.71190  0.25000  1.0000
  Cl  Cl6       1.0  0.71190  0.28810  0.75000  1.0000
  Cl  Cl7       1.0  0.88787  0.11213  0.25000  1.0000
  Cl  Cl8       1.0  0.11213  0.88787  0.75000  1.0000
  O   O1        1.0  0.01777  0.55679  0.35227  1.0000
  O   O2        1.0  0.55679  0.01777  0.85227  1.0000
  O   O3        1.0  0.98223  0.44321  0.64773  1.0000
  O   O4        1.0  0.44321  0.98223  0.14773  1.0000
  O   O5        1.0  0.85506  0.73662  0.22969  1.0000
  O   O6        1.0  0.73662  0.85506  0.72969  1.0000
  O   O7        1.0  0.14494  0.26338  0.77031  1.0000
  O   O8        1.0  0.26338  0.14494  0.27031  1.0000
