data_image0
_chemical_formula_structural       Cd4Cu2H24C20N8Cl8O14
_chemical_formula_sum              "Cd4 Cu2 H24 C20 N8 Cl8 O14"
_cell_length_a       6.50757
_cell_length_b       9.81833
_cell_length_c       17.7869
_cell_angle_alpha    75.0038
_cell_angle_beta     90.3485
_cell_angle_gamma    74.1437

_space_group_name_H-M_alt    "P 1"
_space_group_IT_number       1

loop_
  _space_group_symop_operation_xyz
  'x, y, z'

loop_
  _atom_site_type_symbol
  _atom_site_label
  _atom_site_symmetry_multiplicity
  _atom_site_fract_x
  _atom_site_fract_y
  _atom_site_fract_z
  _atom_site_occupancy
  Cd  Cd1       1.0  0.78383  0.40950  0.99051  1.0000
  Cd  Cd2       1.0  0.21618  0.59049  0.00949  1.0000
  Cd  Cd3       1.0  0.21009  0.59055  0.50306  1.0000
  Cd  Cd4       1.0  0.78992  0.40946  0.49693  1.0000
  Cu  Cu1       1.0  0.52157  0.98896  0.75039  1.0000
  Cu  Cu2       1.0  0.47843  0.01104  0.24961  1.0000
  H   H1        1.0  0.46149  0.21856  0.96803  1.0000
  H   H2        1.0  0.53853  0.78142  0.03198  1.0000
  H   H3        1.0  0.87595  0.36364  0.81052  1.0000
  H   H4        1.0  0.12404  0.63638  0.18947  1.0000
  H   H5        1.0  0.78769  0.21775  0.72100  1.0000
  H   H6        1.0  0.21228  0.78227  0.27900  1.0000
  H   H7        1.0  0.54379  0.77992  0.52565  1.0000
  H   H8        1.0  0.45619  0.22009  0.47435  1.0000
  H   H9        1.0  0.10693  0.65537  0.67817  1.0000
  H   H10       1.0  0.89308  0.34463  0.32183  1.0000
  H   H11       1.0  0.19643  0.80078  0.76706  1.0000
  H   H12       1.0  0.80357  0.19921  0.23294  1.0000
  H   H13       1.0  0.81092  0.71829  0.83721  1.0000
  H   H14       1.0  0.18905  0.28171  0.16279  1.0000
  H   H15       1.0  0.87896  0.83527  0.86686  1.0000
  H   H16       1.0  0.12106  0.16472  0.13314  1.0000
  H   H17       1.0  0.10365  0.12845  0.00646  1.0000
  H   H18       1.0  0.89636  0.87154  0.99354  1.0000
  H   H19       1.0  0.91598  0.08879  0.05538  1.0000
  H   H20       1.0  0.08403  0.91120  0.94463  1.0000
  H   H21       1.0  0.89027  0.86209  0.48558  1.0000
  H   H22       1.0  0.10973  0.13791  0.51442  1.0000
  H   H23       1.0  0.07470  0.89951  0.43786  1.0000
  H   H24       1.0  0.92529  0.10050  0.56214  1.0000
  C   C1        1.0  0.48250  0.14011  0.86390  1.0000
  C   C2        1.0  0.51750  0.85988  0.13611  1.0000
  C   C3        1.0  0.53334  0.21807  0.91292  1.0000
  C   C4        1.0  0.46667  0.78192  0.08708  1.0000
  C   C5        1.0  0.76356  0.29811  0.82563  1.0000
  C   C6        1.0  0.23643  0.70189  0.17437  1.0000
  C   C7        1.0  0.71669  0.21845  0.77629  1.0000
  C   C8        1.0  0.28328  0.78156  0.22371  1.0000
  C   C9        1.0  0.32341  0.05204  0.87849  1.0000
  C   C10       1.0  0.67658  0.94797  0.12152  1.0000
  C   C11       1.0  0.51859  0.86456  0.62780  1.0000
  C   C12       1.0  0.48140  0.13545  0.37220  1.0000
  C   C13       1.0  0.46710  0.78536  0.57948  1.0000
  C   C14       1.0  0.53290  0.21465  0.42051  1.0000
  C   C15       1.0  0.22550  0.71625  0.66438  1.0000
  C   C16       1.0  0.77451  0.28375  0.33563  1.0000
  C   C17       1.0  0.27457  0.79539  0.71348  1.0000
  C   C18       1.0  0.72543  0.20461  0.28651  1.0000
  C   C19       1.0  0.68023  0.95012  0.61264  1.0000
  C   C20       1.0  0.31976  0.04989  0.38736  1.0000
  N   N1        1.0  0.57863  0.13905  0.79699  1.0000
  N   N2        1.0  0.42137  0.86095  0.20301  1.0000
  N   N3        1.0  0.67584  0.29515  0.89385  1.0000
  N   N4        1.0  0.32415  0.70484  0.10615  1.0000
  N   N5        1.0  0.42065  0.86879  0.69401  1.0000
  N   N6        1.0  0.57934  0.13121  0.30599  1.0000
  N   N7        1.0  0.31965  0.71257  0.59789  1.0000
  N   N8        1.0  0.68034  0.28744  0.40211  1.0000
  Cl  Cl1       1.0  0.92216  0.52580  0.09577  1.0000
  Cl  Cl2       1.0  0.07784  0.47419  0.90423  1.0000
  Cl  Cl3       1.0  0.50043  0.34295  0.08139  1.0000
  Cl  Cl4       1.0  0.49958  0.65704  0.91862  1.0000
  Cl  Cl5       1.0  0.07897  0.47244  0.40115  1.0000
  Cl  Cl6       1.0  0.92104  0.52757  0.59884  1.0000
  Cl  Cl7       1.0  0.51169  0.65309  0.41676  1.0000
  Cl  Cl8       1.0  0.48832  0.34692  0.58323  1.0000
  O   O1        1.0  0.29684  0.99122  0.82523  1.0000
  O   O2        1.0  0.70317  0.00877  0.17477  1.0000
  O   O3        1.0  0.22534  0.04084  0.93979  1.0000
  O   O4        1.0  0.77467  0.95915  0.06022  1.0000
  O   O5        1.0  0.70933  0.01207  0.66556  1.0000
  O   O6        1.0  0.29067  0.98793  0.33444  1.0000
  O   O7        1.0  0.77814  0.96003  0.55190  1.0000
  O   O8        1.0  0.22186  0.03997  0.44810  1.0000
  O   O9        1.0  0.82246  0.81863  0.81900  1.0000
  O   O10       1.0  0.17754  0.18137  0.18100  1.0000
  O   O11       1.0  0.00625  0.15855  0.04578  1.0000
  O   O12       1.0  0.99378  0.84143  0.95422  1.0000
  O   O13       1.0  0.98497  0.83110  0.44608  1.0000
  O   O14       1.0  0.01503  0.16890  0.55392  1.0000
