data_image0
_chemical_formula_structural       Cd2CuH14C10N4Cl4O8
_chemical_formula_sum              "Cd2 Cu1 H14 C10 N4 Cl4 O8"
_cell_length_a       6.66353
_cell_length_b       8.06312
_cell_length_c       10.4143
_cell_angle_alpha    76.0919
_cell_angle_beta     75.7984
_cell_angle_gamma    86.1386

_space_group_name_H-M_alt    "P 1"
_space_group_IT_number       1

loop_
  _space_group_symop_operation_xyz
  'x, y, z'

loop_
  _atom_site_type_symbol
  _atom_site_label
  _atom_site_symmetry_multiplicity
  _atom_site_fract_x
  _atom_site_fract_y
  _atom_site_fract_z
  _atom_site_occupancy
  Cd  Cd1       1.0  0.28805  0.49256  0.91294  1.0000
  Cd  Cd2       1.0  0.71195  0.50744  0.08706  1.0000
  Cu  Cu1       1.0  0.00001  0.00001  0.50000  1.0000
  H   H1        1.0  0.96033  0.47695  0.72806  1.0000
  H   H2        1.0  0.03967  0.52305  0.27194  1.0000
  H   H3        1.0  0.41280  0.12017  0.82648  1.0000
  H   H4        1.0  0.58719  0.87983  0.17352  1.0000
  H   H5        1.0  0.31952  0.94005  0.68293  1.0000
  H   H6        1.0  0.68047  0.05995  0.31707  1.0000
  H   H7        1.0  0.37938  0.19213  0.31764  1.0000
  H   H8        1.0  0.62063  0.80787  0.68235  1.0000
  H   H9        1.0  0.22573  0.15487  0.23815  1.0000
  H   H10       1.0  0.77426  0.84514  0.76185  1.0000
  H   H11       1.0  0.55290  0.56642  0.63757  1.0000
  H   H12       1.0  0.44711  0.43358  0.36243  1.0000
  H   H13       1.0  0.35306  0.68527  0.62721  1.0000
  H   H14       1.0  0.64696  0.31473  0.37279  1.0000
  C   C1        1.0  0.99098  0.25907  0.63659  1.0000
  C   C2        1.0  0.00901  0.74094  0.36342  1.0000
  C   C3        1.0  0.04046  0.35682  0.71795  1.0000
  C   C4        1.0  0.95955  0.64318  0.28206  1.0000
  C   C5        1.0  0.29005  0.15963  0.77255  1.0000
  C   C6        1.0  0.70995  0.84037  0.22745  1.0000
  C   C7        1.0  0.23987  0.05981  0.69261  1.0000
  C   C8        1.0  0.76013  0.94019  0.30739  1.0000
  C   C9        1.0  0.83488  0.31375  0.55200  1.0000
  C   C10       1.0  0.16512  0.68626  0.44800  1.0000
  N   N1        1.0  0.09237  0.11172  0.62431  1.0000
  N   N2        1.0  0.90763  0.88828  0.37569  1.0000
  N   N3        1.0  0.19126  0.30776  0.78392  1.0000
  N   N4        1.0  0.80873  0.69224  0.21609  1.0000
  Cl  Cl1       1.0  0.39863  0.69835  0.04508  1.0000
  Cl  Cl2       1.0  0.60136  0.30163  0.95494  1.0000
  Cl  Cl3       1.0  0.02358  0.30048  0.11961  1.0000
  Cl  Cl4       1.0  0.97641  0.69951  0.88038  1.0000
  O   O1        1.0  0.82432  0.21718  0.47114  1.0000
  O   O2        1.0  0.17569  0.78282  0.52885  1.0000
  O   O3        1.0  0.73217  0.44806  0.55778  1.0000
  O   O4        1.0  0.26783  0.55194  0.44221  1.0000
  O   O5        1.0  0.29275  0.09989  0.31219  1.0000
  O   O6        1.0  0.70725  0.90011  0.68780  1.0000
  O   O7        1.0  0.45566  0.64506  0.68374  1.0000
  O   O8        1.0  0.54435  0.35494  0.31626  1.0000
