data_image0
_chemical_formula_structural       Cd4H38C54S8N10O2F24
_chemical_formula_sum              "Cd4 H38 C54 S8 N10 O2 F24"
_cell_length_a       11.3975
_cell_length_b       12.3134
_cell_length_c       14.627
_cell_angle_alpha    115.54
_cell_angle_beta     99.5179
_cell_angle_gamma    102.764

_space_group_name_H-M_alt    "P 1"
_space_group_IT_number       1

loop_
  _space_group_symop_operation_xyz
  'x, y, z'

loop_
  _atom_site_type_symbol
  _atom_site_label
  _atom_site_symmetry_multiplicity
  _atom_site_fract_x
  _atom_site_fract_y
  _atom_site_fract_z
  _atom_site_occupancy
  Cd  Cd1       1.0  0.86233  0.36406  0.87378  1.0000
  Cd  Cd2       1.0  0.13767  0.63594  0.12623  1.0000
  Cd  Cd3       1.0  0.64626  0.15149  0.58635  1.0000
  Cd  Cd4       1.0  0.35375  0.84851  0.41365  1.0000
  H   H1        1.0  0.19467  0.29302  0.11285  1.0000
  H   H2        1.0  0.80533  0.70698  0.88715  1.0000
  H   H3        1.0  0.05803  0.15243  0.16261  1.0000
  H   H4        1.0  0.94197  0.84757  0.83739  1.0000
  H   H5        1.0  0.73523  0.18496  0.98609  1.0000
  H   H6        1.0  0.26477  0.81505  0.01391  1.0000
  H   H7        1.0  0.81059  0.50709  0.58434  1.0000
  H   H8        1.0  0.18940  0.49291  0.41567  1.0000
  H   H9        1.0  0.03451  0.58422  0.58939  1.0000
  H   H10       1.0  0.96549  0.41577  0.41061  1.0000
  H   H11       1.0  0.13773  0.47187  0.82528  1.0000
  H   H12       1.0  0.86227  0.52813  0.17471  1.0000
  H   H13       1.0  0.07038  0.12226  0.72653  1.0000
  H   H14       1.0  0.92962  0.87773  0.27347  1.0000
  H   H15       1.0  0.20022  0.15510  0.61223  1.0000
  H   H16       1.0  0.79978  0.84490  0.38777  1.0000
  H   H17       1.0  0.88237  0.19819  0.44068  1.0000
  H   H18       1.0  0.11763  0.80180  0.55932  1.0000
  H   H19       1.0  0.44841  0.91288  0.17863  1.0000
  H   H20       1.0  0.55159  0.08713  0.82137  1.0000
  H   H21       1.0  0.38543  0.08007  0.14967  1.0000
  H   H22       1.0  0.61458  0.91994  0.85033  1.0000
  H   H23       1.0  0.54433  0.33570  0.48770  1.0000
  H   H24       1.0  0.45566  0.66430  0.51230  1.0000
  H   H25       1.0  0.59190  0.39758  0.83775  1.0000
  H   H26       1.0  0.40810  0.60242  0.16225  1.0000
  H   H27       1.0  0.36201  0.17048  0.90542  1.0000
  H   H28       1.0  0.63799  0.82952  0.09459  1.0000
  H   H29       1.0  0.38358  0.31939  0.01689  1.0000
  H   H30       1.0  0.61642  0.68062  0.98312  1.0000
  H   H31       1.0  0.51319  0.25915  0.00300  1.0000
  H   H32       1.0  0.48681  0.74085  0.99701  1.0000
  H   H33       1.0  0.34179  0.43866  0.91811  1.0000
  H   H34       1.0  0.65822  0.56134  0.08188  1.0000
  H   H35       1.0  0.28868  0.28842  0.80094  1.0000
  H   H36       1.0  0.71133  0.71158  0.19905  1.0000
  H   H37       1.0  0.41145  0.41654  0.81262  1.0000
  H   H38       1.0  0.58856  0.58346  0.18738  1.0000
  C   C1        1.0  0.03700  0.30960  0.02063  1.0000
  C   C2        1.0  0.96300  0.69040  0.97937  1.0000
  C   C3        1.0  0.09270  0.26509  0.08506  1.0000
  C   C4        1.0  0.90731  0.73491  0.91494  1.0000
  C   C5        1.0  0.01651  0.18750  0.11279  1.0000
  C   C6        1.0  0.98349  0.81250  0.88721  1.0000
  C   C7        1.0  0.88504  0.15507  0.07641  1.0000
  C   C8        1.0  0.11496  0.84493  0.92359  1.0000
  C   C9        1.0  0.83595  0.20386  0.01465  1.0000
  C   C10       1.0  0.16405  0.79614  0.98535  1.0000
  C   C11       1.0  0.80108  0.07097  0.10482  1.0000
  C   C12       1.0  0.19891  0.92903  0.89518  1.0000
  C   C13       1.0  0.85599  0.45028  0.70288  1.0000
  C   C14       1.0  0.14401  0.54972  0.29712  1.0000
  C   C15       1.0  0.88560  0.50026  0.63593  1.0000
  C   C16       1.0  0.11440  0.49974  0.36407  1.0000
  C   C17       1.0  0.00992  0.54276  0.63883  1.0000
  C   C18       1.0  0.99007  0.45724  0.36116  1.0000
  C   C19       1.0  0.10410  0.53263  0.70666  1.0000
  C   C20       1.0  0.89589  0.46737  0.29333  1.0000
  C   C21       1.0  0.06884  0.48167  0.77039  1.0000
  C   C22       1.0  0.93117  0.51833  0.22961  1.0000
  C   C23       1.0  0.24001  0.57653  0.71389  1.0000
  C   C24       1.0  0.75999  0.42347  0.28610  1.0000
  C   C25       1.0  0.90850  0.14331  0.64383  1.0000
  C   C26       1.0  0.09150  0.85668  0.35617  1.0000
  C   C27       1.0  0.03276  0.14017  0.66293  1.0000
  C   C28       1.0  0.96724  0.85983  0.33707  1.0000
  C   C29       1.0  0.10460  0.15914  0.59991  1.0000
  C   C30       1.0  0.89540  0.84086  0.40009  1.0000
  C   C31       1.0  0.05211  0.18171  0.51884  1.0000
  C   C32       1.0  0.94788  0.81829  0.48116  1.0000
  C   C33       1.0  0.92821  0.18271  0.50369  1.0000
  C   C34       1.0  0.07179  0.81729  0.49631  1.0000
  C   C35       1.0  0.12580  0.20866  0.45100  1.0000
  C   C36       1.0  0.87419  0.79134  0.54900  1.0000
  C   C37       1.0  0.52950  0.03595  0.34822  1.0000
  C   C38       1.0  0.47050  0.96405  0.65178  1.0000
  C   C39       1.0  0.46940  0.00792  0.24458  1.0000
  C   C40       1.0  0.53061  0.99208  0.75542  1.0000
  C   C41       1.0  0.43306  0.10047  0.22913  1.0000
  C   C42       1.0  0.56694  0.89954  0.77087  1.0000
  C   C43       1.0  0.45750  0.22042  0.31654  1.0000
  C   C44       1.0  0.54250  0.77958  0.68347  1.0000
  C   C45       1.0  0.52058  0.24375  0.41659  1.0000
  C   C46       1.0  0.47942  0.75626  0.58342  1.0000
  C   C47       1.0  0.41255  0.31939  0.30317  1.0000
  C   C48       1.0  0.58745  0.68061  0.69683  1.0000
  C   C49       1.0  0.57666  0.34539  0.88232  1.0000
  C   C50       1.0  0.42334  0.65461  0.11769  1.0000
  C   C51       1.0  0.42929  0.26643  0.96048  1.0000
  C   C52       1.0  0.57071  0.73357  0.03953  1.0000
  C   C53       1.0  0.37199  0.37174  0.85612  1.0000
  C   C54       1.0  0.62801  0.62826  0.14388  1.0000
  S   S1        1.0  0.12364  0.40391  0.97894  1.0000
  S   S2        1.0  0.87636  0.59609  0.02106  1.0000
  S   S3        1.0  0.70439  0.40107  0.70848  1.0000
  S   S4        1.0  0.29561  0.59893  0.29153  1.0000
  S   S5        1.0  0.80974  0.11857  0.71668  1.0000
  S   S6        1.0  0.19026  0.88143  0.28332  1.0000
  S   S7        1.0  0.57001  0.92485  0.37931  1.0000
  S   S8        1.0  0.42999  0.07515  0.62069  1.0000
  N   N1        1.0  0.90992  0.27857  0.98787  1.0000
  N   N2        1.0  0.09009  0.72144  0.01214  1.0000
  N   N3        1.0  0.94926  0.44294  0.76903  1.0000
  N   N4        1.0  0.05074  0.55706  0.23098  1.0000
  N   N5        1.0  0.85880  0.16394  0.56394  1.0000
  N   N6        1.0  0.14119  0.83605  0.43606  1.0000
  N   N7        1.0  0.55591  0.15431  0.43113  1.0000
  N   N8        1.0  0.44409  0.84569  0.56887  1.0000
  N   N9        1.0  0.46586  0.33267  0.90267  1.0000
  N   N10       1.0  0.53414  0.66733  0.09733  1.0000
  O   O1        1.0  0.65937  0.30483  0.91114  1.0000
  O   O2        1.0  0.34064  0.69517  0.08887  1.0000
  F   F1        1.0  0.67621  0.03575  0.05288  1.0000
  F   F2        1.0  0.32379  0.96425  0.94712  1.0000
  F   F3        1.0  0.81208  0.12673  0.21137  1.0000
  F   F4        1.0  0.18792  0.87327  0.78864  1.0000
  F   F5        1.0  0.82844  0.96020  0.08069  1.0000
  F   F6        1.0  0.17156  0.03981  0.91932  1.0000
  F   F7        1.0  0.31091  0.67759  0.81207  1.0000
  F   F8        1.0  0.68909  0.32241  0.18792  1.0000
  F   F9        1.0  0.29371  0.48300  0.69852  1.0000
  F   F10       1.0  0.70629  0.51700  0.30148  1.0000
  F   F11       1.0  0.25855  0.61489  0.64121  1.0000
  F   F12       1.0  0.74145  0.38510  0.35877  1.0000
  F   F13       1.0  0.14697  0.33226  0.46985  1.0000
  F   F14       1.0  0.85302  0.66774  0.53015  1.0000
  F   F15       1.0  0.24054  0.19361  0.46800  1.0000
  F   F16       1.0  0.75946  0.80639  0.53200  1.0000
  F   F17       1.0  0.06335  0.13313  0.34473  1.0000
  F   F18       1.0  0.93664  0.86687  0.65527  1.0000
  F   F19       1.0  0.47711  0.43939  0.38421  1.0000
  F   F20       1.0  0.52289  0.56062  0.61579  1.0000
  F   F21       1.0  0.28727  0.29892  0.29819  1.0000
  F   F22       1.0  0.71273  0.70108  0.70181  1.0000
  F   F23       1.0  0.42186  0.31890  0.21059  1.0000
  F   F24       1.0  0.57814  0.68110  0.78941  1.0000
