data_image0
_chemical_formula_structural       Zn4H32C60S8N4O16
_chemical_formula_sum              "Zn4 H32 C60 S8 N4 O16"
_cell_length_a       9.3318
_cell_length_b       14.1071
_cell_length_c       14.0157
_cell_angle_alpha    101.653
_cell_angle_beta     101.506
_cell_angle_gamma    101.294

_space_group_name_H-M_alt    "P 1"
_space_group_IT_number       1

loop_
  _space_group_symop_operation_xyz
  'x, y, z'

loop_
  _atom_site_type_symbol
  _atom_site_label
  _atom_site_symmetry_multiplicity
  _atom_site_fract_x
  _atom_site_fract_y
  _atom_site_fract_z
  _atom_site_occupancy
  Zn  Zn1       1.0  0.90770  0.27475  0.82572  1.0000
  Zn  Zn2       1.0  0.59221  0.17615  0.72465  1.0000
  Zn  Zn3       1.0  0.09231  0.72525  0.17428  1.0000
  Zn  Zn4       1.0  0.40779  0.82385  0.27535  1.0000
  H   H1        1.0  0.06109  0.49054  0.89683  1.0000
  H   H2        1.0  0.43751  0.10292  0.50829  1.0000
  H   H3        1.0  0.93891  0.50946  0.10317  1.0000
  H   H4        1.0  0.56249  0.89708  0.49171  1.0000
  H   H5        1.0  0.31939  0.59593  0.96999  1.0000
  H   H6        1.0  0.17888  0.02938  0.40288  1.0000
  H   H7        1.0  0.68061  0.40407  0.03001  1.0000
  H   H8        1.0  0.82112  0.97062  0.59712  1.0000
  H   H9        1.0  0.46810  0.32384  0.97581  1.0000
  H   H10       1.0  0.03360  0.02454  0.67777  1.0000
  H   H11       1.0  0.53190  0.67616  0.02419  1.0000
  H   H12       1.0  0.96640  0.97546  0.32223  1.0000
  H   H13       1.0  0.20196  0.23095  0.90378  1.0000
  H   H14       1.0  0.30000  0.09716  0.77058  1.0000
  H   H15       1.0  0.79804  0.76905  0.09622  1.0000
  H   H16       1.0  0.70000  0.90284  0.22942  1.0000
  H   H17       1.0  0.08445  0.27339  0.52762  1.0000
  H   H18       1.0  0.41688  0.47424  0.72685  1.0000
  H   H19       1.0  0.91555  0.72662  0.47238  1.0000
  H   H20       1.0  0.58312  0.52576  0.27315  1.0000
  H   H21       1.0  0.03382  0.25489  0.33036  1.0000
  H   H22       1.0  0.46632  0.66969  0.74496  1.0000
  H   H23       1.0  0.96618  0.74511  0.66964  1.0000
  H   H24       1.0  0.53368  0.33030  0.25504  1.0000
  H   H25       1.0  0.45651  0.07435  0.99973  1.0000
  H   H26       1.0  0.04316  0.99827  0.92589  1.0000
  H   H27       1.0  0.54349  0.92565  0.00026  1.0000
  H   H28       1.0  0.95684  0.00173  0.07411  1.0000
  H   H29       1.0  0.52598  0.05976  0.18809  1.0000
  H   H30       1.0  0.97486  0.81161  0.94058  1.0000
  H   H31       1.0  0.47402  0.94023  0.81191  1.0000
  H   H32       1.0  0.02514  0.18839  0.05943  1.0000
  C   C1        1.0  0.15560  0.45732  0.91588  1.0000
  C   C2        1.0  0.34369  0.08419  0.54212  1.0000
  C   C3        1.0  0.84440  0.54268  0.08412  1.0000
  C   C4        1.0  0.65632  0.91581  0.45788  1.0000
  C   C5        1.0  0.30187  0.51546  0.95628  1.0000
  C   C6        1.0  0.19730  0.04344  0.48396  1.0000
  C   C7        1.0  0.69814  0.48454  0.04372  1.0000
  C   C8        1.0  0.80270  0.95656  0.51604  1.0000
  C   C9        1.0  0.42115  0.47010  0.97901  1.0000
  C   C10       1.0  0.07888  0.02100  0.53005  1.0000
  C   C11       1.0  0.57886  0.52990  0.02100  1.0000
  C   C12       1.0  0.92112  0.97900  0.46995  1.0000
  C   C13       1.0  0.38360  0.36547  0.96006  1.0000
  C   C14       1.0  0.11736  0.04018  0.63549  1.0000
  C   C15       1.0  0.61640  0.63453  0.03994  1.0000
  C   C16       1.0  0.88264  0.95982  0.36451  1.0000
  C   C17       1.0  0.23462  0.31219  0.91959  1.0000
  C   C18       1.0  0.26644  0.08108  0.68876  1.0000
  C   C19       1.0  0.76538  0.68781  0.08041  1.0000
  C   C20       1.0  0.73356  0.91892  0.31124  1.0000
  C   C21       1.0  0.81786  0.22055  0.60530  1.0000
  C   C22       1.0  0.68353  0.39621  0.77949  1.0000
  C   C23       1.0  0.18214  0.77945  0.39470  1.0000
  C   C24       1.0  0.31647  0.60379  0.22051  1.0000
  C   C25       1.0  0.84283  0.21873  0.50461  1.0000
  C   C26       1.0  0.65880  0.49660  0.78107  1.0000
  C   C27       1.0  0.15717  0.78128  0.49539  1.0000
  C   C28       1.0  0.34120  0.50340  0.21893  1.0000
  C   C29       1.0  0.97404  0.24699  0.47465  1.0000
  C   C30       1.0  0.52733  0.52660  0.75293  1.0000
  C   C31       1.0  0.02596  0.75301  0.52535  1.0000
  C   C32       1.0  0.47267  0.47340  0.24707  1.0000
  C   C33       1.0  0.94664  0.23757  0.37000  1.0000
  C   C34       1.0  0.55409  0.63048  0.76219  1.0000
  C   C35       1.0  0.05336  0.76243  0.63000  1.0000
  C   C36       1.0  0.44591  0.36952  0.23781  1.0000
  C   C37       1.0  0.79409  0.20137  0.32098  1.0000
  C   C38       1.0  0.70656  0.67929  0.79818  1.0000
  C   C39       1.0  0.20591  0.79863  0.67901  1.0000
  C   C40       1.0  0.29344  0.32071  0.20182  1.0000
  C   C41       1.0  0.72208  0.18468  0.21592  1.0000
  C   C42       1.0  0.77784  0.78376  0.81488  1.0000
  C   C43       1.0  0.27791  0.81532  0.78408  1.0000
  C   C44       1.0  0.22216  0.21623  0.18512  1.0000
  C   C45       1.0  0.65820  0.19510  0.03865  1.0000
  C   C46       1.0  0.84048  0.96037  0.80475  1.0000
  C   C47       1.0  0.34180  0.80490  0.96135  1.0000
  C   C48       1.0  0.15952  0.03963  0.19525  1.0000
  C   C49       1.0  0.55289  0.12238  0.05820  1.0000
  C   C50       1.0  0.94647  0.94051  0.87756  1.0000
  C   C51       1.0  0.44711  0.87762  0.94180  1.0000
  C   C52       1.0  0.05353  0.05948  0.12244  1.0000
  C   C53       1.0  0.58977  0.11522  0.15857  1.0000
  C   C54       1.0  0.91034  0.84078  0.88467  1.0000
  C   C55       1.0  0.41022  0.88478  0.84143  1.0000
  C   C56       1.0  0.08967  0.15922  0.11533  1.0000
  C   C57       1.0  0.67469  0.21218  0.94102  1.0000
  C   C58       1.0  0.82378  0.05784  0.78790  1.0000
  C   C59       1.0  0.32531  0.78782  0.05898  1.0000
  C   C60       1.0  0.17622  0.94216  0.21210  1.0000
  S   S1        1.0  0.68621  0.18046  0.40471  1.0000
  S   S2        1.0  0.81504  0.59595  0.81909  1.0000
  S   S3        1.0  0.31379  0.81954  0.59528  1.0000
  S   S4        1.0  0.18496  0.40405  0.18091  1.0000
  S   S5        1.0  0.79863  0.25818  0.14533  1.0000
  S   S6        1.0  0.70020  0.85425  0.74125  1.0000
  S   S7        1.0  0.20137  0.74182  0.85467  1.0000
  S   S8        1.0  0.29980  0.14575  0.25875  1.0000
  N   N1        1.0  0.12185  0.35695  0.89712  1.0000
  N   N2        1.0  0.37822  0.10367  0.64324  1.0000
  N   N3        1.0  0.87815  0.64305  0.10288  1.0000
  N   N4        1.0  0.62178  0.89633  0.35676  1.0000
  O   O1        1.0  0.93177  0.24294  0.67979  1.0000
  O   O2        1.0  0.56923  0.32259  0.75656  1.0000
  O   O3        1.0  0.06822  0.75706  0.32021  1.0000
  O   O4        1.0  0.43077  0.67741  0.24344  1.0000
  O   O5        1.0  0.82218  0.39302  0.80128  1.0000
  O   O6        1.0  0.67890  0.19946  0.60766  1.0000
  O   O7        1.0  0.17782  0.60698  0.19872  1.0000
  O   O8        1.0  0.32109  0.80054  0.39233  1.0000
  O   O9        1.0  0.79639  0.27268  0.94163  1.0000
  O   O10       1.0  0.70219  0.05774  0.72693  1.0000
  O   O11       1.0  0.20361  0.72732  0.05837  1.0000
  O   O12       1.0  0.29781  0.94226  0.27307  1.0000
  O   O13       1.0  0.56804  0.16382  0.86392  1.0000
  O   O14       1.0  0.93046  0.13426  0.83713  1.0000
  O   O15       1.0  0.43196  0.83618  0.13608  1.0000
  O   O16       1.0  0.06954  0.86574  0.16287  1.0000
