data_image0
_chemical_formula_structural       Zn4H32C60S8N4O16
_chemical_formula_sum              "Zn4 H32 C60 S8 N4 O16"
_cell_length_a       13.872
_cell_length_b       14.1807
_cell_length_c       14.102
_cell_angle_alpha    86.9369
_cell_angle_beta     70.5285
_cell_angle_gamma    70.8611

_space_group_name_H-M_alt    "P 1"
_space_group_IT_number       1

loop_
  _space_group_symop_operation_xyz
  'x, y, z'

loop_
  _atom_site_type_symbol
  _atom_site_label
  _atom_site_symmetry_multiplicity
  _atom_site_fract_x
  _atom_site_fract_y
  _atom_site_fract_z
  _atom_site_occupancy
  Zn  Zn1       1.0  0.13729  0.17404  0.86414  1.0000
  Zn  Zn2       1.0  0.36262  0.13604  0.82611  1.0000
  Zn  Zn3       1.0  0.86271  0.82596  0.13586  1.0000
  Zn  Zn4       1.0  0.63738  0.86396  0.17389  1.0000
  H   H1        1.0  0.45267  0.09143  0.29551  1.0000
  H   H2        1.0  0.04738  0.70225  0.90844  1.0000
  H   H3        1.0  0.54733  0.90857  0.70448  1.0000
  H   H4        1.0  0.95262  0.29775  0.09156  1.0000
  H   H5        1.0  0.49030  0.08972  0.46696  1.0000
  H   H6        1.0  0.01059  0.53130  0.91007  1.0000
  H   H7        1.0  0.50970  0.91028  0.53303  1.0000
  H   H8        1.0  0.98941  0.46870  0.08993  1.0000
  H   H9        1.0  0.01715  0.18045  0.22692  1.0000
  H   H10       1.0  0.48166  0.77483  0.81987  1.0000
  H   H11       1.0  0.98285  0.81955  0.77308  1.0000
  H   H12       1.0  0.51834  0.22517  0.18014  1.0000
  H   H13       1.0  0.05861  0.17192  0.39795  1.0000
  H   H14       1.0  0.44111  0.60437  0.82813  1.0000
  H   H15       1.0  0.94139  0.82808  0.60205  1.0000
  H   H16       1.0  0.55889  0.39563  0.17187  1.0000
  H   H17       1.0  0.78342  0.30250  0.78680  1.0000
  H   H18       1.0  0.71725  0.21364  0.69672  1.0000
  H   H19       1.0  0.21658  0.69750  0.21320  1.0000
  H   H20       1.0  0.28275  0.78636  0.30329  1.0000
  H   H21       1.0  0.95597  0.30929  0.80282  1.0000
  H   H22       1.0  0.54468  0.19775  0.69008  1.0000
  H   H23       1.0  0.04403  0.69071  0.19718  1.0000
  H   H24       1.0  0.45532  0.80225  0.30992  1.0000
  H   H25       1.0  0.01623  0.03329  0.92477  1.0000
  H   H26       1.0  0.48328  0.07474  0.96722  1.0000
  H   H27       1.0  0.98377  0.96671  0.07523  1.0000
  H   H28       1.0  0.51672  0.92527  0.03278  1.0000
  H   H29       1.0  0.84630  0.01446  0.91764  1.0000
  H   H30       1.0  0.65299  0.08190  0.98613  1.0000
  H   H31       1.0  0.15370  0.98554  0.08236  1.0000
  H   H32       1.0  0.34701  0.91810  0.01387  1.0000
  C   C1        1.0  0.19925  0.15986  0.04145  1.0000
  C   C2        1.0  0.29994  0.95839  0.84015  1.0000
  C   C3        1.0  0.80076  0.84014  0.95855  1.0000
  C   C4        1.0  0.70007  0.04161  0.15985  1.0000
  C   C5        1.0  0.30125  0.14755  0.65109  1.0000
  C   C6        1.0  0.19970  0.34905  0.85238  1.0000
  C   C7        1.0  0.69877  0.85245  0.34890  1.0000
  C   C8        1.0  0.80030  0.65095  0.14762  1.0000
  C   C9        1.0  0.31615  0.14216  0.54318  1.0000
  C   C10       1.0  0.18480  0.45659  0.85762  1.0000
  C   C11       1.0  0.68385  0.85784  0.45682  1.0000
  C   C12       1.0  0.81520  0.54341  0.14238  1.0000
  C   C13       1.0  0.27882  0.14555  0.38289  1.0000
  C   C14       1.0  0.22140  0.61693  0.85427  1.0000
  C   C15       1.0  0.72118  0.85445  0.61711  1.0000
  C   C16       1.0  0.77860  0.38307  0.14573  1.0000
  C   C17       1.0  0.18653  0.16292  0.14876  1.0000
  C   C18       1.0  0.31252  0.85148  0.83711  1.0000
  C   C19       1.0  0.81347  0.83708  0.85124  1.0000
  C   C20       1.0  0.68747  0.14853  0.16289  1.0000
  C   C21       1.0  0.38929  0.11458  0.36882  1.0000
  C   C22       1.0  0.11107  0.62982  0.88521  1.0000
  C   C23       1.0  0.61071  0.88542  0.63118  1.0000
  C   C24       1.0  0.88893  0.37018  0.11479  1.0000
  C   C25       1.0  0.41005  0.11291  0.46026  1.0000
  C   C26       1.0  0.09079  0.53850  0.88683  1.0000
  C   C27       1.0  0.58996  0.88709  0.53973  1.0000
  C   C28       1.0  0.90921  0.46150  0.11317  1.0000
  C   C29       1.0  0.22649  0.15502  0.30855  1.0000
  C   C30       1.0  0.27328  0.69159  0.84489  1.0000
  C   C31       1.0  0.77351  0.84497  0.69145  1.0000
  C   C32       1.0  0.72672  0.30841  0.15511  1.0000
  C   C33       1.0  0.09590  0.17181  0.23269  1.0000
  C   C34       1.0  0.40309  0.76857  0.82835  1.0000
  C   C35       1.0  0.90410  0.82819  0.76731  1.0000
  C   C36       1.0  0.59691  0.23143  0.17165  1.0000
  C   C37       1.0  0.11829  0.16752  0.32346  1.0000
  C   C38       1.0  0.38118  0.67793  0.83253  1.0000
  C   C39       1.0  0.88171  0.83248  0.67654  1.0000
  C   C40       1.0  0.61881  0.32208  0.16747  1.0000
  C   C41       1.0  0.83270  0.24087  0.81768  1.0000
  C   C42       1.0  0.66778  0.18249  0.75867  1.0000
  C   C43       1.0  0.16730  0.75912  0.18232  1.0000
  C   C44       1.0  0.33222  0.81751  0.24133  1.0000
  C   C45       1.0  0.92767  0.24574  0.82668  1.0000
  C   C46       1.0  0.57274  0.17356  0.75383  1.0000
  C   C47       1.0  0.07233  0.75426  0.17332  1.0000
  C   C48       1.0  0.42726  0.82644  0.24617  1.0000
  C   C49       1.0  0.96053  0.09153  0.89673  1.0000
  C   C50       1.0  0.53921  0.10298  0.90866  1.0000
  C   C51       1.0  0.03947  0.90847  0.10327  1.0000
  C   C52       1.0  0.46079  0.89702  0.09134  1.0000
  C   C53       1.0  0.86606  0.08170  0.89167  1.0000
  C   C54       1.0  0.63367  0.10800  0.91851  1.0000
  C   C55       1.0  0.13394  0.91830  0.10833  1.0000
  C   C56       1.0  0.36633  0.89200  0.08149  1.0000
  C   C57       1.0  0.80022  0.15738  0.85066  1.0000
  C   C58       1.0  0.69991  0.14924  0.84246  1.0000
  C   C59       1.0  0.19978  0.84261  0.14934  1.0000
  C   C60       1.0  0.30009  0.85076  0.15754  1.0000
  S   S1        1.0  0.29890  0.15060  0.18185  1.0000
  S   S2        1.0  0.20069  0.81721  0.84925  1.0000
  S   S3        1.0  0.70110  0.84940  0.81815  1.0000
  S   S4        1.0  0.79931  0.18279  0.15075  1.0000
  S   S5        1.0  0.20200  0.17255  0.50895  1.0000
  S   S6        1.0  0.29857  0.49190  0.82726  1.0000
  S   S7        1.0  0.79800  0.82745  0.49105  1.0000
  S   S8        1.0  0.70143  0.50810  0.17273  1.0000
  N   N1        1.0  0.99070  0.17194  0.86513  1.0000
  N   N2        1.0  0.50936  0.13484  0.82795  1.0000
  N   N3        1.0  0.00930  0.82806  0.13487  1.0000
  N   N4        1.0  0.49064  0.86516  0.17205  1.0000
  O   O1        1.0  0.11695  0.16547  0.01688  1.0000
  O   O2        1.0  0.38227  0.98294  0.83474  1.0000
  O   O3        1.0  0.88305  0.83452  0.98312  1.0000
  O   O4        1.0  0.61773  0.01706  0.16526  1.0000
  O   O5        1.0  0.38579  0.12261  0.67685  1.0000
  O   O6        1.0  0.11496  0.32324  0.87742  1.0000
  O   O7        1.0  0.61422  0.87739  0.32314  1.0000
  O   O8        1.0  0.88504  0.67676  0.12258  1.0000
  O   O9        1.0  0.29441  0.14988  0.98067  1.0000
  O   O10       1.0  0.20516  0.01877  0.84991  1.0000
  O   O11       1.0  0.70558  0.85012  0.01934  1.0000
  O   O12       1.0  0.79483  0.98123  0.15009  1.0000
  O   O13       1.0  0.20310  0.17620  0.71030  1.0000
  O   O14       1.0  0.29768  0.29032  0.82387  1.0000
  O   O15       1.0  0.79691  0.82380  0.28970  1.0000
  O   O16       1.0  0.70232  0.70968  0.17613  1.0000
