data_image0
_chemical_formula_structural       Cu4H40C46N16O4
_chemical_formula_sum              "Cu4 H40 C46 N16 O4"
_cell_length_a       10.0891
_cell_length_b       10.0215
_cell_length_c       11.9844
_cell_angle_alpha    72.4824
_cell_angle_beta     87.3906
_cell_angle_gamma    78.3535

_space_group_name_H-M_alt    "P 1"
_space_group_IT_number       1

loop_
  _space_group_symop_operation_xyz
  'x, y, z'

loop_
  _atom_site_type_symbol
  _atom_site_label
  _atom_site_symmetry_multiplicity
  _atom_site_fract_x
  _atom_site_fract_y
  _atom_site_fract_z
  _atom_site_occupancy
  Cu  Cu1       1.0  0.21034  0.79755  0.63589  1.0000
  Cu  Cu2       1.0  0.78966  0.20245  0.36411  1.0000
  Cu  Cu3       1.0  0.32918  0.81783  0.86241  1.0000
  Cu  Cu4       1.0  0.67081  0.18216  0.13758  1.0000
  H   H1        1.0  0.33298  0.11965  0.77337  1.0000
  H   H2        1.0  0.66701  0.88034  0.22663  1.0000
  H   H3        1.0  0.36357  0.36332  0.65601  1.0000
  H   H4        1.0  0.63643  0.63667  0.34400  1.0000
  H   H5        1.0  0.38678  0.42357  0.43994  1.0000
  H   H6        1.0  0.61323  0.57643  0.56006  1.0000
  H   H7        1.0  0.36871  0.24290  0.33984  1.0000
  H   H8        1.0  0.63130  0.75710  0.66017  1.0000
  H   H9        1.0  0.34680  0.01398  0.34364  1.0000
  H   H10       1.0  0.65321  0.98602  0.65636  1.0000
  H   H11       1.0  0.32954  0.67226  0.44198  1.0000
  H   H12       1.0  0.67046  0.32774  0.55803  1.0000
  H   H13       1.0  0.30840  0.82631  0.31612  1.0000
  H   H14       1.0  0.69161  0.17368  0.68389  1.0000
  H   H15       1.0  0.92656  0.90373  0.32445  1.0000
  H   H16       1.0  0.07345  0.09627  0.67555  1.0000
  H   H17       1.0  0.06766  0.98479  0.27511  1.0000
  H   H18       1.0  0.93235  0.01521  0.72489  1.0000
  H   H19       1.0  0.01353  0.96124  0.42178  1.0000
  H   H20       1.0  0.98648  0.03875  0.57822  1.0000
  H   H21       1.0  0.19312  0.59301  0.30796  1.0000
  H   H22       1.0  0.80688  0.40699  0.69203  1.0000
  H   H23       1.0  0.14735  0.76488  0.20548  1.0000
  H   H24       1.0  0.85265  0.23513  0.79452  1.0000
  H   H25       1.0  0.01881  0.67504  0.27858  1.0000
  H   H26       1.0  0.98119  0.32496  0.72142  1.0000
  H   H27       1.0  0.97015  0.64943  0.48089  1.0000
  H   H28       1.0  0.02984  0.35058  0.51911  1.0000
  H   H29       1.0  0.14140  0.56053  0.51713  1.0000
  H   H30       1.0  0.85860  0.43947  0.48288  1.0000
  H   H31       1.0  0.90033  0.62027  0.65296  1.0000
  H   H32       1.0  0.09967  0.37973  0.34704  1.0000
  H   H33       1.0  0.09369  0.78056  0.00883  1.0000
  H   H34       1.0  0.90631  0.21945  0.99117  1.0000
  H   H35       1.0  0.89837  0.69126  0.11699  1.0000
  H   H36       1.0  0.10164  0.30873  0.88301  1.0000
  H   H37       1.0  0.74263  0.58966  0.02302  1.0000
  H   H38       1.0  0.25737  0.41034  0.97698  1.0000
  H   H39       1.0  0.78023  0.58985  0.81721  1.0000
  H   H40       1.0  0.21977  0.41015  0.18279  1.0000
  C   C1        1.0  0.33020  0.04445  0.62340  1.0000
  C   C2        1.0  0.66980  0.95555  0.37661  1.0000
  C   C3        1.0  0.34078  0.14812  0.67851  1.0000
  C   C4        1.0  0.65922  0.85187  0.32149  1.0000
  C   C5        1.0  0.35825  0.28325  0.61245  1.0000
  C   C6        1.0  0.64176  0.71674  0.38755  1.0000
  C   C7        1.0  0.36870  0.31885  0.49022  1.0000
  C   C8        1.0  0.63131  0.68115  0.50979  1.0000
  C   C9        1.0  0.35868  0.21826  0.43458  1.0000
  C   C10       1.0  0.64132  0.78174  0.56543  1.0000
  C   C11       1.0  0.33570  0.08187  0.49880  1.0000
  C   C12       1.0  0.66430  0.91814  0.50121  1.0000
  C   C13       1.0  0.31993  0.98387  0.43643  1.0000
  C   C14       1.0  0.68007  0.01612  0.56358  1.0000
  C   C15       1.0  0.26713  0.77894  0.40239  1.0000
  C   C16       1.0  0.73288  0.22105  0.59761  1.0000
  C   C17       1.0  0.12009  0.76520  0.38644  1.0000
  C   C18       1.0  0.87992  0.23480  0.61357  1.0000
  C   C19       1.0  0.02661  0.91221  0.35039  1.0000
  C   C20       1.0  0.97340  0.08779  0.64962  1.0000
  C   C21       1.0  0.12007  0.69476  0.28920  1.0000
  C   C22       1.0  0.87994  0.30524  0.71080  1.0000
  C   C23       1.0  0.07165  0.66526  0.49788  1.0000
  C   C24       1.0  0.92835  0.33474  0.50212  1.0000
  C   C25       1.0  0.97550  0.67067  0.67996  1.0000
  C   C26       1.0  0.02450  0.32934  0.32004  1.0000
  C   C27       1.0  0.95984  0.68028  0.79678  1.0000
  C   C28       1.0  0.04016  0.31973  0.20321  1.0000
  C   C29       1.0  0.05248  0.73098  0.85319  1.0000
  C   C30       1.0  0.94752  0.26902  0.14681  1.0000
  C   C31       1.0  0.02550  0.73693  0.96820  1.0000
  C   C32       1.0  0.97450  0.26308  0.03180  1.0000
  C   C33       1.0  0.91572  0.68680  0.02759  1.0000
  C   C34       1.0  0.08428  0.31320  0.97241  1.0000
  C   C35       1.0  0.82691  0.63153  0.97496  1.0000
  C   C36       1.0  0.17309  0.36847  0.02504  1.0000
  C   C37       1.0  0.84875  0.63066  0.86048  1.0000
  C   C38       1.0  0.15125  0.36934  0.13952  1.0000
  C   C39       1.0  0.59334  0.91600  0.87715  1.0000
  C   C40       1.0  0.40665  0.08399  0.12285  1.0000
  C   C41       1.0  0.72863  0.00379  0.97468  1.0000
  C   C42       1.0  0.27136  0.99620  0.02533  1.0000
  C   C43       1.0  0.39712  0.58325  0.09161  1.0000
  C   C44       1.0  0.60285  0.41676  0.90838  1.0000
  C   C45       1.0  0.53936  0.46331  0.25232  1.0000
  C   C46       1.0  0.46063  0.53669  0.74768  1.0000
  N   N1        1.0  0.27624  0.86581  0.47835  1.0000
  N   N2        1.0  0.72377  0.13419  0.52166  1.0000
  N   N3        1.0  0.06656  0.71068  0.60363  1.0000
  N   N4        1.0  0.93344  0.28932  0.39637  1.0000
  N   N5        1.0  0.51395  0.85129  0.86157  1.0000
  N   N6        1.0  0.48605  0.14869  0.13844  1.0000
  N   N7        1.0  0.35743  0.64521  0.99514  1.0000
  N   N8        1.0  0.64256  0.35478  0.00486  1.0000
  N   N9        1.0  0.77318  0.02588  0.05554  1.0000
  N   N10       1.0  0.22682  0.97412  0.94446  1.0000
  N   N11       1.0  0.68335  0.98999  0.88000  1.0000
  N   N12       1.0  0.31665  0.01001  0.12000  1.0000
  N   N13       1.0  0.42243  0.51258  0.19993  1.0000
  N   N14       1.0  0.57754  0.48743  0.80007  1.0000
  N   N15       1.0  0.63700  0.41529  0.31319  1.0000
  N   N16       1.0  0.36298  0.58472  0.68680  1.0000
  O   O1        1.0  0.31592  0.91421  0.68601  1.0000
  O   O2        1.0  0.68408  0.08579  0.31398  1.0000
  O   O3        1.0  0.16178  0.77159  0.79915  1.0000
  O   O4        1.0  0.83821  0.22842  0.20085  1.0000
