data_image0
_chemical_formula_structural       K8Cd4H24C56N8O32
_chemical_formula_sum              "K8 Cd4 H24 C56 N8 O32"
_cell_length_a       13.01
_cell_length_b       13.0291
_cell_length_c       13.0081
_cell_angle_alpha    101.855
_cell_angle_beta     113.36
_cell_angle_gamma    113.455

_space_group_name_H-M_alt    "P 1"
_space_group_IT_number       1

loop_
  _space_group_symop_operation_xyz
  'x, y, z'

loop_
  _atom_site_type_symbol
  _atom_site_label
  _atom_site_symmetry_multiplicity
  _atom_site_fract_x
  _atom_site_fract_y
  _atom_site_fract_z
  _atom_site_occupancy
  K   K1        1.0  0.68967  0.10678  0.62750  1.0000
  K   K2        1.0  0.81032  0.93784  0.91713  1.0000
  K   K3        1.0  0.47926  0.91710  0.10679  1.0000
  K   K4        1.0  0.02075  0.62753  0.93784  1.0000
  K   K5        1.0  0.31033  0.89322  0.37250  1.0000
  K   K6        1.0  0.18968  0.06216  0.08286  1.0000
  K   K7        1.0  0.52075  0.08290  0.89321  1.0000
  K   K8        1.0  0.97925  0.37247  0.06216  1.0000
  Cd  Cd1       1.0  0.75005  0.84144  0.59142  1.0000
  Cd  Cd2       1.0  0.24996  0.59131  0.84143  1.0000
  Cd  Cd3       1.0  0.24995  0.15856  0.40858  1.0000
  Cd  Cd4       1.0  0.75004  0.40869  0.15857  1.0000
  H   H1        1.0  0.60898  0.53949  0.46775  1.0000
  H   H2        1.0  0.89108  0.85880  0.43041  1.0000
  H   H3        1.0  0.07154  0.43034  0.53940  1.0000
  H   H4        1.0  0.42856  0.46776  0.85883  1.0000
  H   H5        1.0  0.39102  0.46051  0.53225  1.0000
  H   H6        1.0  0.10892  0.14120  0.56959  1.0000
  H   H7        1.0  0.92846  0.56966  0.46060  1.0000
  H   H8        1.0  0.57144  0.53224  0.14117  1.0000
  H   H9        1.0  0.40196  0.35340  0.27824  1.0000
  H   H10       1.0  0.09816  0.87636  0.45118  1.0000
  H   H11       1.0  0.07491  0.45123  0.35315  1.0000
  H   H12       1.0  0.42515  0.27837  0.87633  1.0000
  H   H13       1.0  0.59804  0.64660  0.72176  1.0000
  H   H14       1.0  0.90184  0.12365  0.54882  1.0000
  H   H15       1.0  0.92509  0.54877  0.64685  1.0000
  H   H16       1.0  0.57485  0.72163  0.12367  1.0000
  H   H17       1.0  0.26052  0.38963  0.10832  1.0000
  H   H18       1.0  0.23955  0.84784  0.62899  1.0000
  H   H19       1.0  0.28127  0.62910  0.38948  1.0000
  H   H20       1.0  0.21871  0.10854  0.84779  1.0000
  H   H21       1.0  0.73948  0.61037  0.89168  1.0000
  H   H22       1.0  0.76045  0.15217  0.37101  1.0000
  H   H23       1.0  0.71873  0.37090  0.61052  1.0000
  H   H24       1.0  0.78129  0.89146  0.15221  1.0000
  C   C1        1.0  0.50122  0.68761  0.32090  1.0000
  C   C2        1.0  0.99873  0.81963  0.68645  1.0000
  C   C3        1.0  0.36675  0.68643  0.68769  1.0000
  C   C4        1.0  0.13319  0.32084  0.81962  1.0000
  C   C5        1.0  0.49878  0.31239  0.67910  1.0000
  C   C6        1.0  0.00127  0.18037  0.31355  1.0000
  C   C7        1.0  0.63325  0.31357  0.31231  1.0000
  C   C8        1.0  0.86682  0.67916  0.18038  1.0000
  C   C9        1.0  0.54298  0.54939  0.39216  1.0000
  C   C10       1.0  0.95706  0.84919  0.50632  1.0000
  C   C11       1.0  0.15710  0.50628  0.54931  1.0000
  C   C12       1.0  0.34298  0.39217  0.84922  1.0000
  C   C13       1.0  0.45702  0.45061  0.60784  1.0000
  C   C14       1.0  0.04294  0.15081  0.49368  1.0000
  C   C15       1.0  0.84290  0.49372  0.45069  1.0000
  C   C16       1.0  0.65702  0.60783  0.15078  1.0000
  C   C17       1.0  0.54381  0.82347  0.35176  1.0000
  C   C18       1.0  0.95612  0.80791  0.77985  1.0000
  C   C19       1.0  0.47186  0.77981  0.82363  1.0000
  C   C20       1.0  0.02811  0.35167  0.80791  1.0000
  C   C21       1.0  0.45619  0.17653  0.64824  1.0000
  C   C22       1.0  0.04388  0.19209  0.22015  1.0000
  C   C23       1.0  0.52814  0.22019  0.17637  1.0000
  C   C24       1.0  0.97189  0.64834  0.19209  1.0000
  C   C25       1.0  0.42889  0.44650  0.28563  1.0000
  C   C26       1.0  0.07118  0.85677  0.51744  1.0000
  C   C27       1.0  0.16071  0.51746  0.44633  1.0000
  C   C28       1.0  0.33934  0.28573  0.85677  1.0000
  C   C29       1.0  0.57111  0.55350  0.71437  1.0000
  C   C30       1.0  0.92882  0.14323  0.48256  1.0000
  C   C31       1.0  0.83929  0.48254  0.55367  1.0000
  C   C32       1.0  0.66066  0.71427  0.14323  1.0000
  C   C33       1.0  0.38666  0.58910  0.20933  1.0000
  C   C34       1.0  0.11329  0.82261  0.70244  1.0000
  C   C35       1.0  0.37976  0.70247  0.58910  1.0000
  C   C36       1.0  0.12014  0.20941  0.82267  1.0000
  C   C37       1.0  0.61334  0.41090  0.79067  1.0000
  C   C38       1.0  0.88671  0.17739  0.29756  1.0000
  C   C39       1.0  0.62024  0.29753  0.41090  1.0000
  C   C40       1.0  0.87987  0.79059  0.17733  1.0000
  C   C41       1.0  0.35067  0.46755  0.19344  1.0000
  C   C42       1.0  0.14934  0.84276  0.61675  1.0000
  C   C43       1.0  0.27403  0.61682  0.46742  1.0000
  C   C44       1.0  0.22594  0.19359  0.84277  1.0000
  C   C45       1.0  0.64933  0.53245  0.80656  1.0000
  C   C46       1.0  0.85066  0.15724  0.38325  1.0000
  C   C47       1.0  0.72597  0.38318  0.53258  1.0000
  C   C48       1.0  0.77406  0.80642  0.15723  1.0000
  C   C49       1.0  0.30131  0.60678  0.10470  1.0000
  C   C50       1.0  0.19865  0.80335  0.80550  1.0000
  C   C51       1.0  0.50216  0.80555  0.60684  1.0000
  C   C52       1.0  0.99779  0.10470  0.80337  1.0000
  C   C53       1.0  0.69869  0.39322  0.89530  1.0000
  C   C54       1.0  0.80135  0.19665  0.19449  1.0000
  C   C55       1.0  0.49784  0.19445  0.39316  1.0000
  C   C56       1.0  0.00221  0.89530  0.19663  1.0000
  N   N1        1.0  0.57660  0.66558  0.40840  1.0000
  N   N2        1.0  0.92340  0.83179  0.58902  1.0000
  N   N3        1.0  0.25715  0.58892  0.66561  1.0000
  N   N4        1.0  0.24289  0.40834  0.83179  1.0000
  N   N5        1.0  0.42340  0.33442  0.59160  1.0000
  N   N6        1.0  0.07660  0.16821  0.41098  1.0000
  N   N7        1.0  0.74284  0.41108  0.33439  1.0000
  N   N8        1.0  0.75711  0.59166  0.16821  1.0000
  O   O1        1.0  0.45832  0.84353  0.28775  1.0000
  O   O2        1.0  0.04164  0.82939  0.88544  1.0000
  O   O3        1.0  0.55595  0.88539  0.84372  1.0000
  O   O4        1.0  0.94386  0.28769  0.82938  1.0000
  O   O5        1.0  0.54168  0.15647  0.71225  1.0000
  O   O6        1.0  0.95836  0.17061  0.11456  1.0000
  O   O7        1.0  0.44405  0.11461  0.15628  1.0000
  O   O8        1.0  0.05614  0.71231  0.17062  1.0000
  O   O9        1.0  0.66260  0.90613  0.44056  1.0000
  O   O10       1.0  0.83732  0.77796  0.74378  1.0000
  O   O11       1.0  0.46577  0.74372  0.90635  1.0000
  O   O12       1.0  0.03435  0.44044  0.77801  1.0000
  O   O13       1.0  0.33740  0.09387  0.55944  1.0000
  O   O14       1.0  0.16268  0.22204  0.25622  1.0000
  O   O15       1.0  0.53423  0.25628  0.09365  1.0000
  O   O16       1.0  0.96565  0.55956  0.22199  1.0000
  O   O17       1.0  0.18196  0.55984  0.07149  1.0000
  O   O18       1.0  0.31798  0.88945  0.87788  1.0000
  O   O19       1.0  0.48849  0.87789  0.55996  1.0000
  O   O20       1.0  0.01156  0.07144  0.88942  1.0000
  O   O21       1.0  0.81804  0.44016  0.92851  1.0000
  O   O22       1.0  0.68202  0.11055  0.12212  1.0000
  O   O23       1.0  0.51151  0.12211  0.44004  1.0000
  O   O24       1.0  0.98844  0.92856  0.11058  1.0000
  O   O25       1.0  0.35694  0.66020  0.05277  1.0000
  O   O26       1.0  0.14315  0.69590  0.80331  1.0000
  O   O27       1.0  0.60747  0.80339  0.66018  1.0000
  O   O28       1.0  0.89247  0.05269  0.69586  1.0000
  O   O29       1.0  0.64306  0.33980  0.94723  1.0000
  O   O30       1.0  0.85685  0.30409  0.19669  1.0000
  O   O31       1.0  0.39253  0.19661  0.33982  1.0000
  O   O32       1.0  0.10753  0.94731  0.30414  1.0000
