data_image0
_chemical_formula_structural       Cs4H12C8N16O16
_chemical_formula_sum              "Cs4 H12 C8 N16 O16"
_cell_length_a       6.54962
_cell_length_b       8.41126
_cell_length_c       13.2579
_cell_angle_alpha    89.9999
_cell_angle_beta     95.6357
_cell_angle_gamma    89.9991

_space_group_name_H-M_alt    "P 1"
_space_group_IT_number       1

loop_
  _space_group_symop_operation_xyz
  'x, y, z'

loop_
  _atom_site_type_symbol
  _atom_site_label
  _atom_site_symmetry_multiplicity
  _atom_site_fract_x
  _atom_site_fract_y
  _atom_site_fract_z
  _atom_site_occupancy
  Cs  Cs1       1.0  0.74882  0.45731  0.87600  1.0000
  Cs  Cs2       1.0  0.75120  0.95731  0.62400  1.0000
  Cs  Cs3       1.0  0.25118  0.54269  0.12400  1.0000
  Cs  Cs4       1.0  0.24880  0.04269  0.37600  1.0000
  H   H1        1.0  0.23116  0.81852  0.69659  1.0000
  H   H2        1.0  0.26885  0.31851  0.80341  1.0000
  H   H3        1.0  0.76884  0.18148  0.30341  1.0000
  H   H4        1.0  0.73115  0.68149  0.19659  1.0000
  H   H5        1.0  0.82722  0.22532  0.08353  1.0000
  H   H6        1.0  0.67278  0.72532  0.41647  1.0000
  H   H7        1.0  0.17278  0.77468  0.91647  1.0000
  H   H8        1.0  0.32722  0.27468  0.58353  1.0000
  H   H9        1.0  0.78628  0.38371  0.14356  1.0000
  H   H10       1.0  0.71372  0.88371  0.35643  1.0000
  H   H11       1.0  0.21372  0.61629  0.85643  1.0000
  H   H12       1.0  0.28628  0.11629  0.64357  1.0000
  C   C1        1.0  0.28020  0.56257  0.66993  1.0000
  C   C2        1.0  0.21981  0.06256  0.83007  1.0000
  C   C3        1.0  0.71980  0.43743  0.33007  1.0000
  C   C4        1.0  0.78019  0.93744  0.16993  1.0000
  C   C5        1.0  0.23061  0.59962  0.51125  1.0000
  C   C6        1.0  0.26939  0.09961  0.98875  1.0000
  C   C7        1.0  0.76939  0.40038  0.48875  1.0000
  C   C8        1.0  0.73061  0.90039  0.01125  1.0000
  N   N1        1.0  0.24281  0.72245  0.64737  1.0000
  N   N2        1.0  0.25719  0.22245  0.85264  1.0000
  N   N3        1.0  0.75719  0.27756  0.35263  1.0000
  N   N4        1.0  0.74281  0.77755  0.14736  1.0000
  N   N5        1.0  0.20909  0.74638  0.54653  1.0000
  N   N6        1.0  0.29091  0.24638  0.95347  1.0000
  N   N7        1.0  0.79091  0.25363  0.45346  1.0000
  N   N8        1.0  0.70909  0.75362  0.04653  1.0000
  N   N9        1.0  0.27352  0.48352  0.58033  1.0000
  N   N10       1.0  0.22648  0.98351  0.91968  1.0000
  N   N11       1.0  0.72648  0.51648  0.41967  1.0000
  N   N12       1.0  0.77351  0.01648  0.08032  1.0000
  N   N13       1.0  0.20567  0.56968  0.40438  1.0000
  N   N14       1.0  0.29434  0.06969  0.09564  1.0000
  N   N15       1.0  0.79433  0.43032  0.59562  1.0000
  N   N16       1.0  0.70566  0.93031  0.90436  1.0000
  O   O1        1.0  0.31345  0.50688  0.75908  1.0000
  O   O2        1.0  0.18657  0.00688  0.74094  1.0000
  O   O3        1.0  0.68655  0.49312  0.24092  1.0000
  O   O4        1.0  0.81343  0.99312  0.25907  1.0000
  O   O5        1.0  0.15837  0.68239  0.34542  1.0000
  O   O6        1.0  0.34163  0.18239  0.15458  1.0000
  O   O7        1.0  0.84163  0.31762  0.65457  1.0000
  O   O8        1.0  0.65837  0.81761  0.84542  1.0000
  O   O9        1.0  0.23162  0.43062  0.37536  1.0000
  O   O10       1.0  0.26841  0.93062  0.12465  1.0000
  O   O11       1.0  0.76839  0.56937  0.62464  1.0000
  O   O12       1.0  0.73159  0.06938  0.87535  1.0000
  O   O13       1.0  0.86228  0.34044  0.08877  1.0000
  O   O14       1.0  0.63773  0.84044  0.41123  1.0000
  O   O15       1.0  0.13773  0.65956  0.91123  1.0000
  O   O16       1.0  0.36227  0.15956  0.58877  1.0000
