data_image0
_chemical_formula_structural       U4H40C24N8O32
_chemical_formula_sum              "U4 H40 C24 N8 O32"
_cell_length_a       6.98888
_cell_length_b       11.1405
_cell_length_c       14.4934
_cell_angle_alpha    92.0373
_cell_angle_beta     90
_cell_angle_gamma    90

_space_group_name_H-M_alt    "P 1"
_space_group_IT_number       1

loop_
  _space_group_symop_operation_xyz
  'x, y, z'

loop_
  _atom_site_type_symbol
  _atom_site_label
  _atom_site_symmetry_multiplicity
  _atom_site_fract_x
  _atom_site_fract_y
  _atom_site_fract_z
  _atom_site_occupancy
  U   U1        1.0  0.45605  0.45305  0.71986  1.0000
  U   U2        1.0  0.95604  0.04695  0.78012  1.0000
  U   U3        1.0  0.54395  0.54695  0.28014  1.0000
  U   U4        1.0  0.04396  0.95305  0.21988  1.0000
  H   H1        1.0  0.19042  0.65944  0.77332  1.0000
  H   H2        1.0  0.69041  0.84056  0.72668  1.0000
  H   H3        1.0  0.80958  0.34056  0.22668  1.0000
  H   H4        1.0  0.30959  0.15944  0.27332  1.0000
  H   H5        1.0  0.36685  0.72255  0.71536  1.0000
  H   H6        1.0  0.86685  0.77745  0.78463  1.0000
  H   H7        1.0  0.63315  0.27745  0.28463  1.0000
  H   H8        1.0  0.13314  0.22255  0.21537  1.0000
  H   H9        1.0  0.29504  0.43251  0.48957  1.0000
  H   H10       1.0  0.79504  0.06749  0.01042  1.0000
  H   H11       1.0  0.70496  0.56749  0.51042  1.0000
  H   H12       1.0  0.20496  0.93251  0.98957  1.0000
  H   H13       1.0  0.84421  0.29238  0.63072  1.0000
  H   H14       1.0  0.34421  0.20762  0.86928  1.0000
  H   H15       1.0  0.15579  0.70761  0.36928  1.0000
  H   H16       1.0  0.65579  0.79239  0.13072  1.0000
  H   H17       1.0  0.81444  0.46477  0.93752  1.0000
  H   H18       1.0  0.31443  0.03524  0.56248  1.0000
  H   H19       1.0  0.18557  0.53523  0.06249  1.0000
  H   H20       1.0  0.68557  0.96476  0.43752  1.0000
  H   H21       1.0  0.05316  0.46344  0.89487  1.0000
  H   H22       1.0  0.55316  0.03656  0.60513  1.0000
  H   H23       1.0  0.94684  0.53656  0.10513  1.0000
  H   H24       1.0  0.44684  0.96344  0.39487  1.0000
  H   H25       1.0  0.16336  0.24201  0.40529  1.0000
  H   H26       1.0  0.66336  0.25799  0.09470  1.0000
  H   H27       1.0  0.83665  0.75799  0.59471  1.0000
  H   H28       1.0  0.33665  0.74201  0.90529  1.0000
  H   H29       1.0  0.03278  0.36966  0.36976  1.0000
  H   H30       1.0  0.53278  0.13034  0.13024  1.0000
  H   H31       1.0  0.96722  0.63034  0.63024  1.0000
  H   H32       1.0  0.46723  0.86966  0.86976  1.0000
  H   H33       1.0  0.75840  0.31160  0.45482  1.0000
  H   H34       1.0  0.25840  0.18840  0.04518  1.0000
  H   H35       1.0  0.24160  0.68841  0.54518  1.0000
  H   H36       1.0  0.74160  0.81159  0.95482  1.0000
  H   H37       1.0  0.87750  0.17337  0.47507  1.0000
  H   H38       1.0  0.37750  0.32664  0.02493  1.0000
  H   H39       1.0  0.12250  0.82663  0.52493  1.0000
  H   H40       1.0  0.62250  0.67337  0.97506  1.0000
  C   C1        1.0  0.90252  0.46366  0.87421  1.0000
  C   C2        1.0  0.40252  0.03635  0.62579  1.0000
  C   C3        1.0  0.09748  0.53634  0.12579  1.0000
  C   C4        1.0  0.59748  0.96365  0.37421  1.0000
  C   C5        1.0  0.85846  0.34634  0.82176  1.0000
  C   C6        1.0  0.35846  0.15367  0.67824  1.0000
  C   C7        1.0  0.14154  0.65366  0.17824  1.0000
  C   C8        1.0  0.64154  0.84633  0.32176  1.0000
  C   C9        1.0  0.85380  0.57681  0.82402  1.0000
  C   C10       1.0  0.35380  0.92319  0.67598  1.0000
  C   C11       1.0  0.14620  0.42319  0.17598  1.0000
  C   C12       1.0  0.64620  0.07681  0.32402  1.0000
  C   C13       1.0  0.08617  0.37887  0.58355  1.0000
  C   C14       1.0  0.58618  0.12113  0.91645  1.0000
  C   C15       1.0  0.91383  0.62112  0.41645  1.0000
  C   C16       1.0  0.41383  0.87888  0.08355  1.0000
  C   C17       1.0  0.07100  0.31656  0.42922  1.0000
  C   C18       1.0  0.57100  0.18344  0.07078  1.0000
  C   C19       1.0  0.92900  0.68344  0.57078  1.0000
  C   C20       1.0  0.42900  0.81656  0.92922  1.0000
  C   C21       1.0  0.89095  0.27154  0.48056  1.0000
  C   C22       1.0  0.39095  0.22846  0.01944  1.0000
  C   C23       1.0  0.10905  0.72846  0.51944  1.0000
  C   C24       1.0  0.60905  0.77154  0.98056  1.0000
  N   N1        1.0  0.16811  0.39020  0.50035  1.0000
  N   N2        1.0  0.66811  0.10980  0.99964  1.0000
  N   N3        1.0  0.83189  0.60980  0.49964  1.0000
  N   N4        1.0  0.33189  0.89020  0.00036  1.0000
  N   N5        1.0  0.92814  0.31106  0.57568  1.0000
  N   N6        1.0  0.42814  0.18894  0.92432  1.0000
  N   N7        1.0  0.07186  0.68893  0.42431  1.0000
  N   N8        1.0  0.57186  0.81106  0.07568  1.0000
  O   O1        1.0  0.54152  0.49084  0.60586  1.0000
  O   O2        1.0  0.04152  0.00917  0.89414  1.0000
  O   O3        1.0  0.45848  0.50917  0.39414  1.0000
  O   O4        1.0  0.95848  0.99083  0.10587  1.0000
  O   O5        1.0  0.36752  0.42142  0.83418  1.0000
  O   O6        1.0  0.86752  0.07858  0.66582  1.0000
  O   O7        1.0  0.63247  0.57858  0.16582  1.0000
  O   O8        1.0  0.13248  0.92142  0.33418  1.0000
  O   O9        1.0  0.73705  0.34561  0.75579  1.0000
  O   O10       1.0  0.23705  0.15440  0.74420  1.0000
  O   O11       1.0  0.26295  0.65439  0.24421  1.0000
  O   O12       1.0  0.76295  0.84560  0.25580  1.0000
  O   O13       1.0  0.94510  0.25346  0.84672  1.0000
  O   O14       1.0  0.44510  0.24654  0.65328  1.0000
  O   O15       1.0  0.05491  0.74654  0.15328  1.0000
  O   O16       1.0  0.55490  0.75346  0.34672  1.0000
  O   O17       1.0  0.69179  0.58395  0.78387  1.0000
  O   O18       1.0  0.19179  0.91606  0.71613  1.0000
  O   O19       1.0  0.30821  0.41605  0.21613  1.0000
  O   O20       1.0  0.80821  0.08395  0.28387  1.0000
  O   O21       1.0  0.97180  0.66359  0.82639  1.0000
  O   O22       1.0  0.47180  0.83641  0.67360  1.0000
  O   O23       1.0  0.02821  0.33641  0.17361  1.0000
  O   O24       1.0  0.52820  0.16359  0.32640  1.0000
  O   O25       1.0  0.14666  0.42520  0.66033  1.0000
  O   O26       1.0  0.64666  0.07481  0.83967  1.0000
  O   O27       1.0  0.85334  0.57480  0.33967  1.0000
  O   O28       1.0  0.35334  0.92520  0.16033  1.0000
  O   O29       1.0  0.30937  0.64470  0.73714  1.0000
  O   O30       1.0  0.80936  0.85530  0.76285  1.0000
  O   O31       1.0  0.69063  0.35530  0.26286  1.0000
  O   O32       1.0  0.19064  0.14470  0.23715  1.0000
