data_image0
_chemical_formula_structural       Cu2H36C52N4O16
_chemical_formula_sum              "Cu2 H36 C52 N4 O16"
_cell_length_a       7.67143
_cell_length_b       7.6718
_cell_length_c       19.675
_cell_angle_alpha    95.4566
_cell_angle_beta     95.4569
_cell_angle_gamma    92.7472

_space_group_name_H-M_alt    "P 1"
_space_group_IT_number       1

loop_
  _space_group_symop_operation_xyz
  'x, y, z'

loop_
  _atom_site_type_symbol
  _atom_site_label
  _atom_site_symmetry_multiplicity
  _atom_site_fract_x
  _atom_site_fract_y
  _atom_site_fract_z
  _atom_site_occupancy
  Cu  Cu1       1.0  0.64540  0.35460  0.25000  1.0000
  Cu  Cu2       1.0  0.35460  0.64540  0.75000  1.0000
  H   H1        1.0  0.70552  0.35148  0.50570  1.0000
  H   H2        1.0  0.64852  0.29445  0.99430  1.0000
  H   H3        1.0  0.29447  0.64852  0.49430  1.0000
  H   H4        1.0  0.35147  0.70554  0.00570  1.0000
  H   H5        1.0  0.08702  0.58260  0.38834  1.0000
  H   H6        1.0  0.41739  0.91298  0.11166  1.0000
  H   H7        1.0  0.91297  0.41740  0.61166  1.0000
  H   H8        1.0  0.58261  0.08702  0.88834  1.0000
  H   H9        1.0  0.55546  0.64865  0.34862  1.0000
  H   H10       1.0  0.35135  0.44456  0.15138  1.0000
  H   H11       1.0  0.44454  0.35134  0.65138  1.0000
  H   H12       1.0  0.64866  0.55545  0.84862  1.0000
  H   H13       1.0  0.34205  0.87885  0.35147  1.0000
  H   H14       1.0  0.12114  0.65795  0.14853  1.0000
  H   H15       1.0  0.65795  0.12115  0.64853  1.0000
  H   H16       1.0  0.87886  0.34205  0.85147  1.0000
  H   H17       1.0  0.26520  0.14203  0.24755  1.0000
  H   H18       1.0  0.85797  0.73482  0.25244  1.0000
  H   H19       1.0  0.73480  0.85797  0.75244  1.0000
  H   H20       1.0  0.14203  0.26518  0.74756  1.0000
  H   H21       1.0  0.03164  0.35923  0.24922  1.0000
  H   H22       1.0  0.64074  0.96836  0.25078  1.0000
  H   H23       1.0  0.96836  0.64076  0.75078  1.0000
  H   H24       1.0  0.35926  0.03164  0.74922  1.0000
  H   H25       1.0  0.51728  0.76788  0.58810  1.0000
  H   H26       1.0  0.23212  0.48271  0.91190  1.0000
  H   H27       1.0  0.48272  0.23212  0.41190  1.0000
  H   H28       1.0  0.76788  0.51729  0.08810  1.0000
  H   H29       1.0  0.93923  0.91554  0.61452  1.0000
  H   H30       1.0  0.08447  0.06077  0.88548  1.0000
  H   H31       1.0  0.06077  0.08447  0.38548  1.0000
  H   H32       1.0  0.91553  0.93924  0.11452  1.0000
  H   H33       1.0  0.76925  0.94206  0.40169  1.0000
  H   H34       1.0  0.05794  0.23074  0.09831  1.0000
  H   H35       1.0  0.23076  0.05795  0.59831  1.0000
  H   H36       1.0  0.94206  0.76926  0.90170  1.0000
  C   C1        1.0  0.76736  0.41934  0.37710  1.0000
  C   C2        1.0  0.58065  0.23264  0.12290  1.0000
  C   C3        1.0  0.23264  0.58066  0.62290  1.0000
  C   C4        1.0  0.41934  0.76736  0.87711  1.0000
  C   C5        1.0  0.88544  0.46391  0.44096  1.0000
  C   C6        1.0  0.53609  0.11456  0.05904  1.0000
  C   C7        1.0  0.11456  0.53609  0.55904  1.0000
  C   C8        1.0  0.46391  0.88544  0.94096  1.0000
  C   C9        1.0  0.83413  0.41637  0.50346  1.0000
  C   C10       1.0  0.58363  0.16586  0.99654  1.0000
  C   C11       1.0  0.16587  0.58364  0.49654  1.0000
  C   C12       1.0  0.41637  0.83414  0.00346  1.0000
  C   C13       1.0  0.05062  0.54736  0.43761  1.0000
  C   C14       1.0  0.45263  0.94938  0.06239  1.0000
  C   C15       1.0  0.94937  0.45264  0.56239  1.0000
  C   C16       1.0  0.54737  0.05062  0.93761  1.0000
  C   C17       1.0  0.45963  0.65546  0.30470  1.0000
  C   C18       1.0  0.34454  0.54038  0.19530  1.0000
  C   C19       1.0  0.54037  0.34453  0.69530  1.0000
  C   C20       1.0  0.65547  0.45963  0.80470  1.0000
  C   C21       1.0  0.33846  0.78437  0.30623  1.0000
  C   C22       1.0  0.21563  0.66155  0.19377  1.0000
  C   C23       1.0  0.66154  0.21562  0.69377  1.0000
  C   C24       1.0  0.78438  0.33845  0.80623  1.0000
  C   C25       1.0  0.21251  0.78749  0.25000  1.0000
  C   C26       1.0  0.78749  0.21251  0.75000  1.0000
  C   C27       1.0  0.07935  0.92066  0.25000  1.0000
  C   C28       1.0  0.92065  0.07934  0.75000  1.0000
  C   C29       1.0  0.12862  0.09867  0.24945  1.0000
  C   C30       1.0  0.90132  0.87139  0.25055  1.0000
  C   C31       1.0  0.87138  0.90133  0.75055  1.0000
  C   C32       1.0  0.09867  0.12861  0.74945  1.0000
  C   C33       1.0  0.99941  0.21953  0.24943  1.0000
  C   C34       1.0  0.78046  0.00058  0.25057  1.0000
  C   C35       1.0  0.00058  0.78047  0.75057  1.0000
  C   C36       1.0  0.21954  0.99941  0.74943  1.0000
  C   C37       1.0  0.66169  0.83732  0.51700  1.0000
  C   C38       1.0  0.16269  0.33830  0.98300  1.0000
  C   C39       1.0  0.33831  0.16269  0.48300  1.0000
  C   C40       1.0  0.83732  0.66171  0.01701  1.0000
  C   C41       1.0  0.83666  0.92140  0.50902  1.0000
  C   C42       1.0  0.07860  0.16333  0.99098  1.0000
  C   C43       1.0  0.16334  0.07860  0.49098  1.0000
  C   C44       1.0  0.92140  0.83667  0.00902  1.0000
  C   C45       1.0  0.96635  0.95422  0.56466  1.0000
  C   C46       1.0  0.04579  0.03365  0.93534  1.0000
  C   C47       1.0  0.03365  0.04578  0.43534  1.0000
  C   C48       1.0  0.95422  0.96635  0.06466  1.0000
  C   C49       1.0  0.87158  0.96726  0.44428  1.0000
  C   C50       1.0  0.03273  0.12842  0.05572  1.0000
  C   C51       1.0  0.12842  0.03274  0.55572  1.0000
  C   C52       1.0  0.96727  0.87159  0.94428  1.0000
  N   N1        1.0  0.46405  0.53595  0.25000  1.0000
  N   N2        1.0  0.53595  0.46405  0.75000  1.0000
  N   N3        1.0  0.82859  0.17140  0.25000  1.0000
  N   N4        1.0  0.17141  0.82860  0.75000  1.0000
  O   O1        1.0  0.80536  0.49264  0.32326  1.0000
  O   O2        1.0  0.50735  0.19464  0.17674  1.0000
  O   O3        1.0  0.19464  0.50736  0.67674  1.0000
  O   O4        1.0  0.49265  0.80536  0.82327  1.0000
  O   O5        1.0  0.63761  0.30960  0.37394  1.0000
  O   O6        1.0  0.69039  0.36238  0.12605  1.0000
  O   O7        1.0  0.36238  0.69040  0.62605  1.0000
  O   O8        1.0  0.30960  0.63762  0.87395  1.0000
  O   O9        1.0  0.55319  0.78465  0.46815  1.0000
  O   O10       1.0  0.21535  0.44680  0.03186  1.0000
  O   O11       1.0  0.44681  0.21535  0.53185  1.0000
  O   O12       1.0  0.78465  0.55320  0.96814  1.0000
  O   O13       1.0  0.63590  0.82628  0.58275  1.0000
  O   O14       1.0  0.17373  0.36410  0.91725  1.0000
  O   O15       1.0  0.36410  0.17372  0.41725  1.0000
  O   O16       1.0  0.82627  0.63590  0.08275  1.0000
