data_image0
_chemical_formula_structural       Tl4H32C20N4O16
_chemical_formula_sum              "Tl4 H32 C20 N4 O16"
_cell_length_a       5.35013
_cell_length_b       9.56321
_cell_length_c       16.0213
_cell_angle_alpha    107.221
_cell_angle_beta     89.9995
_cell_angle_gamma    90

_space_group_name_H-M_alt    "P 1"
_space_group_IT_number       1

loop_
  _space_group_symop_operation_xyz
  'x, y, z'

loop_
  _atom_site_type_symbol
  _atom_site_label
  _atom_site_symmetry_multiplicity
  _atom_site_fract_x
  _atom_site_fract_y
  _atom_site_fract_z
  _atom_site_occupancy
  Tl  Tl1       1.0  0.96085  0.68021  0.08984  1.0000
  Tl  Tl2       1.0  0.46085  0.31977  0.91016  1.0000
  Tl  Tl3       1.0  0.44736  0.81793  0.91432  1.0000
  Tl  Tl4       1.0  0.94735  0.18204  0.08566  1.0000
  H   H1        1.0  0.52154  0.40838  0.52531  1.0000
  H   H2        1.0  0.02155  0.59164  0.47469  1.0000
  H   H3        1.0  0.45489  0.55743  0.61032  1.0000
  H   H4        1.0  0.95486  0.44258  0.38969  1.0000
  H   H5        1.0  0.36091  0.38546  0.61025  1.0000
  H   H6        1.0  0.86090  0.61454  0.38976  1.0000
  H   H7        1.0  0.41566  0.14248  0.48942  1.0000
  H   H8        1.0  0.91571  0.85754  0.51058  1.0000
  H   H9        1.0  0.31137  0.98320  0.42007  1.0000
  H   H10       1.0  0.81141  0.01680  0.57993  1.0000
  H   H11       1.0  0.25424  0.14802  0.40032  1.0000
  H   H12       1.0  0.75429  0.85198  0.59968  1.0000
  H   H13       1.0  0.88044  0.50553  0.61266  1.0000
  H   H14       1.0  0.38045  0.49446  0.38733  1.0000
  H   H15       1.0  0.65295  0.59716  0.75165  1.0000
  H   H16       1.0  0.15291  0.40285  0.24835  1.0000
  H   H17       1.0  0.58977  0.41702  0.75394  1.0000
  H   H18       1.0  0.08976  0.58301  0.24607  1.0000
  H   H19       1.0  0.04879  0.37191  0.76597  1.0000
  H   H20       1.0  0.54877  0.62809  0.23403  1.0000
  H   H21       1.0  0.11959  0.54493  0.75564  1.0000
  H   H22       1.0  0.61956  0.45509  0.24437  1.0000
  H   H23       1.0  0.75572  0.01571  0.40941  1.0000
  H   H24       1.0  0.25574  0.98430  0.59059  1.0000
  H   H25       1.0  0.80113  0.97548  0.25470  1.0000
  H   H26       1.0  0.30114  0.02454  0.74529  1.0000
  H   H27       1.0  0.54647  0.87513  0.27680  1.0000
  H   H28       1.0  0.04646  0.12489  0.72320  1.0000
  H   H29       1.0  0.24498  0.05468  0.24718  1.0000
  H   H30       1.0  0.74501  0.94531  0.75282  1.0000
  H   H31       1.0  0.49126  0.16906  0.23526  1.0000
  H   H32       1.0  0.99132  0.83092  0.76473  1.0000
  C   C1        1.0  0.85104  0.27566  0.60029  1.0000
  C   C2        1.0  0.35103  0.72435  0.39972  1.0000
  C   C3        1.0  0.75183  0.43290  0.63345  1.0000
  C   C4        1.0  0.25181  0.56711  0.36655  1.0000
  C   C5        1.0  0.72821  0.48495  0.73300  1.0000
  C   C6        1.0  0.22820  0.51508  0.26700  1.0000
  C   C7        1.0  0.97552  0.48414  0.77971  1.0000
  C   C8        1.0  0.47549  0.51585  0.22029  1.0000
  C   C9        1.0  0.96268  0.54769  0.87883  1.0000
  C   C10       1.0  0.46267  0.45229  0.12117  1.0000
  C   C11       1.0  0.74290  0.22782  0.38832  1.0000
  C   C12       1.0  0.24294  0.77220  0.61169  1.0000
  C   C13       1.0  0.63137  0.07538  0.37733  1.0000
  C   C14       1.0  0.13140  0.92464  0.62267  1.0000
  C   C15       1.0  0.60974  0.98619  0.28101  1.0000
  C   C16       1.0  0.10972  0.01382  0.71899  1.0000
  C   C17       1.0  0.44177  0.05394  0.22625  1.0000
  C   C18       1.0  0.94179  0.94605  0.77375  1.0000
  C   C19       1.0  0.44993  0.97225  0.12835  1.0000
  C   C20       1.0  0.94993  0.02771  0.87166  1.0000
  N   N1        1.0  0.50444  0.44673  0.59371  1.0000
  N   N2        1.0  0.00443  0.55327  0.40629  1.0000
  N   N3        1.0  0.38653  0.08907  0.42382  1.0000
  N   N4        1.0  0.88657  0.91093  0.57618  1.0000
  O   O1        1.0  0.17021  0.56912  0.91989  1.0000
  O   O2        1.0  0.67021  0.43086  0.08012  1.0000
  O   O3        1.0  0.75108  0.57457  0.91603  1.0000
  O   O4        1.0  0.25108  0.42539  0.08397  1.0000
  O   O5        1.0  0.68721  0.17328  0.58227  1.0000
  O   O6        1.0  0.18719  0.82672  0.41772  1.0000
  O   O7        1.0  0.08496  0.25783  0.59611  1.0000
  O   O8        1.0  0.58495  0.74219  0.40389  1.0000
  O   O9        1.0  0.46620  0.83342  0.10426  1.0000
  O   O10       1.0  0.96619  0.16654  0.89575  1.0000
  O   O11       1.0  0.43625  0.05007  0.07594  1.0000
  O   O12       1.0  0.93629  0.94989  0.92406  1.0000
  O   O13       1.0  0.96626  0.23444  0.36307  1.0000
  O   O14       1.0  0.46629  0.76559  0.63693  1.0000
  O   O15       1.0  0.60368  0.33857  0.42028  1.0000
  O   O16       1.0  0.10373  0.66145  0.57972  1.0000
