data_image0
_chemical_formula_structural       Cd8H32C8Se8N8
_chemical_formula_sum              "Cd8 H32 C8 Se8 N8"
_cell_length_a       6.69838
_cell_length_b       7.11871
_cell_length_c       16.7059
_cell_angle_alpha    89.9998
_cell_angle_beta     89.9993
_cell_angle_gamma    90.0004

_space_group_name_H-M_alt    "P 1"
_space_group_IT_number       1

loop_
  _space_group_symop_operation_xyz
  'x, y, z'

loop_
  _atom_site_type_symbol
  _atom_site_label
  _atom_site_symmetry_multiplicity
  _atom_site_fract_x
  _atom_site_fract_y
  _atom_site_fract_z
  _atom_site_occupancy
  Cd  Cd1       1.0  0.92560  0.40161  0.70028  1.0000
  Cd  Cd2       1.0  0.42560  0.09838  0.70029  1.0000
  Cd  Cd3       1.0  0.57440  0.40161  0.20029  1.0000
  Cd  Cd4       1.0  0.92561  0.90162  0.79971  1.0000
  Cd  Cd5       1.0  0.07440  0.59840  0.29972  1.0000
  Cd  Cd6       1.0  0.57440  0.90162  0.29971  1.0000
  Cd  Cd7       1.0  0.42561  0.59838  0.79971  1.0000
  Cd  Cd8       1.0  0.07440  0.09838  0.20029  1.0000
  H   H1        1.0  0.21975  0.55463  0.59795  1.0000
  H   H2        1.0  0.71974  0.94537  0.59795  1.0000
  H   H3        1.0  0.28026  0.55462  0.09796  1.0000
  H   H4        1.0  0.21978  0.05463  0.90205  1.0000
  H   H5        1.0  0.78025  0.44538  0.40204  1.0000
  H   H6        1.0  0.28026  0.05462  0.40205  1.0000
  H   H7        1.0  0.71977  0.44539  0.90204  1.0000
  H   H8        1.0  0.78025  0.94538  0.09795  1.0000
  H   H9        1.0  0.06855  0.72688  0.62433  1.0000
  H   H10       1.0  0.56857  0.77313  0.62433  1.0000
  H   H11       1.0  0.43143  0.72684  0.12433  1.0000
  H   H12       1.0  0.06859  0.22685  0.87567  1.0000
  H   H13       1.0  0.93141  0.27317  0.37567  1.0000
  H   H14       1.0  0.43141  0.22685  0.37567  1.0000
  H   H15       1.0  0.56859  0.27314  0.87566  1.0000
  H   H16       1.0  0.93142  0.77316  0.12433  1.0000
  H   H17       1.0  0.02543  0.71157  0.48461  1.0000
  H   H18       1.0  0.52546  0.78843  0.48461  1.0000
  H   H19       1.0  0.47456  0.71154  0.98461  1.0000
  H   H20       1.0  0.02548  0.21155  0.01539  1.0000
  H   H21       1.0  0.97453  0.28847  0.51539  1.0000
  H   H22       1.0  0.47454  0.21153  0.51539  1.0000
  H   H23       1.0  0.52549  0.28845  0.01539  1.0000
  H   H24       1.0  0.97455  0.78846  0.98461  1.0000
  H   H25       1.0  0.81445  0.60386  0.52993  1.0000
  H   H26       1.0  0.31446  0.89612  0.52992  1.0000
  H   H27       1.0  0.68555  0.60386  0.02993  1.0000
  H   H28       1.0  0.81449  0.10387  0.97007  1.0000
  H   H29       1.0  0.18552  0.39616  0.47007  1.0000
  H   H30       1.0  0.68553  0.10384  0.47008  1.0000
  H   H31       1.0  0.31450  0.39613  0.97008  1.0000
  H   H32       1.0  0.18555  0.89614  0.02993  1.0000
  C   C1        1.0  0.97712  0.59133  0.52158  1.0000
  C   C2        1.0  0.47714  0.90866  0.52158  1.0000
  C   C3        1.0  0.52287  0.59132  0.02159  1.0000
  C   C4        1.0  0.97715  0.09132  0.97842  1.0000
  C   C5        1.0  0.02284  0.40869  0.47841  1.0000
  C   C6        1.0  0.52285  0.09130  0.47841  1.0000
  C   C7        1.0  0.47715  0.40868  0.97842  1.0000
  C   C8        1.0  0.02285  0.90868  0.02159  1.0000
  Se  Se1       1.0  0.04241  0.05555  0.66367  1.0000
  Se  Se2       1.0  0.54241  0.44445  0.66367  1.0000
  Se  Se3       1.0  0.45758  0.05555  0.16367  1.0000
  Se  Se4       1.0  0.04242  0.55555  0.83632  1.0000
  Se  Se5       1.0  0.95757  0.94446  0.33633  1.0000
  Se  Se6       1.0  0.45759  0.55556  0.33633  1.0000
  Se  Se7       1.0  0.54242  0.94445  0.83632  1.0000
  Se  Se8       1.0  0.95759  0.44445  0.16368  1.0000
  N   N1        1.0  0.07153  0.59255  0.60114  1.0000
  N   N2        1.0  0.57156  0.90745  0.60114  1.0000
  N   N3        1.0  0.42844  0.59255  0.10113  1.0000
  N   N4        1.0  0.07156  0.09255  0.89886  1.0000
  N   N5        1.0  0.92843  0.40744  0.39888  1.0000
  N   N6        1.0  0.42842  0.09254  0.39887  1.0000
  N   N7        1.0  0.57156  0.40747  0.89886  1.0000
  N   N8        1.0  0.92845  0.90743  0.10113  1.0000
