data_image0
_chemical_formula_structural       Cu2H30C54N8O8F2
_chemical_formula_sum              "Cu2 H30 C54 N8 O8 F2"
_cell_length_a       9.69191
_cell_length_b       10.864
_cell_length_c       11.865
_cell_angle_alpha    62.4841
_cell_angle_beta     69.889
_cell_angle_gamma    79.8859

_space_group_name_H-M_alt    "P 1"
_space_group_IT_number       1

loop_
  _space_group_symop_operation_xyz
  'x, y, z'

loop_
  _atom_site_type_symbol
  _atom_site_label
  _atom_site_symmetry_multiplicity
  _atom_site_fract_x
  _atom_site_fract_y
  _atom_site_fract_z
  _atom_site_occupancy
  Cu  Cu1       1.0  0.51565  0.13168  0.84335  1.0000
  Cu  Cu2       1.0  0.48435  0.86832  0.15664  1.0000
  H   H1        1.0  0.49033  0.00208  0.66823  1.0000
  H   H2        1.0  0.50966  0.99792  0.33177  1.0000
  H   H3        1.0  0.29612  0.01501  0.56524  1.0000
  H   H4        1.0  0.70387  0.98499  0.43476  1.0000
  H   H5        1.0  0.08354  0.17887  0.57917  1.0000
  H   H6        1.0  0.91646  0.82113  0.42083  1.0000
  H   H7        1.0  0.48096  0.32633  0.97869  1.0000
  H   H8        1.0  0.51903  0.67366  0.02132  1.0000
  H   H9        1.0  0.29789  0.52046  0.99722  1.0000
  H   H10       1.0  0.70211  0.47953  0.00279  1.0000
  H   H11       1.0  0.09393  0.57653  0.89681  1.0000
  H   H12       1.0  0.90607  0.42347  0.10320  1.0000
  H   H13       1.0  0.69244  0.46815  0.56554  1.0000
  H   H14       1.0  0.30756  0.53186  0.43447  1.0000
  H   H15       1.0  0.45623  0.59360  0.53392  1.0000
  H   H16       1.0  0.54377  0.40640  0.46609  1.0000
  H   H17       1.0  0.45805  0.78451  0.78008  1.0000
  H   H18       1.0  0.54194  0.21549  0.21993  1.0000
  H   H19       1.0  0.70292  0.67337  0.79849  1.0000
  H   H20       1.0  0.29708  0.32664  0.20152  1.0000
  H   H21       1.0  0.86487  0.84359  0.73283  1.0000
  H   H22       1.0  0.13514  0.15643  0.26715  1.0000
  H   H23       1.0  0.92937  0.25027  0.40222  1.0000
  H   H24       1.0  0.07063  0.74974  0.59777  1.0000
  H   H25       1.0  0.84484  0.93864  0.90527  1.0000
  H   H26       1.0  0.15516  0.06136  0.09473  1.0000
  H   H27       1.0  0.91027  0.18167  0.08206  1.0000
  H   H28       1.0  0.08973  0.81833  0.91794  1.0000
  H   H29       1.0  0.87180  0.33757  0.63853  1.0000
  H   H30       1.0  0.12820  0.66244  0.36147  1.0000
  C   C1        1.0  0.39370  0.06987  0.67399  1.0000
  C   C2        1.0  0.60630  0.93013  0.32600  1.0000
  C   C3        1.0  0.28572  0.07913  0.61616  1.0000
  C   C4        1.0  0.71427  0.92087  0.38384  1.0000
  C   C5        1.0  0.16709  0.16949  0.62496  1.0000
  C   C6        1.0  0.83291  0.83051  0.37505  1.0000
  C   C7        1.0  0.15658  0.25090  0.69186  1.0000
  C   C8        1.0  0.84342  0.74910  0.30814  1.0000
  C   C9        1.0  0.27000  0.23490  0.74831  1.0000
  C   C10       1.0  0.72999  0.76510  0.25169  1.0000
  C   C11       1.0  0.27078  0.31409  0.81730  1.0000
  C   C12       1.0  0.72922  0.68591  0.18270  1.0000
  C   C13       1.0  0.38894  0.35521  0.93721  1.0000
  C   C14       1.0  0.61106  0.64479  0.06280  1.0000
  C   C15       1.0  0.28717  0.46235  0.94665  1.0000
  C   C16       1.0  0.71283  0.53764  0.05336  1.0000
  C   C17       1.0  0.17388  0.49397  0.89102  1.0000
  C   C18       1.0  0.82612  0.50603  0.10898  1.0000
  C   C19       1.0  0.16253  0.41878  0.82473  1.0000
  C   C20       1.0  0.83747  0.58122  0.17527  1.0000
  C   C21       1.0  0.04890  0.43616  0.76649  1.0000
  C   C22       1.0  0.95111  0.56384  0.23351  1.0000
  C   C23       1.0  0.04510  0.35142  0.70681  1.0000
  C   C24       1.0  0.95490  0.64857  0.29319  1.0000
  C   C25       1.0  0.85329  0.49589  0.70454  1.0000
  C   C26       1.0  0.14671  0.50411  0.29546  1.0000
  C   C27       1.0  0.71461  0.56373  0.68375  1.0000
  C   C28       1.0  0.28539  0.43628  0.31626  1.0000
  C   C29       1.0  0.64420  0.53991  0.60995  1.0000
  C   C30       1.0  0.35581  0.46010  0.39005  1.0000
  C   C31       1.0  0.51164  0.60759  0.59292  1.0000
  C   C32       1.0  0.48836  0.39241  0.40709  1.0000
  C   C33       1.0  0.44990  0.69666  0.65237  1.0000
  C   C34       1.0  0.55010  0.30334  0.34764  1.0000
  C   C35       1.0  0.51416  0.72062  0.72842  1.0000
  C   C36       1.0  0.48583  0.27939  0.27159  1.0000
  C   C37       1.0  0.64813  0.65525  0.74162  1.0000
  C   C38       1.0  0.35187  0.34475  0.25839  1.0000
  C   C39       1.0  0.76239  0.11143  0.65669  1.0000
  C   C40       1.0  0.23762  0.88858  0.34329  1.0000
  C   C41       1.0  0.88386  0.05270  0.57588  1.0000
  C   C42       1.0  0.11615  0.94731  0.42411  1.0000
  C   C43       1.0  0.92411  0.91166  0.63077  1.0000
  C   C44       1.0  0.07590  0.08836  0.36921  1.0000
  C   C45       1.0  0.96035  0.14072  0.44460  1.0000
  C   C46       1.0  0.03966  0.85929  0.55538  1.0000
  C   C47       1.0  0.71794  0.14127  0.98332  1.0000
  C   C48       1.0  0.28206  0.85872  0.01669  1.0000
  C   C49       1.0  0.86328  0.06725  0.99285  1.0000
  C   C50       1.0  0.13673  0.93274  0.00715  1.0000
  C   C51       1.0  0.91389  0.96463  0.94659  1.0000
  C   C52       1.0  0.08611  0.03536  0.05342  1.0000
  C   C53       1.0  0.95070  0.10196  0.04631  1.0000
  C   C54       1.0  0.04931  0.89804  0.95369  1.0000
  N   N1        1.0  0.38472  0.14521  0.73870  1.0000
  N   N2        1.0  0.61527  0.85479  0.26130  1.0000
  N   N3        1.0  0.38063  0.28363  0.87370  1.0000
  N   N4        1.0  0.61937  0.71637  0.12630  1.0000
  N   N5        1.0  0.93037  0.52611  0.76285  1.0000
  N   N6        1.0  0.06963  0.47389  0.23715  1.0000
  N   N7        1.0  0.92011  0.39149  0.66796  1.0000
  N   N8        1.0  0.07989  0.60851  0.33204  1.0000
  O   O1        1.0  0.75956  0.23924  0.62784  1.0000
  O   O2        1.0  0.24045  0.76077  0.37215  1.0000
  O   O3        1.0  0.66451  0.02574  0.75358  1.0000
  O   O4        1.0  0.33549  0.97427  0.24640  1.0000
  O   O5        1.0  0.62903  0.07614  0.96828  1.0000
  O   O6        1.0  0.37097  0.92385  0.03172  1.0000
  O   O7        1.0  0.69114  0.25400  0.99139  1.0000
  O   O8        1.0  0.30885  0.74598  0.00862  1.0000
  F   F1        1.0  0.31913  0.76229  0.63665  1.0000
  F   F2        1.0  0.68086  0.23771  0.36337  1.0000
