data_image0
_chemical_formula_structural       H30Pb2C54N8O8F2
_chemical_formula_sum              "H30 Pb2 C54 N8 O8 F2"
_cell_length_a       9.06936
_cell_length_b       9.5774
_cell_length_c       15.4486
_cell_angle_alpha    91.6944
_cell_angle_beta     100.9
_cell_angle_gamma    112.785

_space_group_name_H-M_alt    "P 1"
_space_group_IT_number       1

loop_
  _space_group_symop_operation_xyz
  'x, y, z'

loop_
  _atom_site_type_symbol
  _atom_site_label
  _atom_site_symmetry_multiplicity
  _atom_site_fract_x
  _atom_site_fract_y
  _atom_site_fract_z
  _atom_site_occupancy
  H   H1        1.0  0.78796  0.54662  0.59781  1.0000
  H   H2        1.0  0.21210  0.45342  0.40218  1.0000
  H   H3        1.0  0.48714  0.96056  0.36791  1.0000
  H   H4        1.0  0.51269  0.03934  0.63209  1.0000
  H   H5        1.0  0.59804  0.96002  0.53024  1.0000
  H   H6        1.0  0.40190  0.03994  0.46976  1.0000
  H   H7        1.0  0.69075  0.75621  0.57734  1.0000
  H   H8        1.0  0.30929  0.24381  0.42265  1.0000
  H   H9        1.0  0.49599  0.52234  0.06316  1.0000
  H   H10       1.0  0.50399  0.47766  0.93684  1.0000
  H   H11       1.0  0.59790  0.31411  0.08449  1.0000
  H   H12       1.0  0.40211  0.68590  0.91551  1.0000
  H   H13       1.0  0.68184  0.25836  0.23972  1.0000
  H   H14       1.0  0.31819  0.74166  0.76027  1.0000
  H   H15       1.0  0.89357  0.44834  0.69632  1.0000
  H   H16       1.0  0.10635  0.55161  0.30367  1.0000
  H   H17       1.0  0.02928  0.33050  0.80275  1.0000
  H   H18       1.0  0.97063  0.66945  0.19725  1.0000
  H   H19       1.0  0.03402  0.02742  0.59272  1.0000
  H   H20       1.0  0.96604  0.97262  0.40728  1.0000
  H   H21       1.0  0.89539  0.15012  0.48062  1.0000
  H   H22       1.0  0.10469  0.84992  0.51937  1.0000
  H   H23       1.0  0.87864  0.23216  0.15422  1.0000
  H   H24       1.0  0.12140  0.76781  0.84580  1.0000
  H   H25       1.0  0.12215  0.29373  0.93707  1.0000
  H   H26       1.0  0.87783  0.70632  0.06293  1.0000
  H   H27       1.0  0.91613  0.03922  0.86066  1.0000
  H   H28       1.0  0.08386  0.96082  0.13934  1.0000
  H   H29       1.0  0.68824  0.88534  0.93174  1.0000
  H   H30       1.0  0.31178  0.11467  0.06826  1.0000
  Pb  Pb1       1.0  0.36366  0.74741  0.15798  1.0000
  Pb  Pb2       1.0  0.63634  0.25259  0.84203  1.0000
  C   C1        1.0  0.52905  0.87277  0.39110  1.0000
  C   C2        1.0  0.47084  0.12716  0.60890  1.0000
  C   C3        1.0  0.59028  0.87195  0.48159  1.0000
  C   C4        1.0  0.40966  0.12802  0.51841  1.0000
  C   C5        1.0  0.64319  0.75919  0.50737  1.0000
  C   C6        1.0  0.35682  0.24082  0.49263  1.0000
  C   C7        1.0  0.63740  0.65001  0.44222  1.0000
  C   C8        1.0  0.36262  0.35000  0.55778  1.0000
  C   C9        1.0  0.57521  0.66053  0.35154  1.0000
  C   C10       1.0  0.42477  0.33945  0.64846  1.0000
  C   C11       1.0  0.57625  0.55795  0.28040  1.0000
  C   C12       1.0  0.42374  0.44204  0.71960  1.0000
  C   C13       1.0  0.53719  0.49681  0.12922  1.0000
  C   C14       1.0  0.46280  0.50318  0.87078  1.0000
  C   C15       1.0  0.59383  0.37998  0.14207  1.0000
  C   C16       1.0  0.40618  0.62004  0.85792  1.0000
  C   C17       1.0  0.64054  0.35038  0.22775  1.0000
  C   C18       1.0  0.35948  0.64963  0.77225  1.0000
  C   C19       1.0  0.63512  0.44179  0.29935  1.0000
  C   C20       1.0  0.36489  0.55822  0.70065  1.0000
  C   C21       1.0  0.69310  0.43040  0.39084  1.0000
  C   C22       1.0  0.30693  0.56962  0.60915  1.0000
  C   C23       1.0  0.69386  0.53222  0.45820  1.0000
  C   C24       1.0  0.30617  0.46780  0.54180  1.0000
  C   C25       1.0  0.80477  0.37496  0.51372  1.0000
  C   C26       1.0  0.19526  0.62505  0.48627  1.0000
  C   C27       1.0  0.88401  0.30615  0.57949  1.0000
  C   C28       1.0  0.11600  0.69385  0.42051  1.0000
  C   C29       1.0  0.92172  0.35643  0.67052  1.0000
  C   C30       1.0  0.07825  0.64354  0.32948  1.0000
  C   C31       1.0  0.99821  0.28971  0.73249  1.0000
  C   C32       1.0  0.00174  0.71026  0.26751  1.0000
  C   C33       1.0  0.03596  0.17188  0.70244  1.0000
  C   C34       1.0  0.96403  0.82812  0.29756  1.0000
  C   C35       1.0  0.00063  0.11921  0.61281  1.0000
  C   C36       1.0  0.99940  0.88081  0.38719  1.0000
  C   C37       1.0  0.92487  0.18737  0.55142  1.0000
  C   C38       1.0  0.07516  0.81265  0.44858  1.0000
  C   C39       1.0  0.63630  0.95661  0.09216  1.0000
  C   C40       1.0  0.36374  0.04336  0.90785  1.0000
  C   C41       1.0  0.76822  0.04989  0.04687  1.0000
  C   C42       1.0  0.23182  0.95010  0.95314  1.0000
  C   C43       1.0  0.88519  0.19087  0.08926  1.0000
  C   C44       1.0  0.11484  0.80912  0.91075  1.0000
  C   C45       1.0  0.01073  0.27940  0.04916  1.0000
  C   C46       1.0  0.98928  0.72061  0.95085  1.0000
  C   C47       1.0  0.02079  0.22479  0.96623  1.0000
  C   C48       1.0  0.97921  0.77524  0.03378  1.0000
  C   C49       1.0  0.90510  0.08344  0.92383  1.0000
  C   C50       1.0  0.09491  0.91659  0.07617  1.0000
  C   C51       1.0  0.77866  0.99620  0.96375  1.0000
  C   C52       1.0  0.22136  0.00381  0.03626  1.0000
  C   C53       1.0  0.13318  0.43171  0.09482  1.0000
  C   C54       1.0  0.86682  0.56830  0.90519  1.0000
  N   N1        1.0  0.52080  0.76989  0.32875  1.0000
  N   N2        1.0  0.47913  0.23006  0.67125  1.0000
  N   N3        1.0  0.52628  0.58133  0.19577  1.0000
  N   N4        1.0  0.47370  0.41866  0.80423  1.0000
  N   N5        1.0  0.76167  0.33370  0.42620  1.0000
  N   N6        1.0  0.23836  0.66632  0.57380  1.0000
  N   N7        1.0  0.76565  0.49510  0.53563  1.0000
  N   N8        1.0  0.23439  0.50492  0.46436  1.0000
  O   O1        1.0  0.54141  0.82028  0.05502  1.0000
  O   O2        1.0  0.45861  0.17970  0.94499  1.0000
  O   O3        1.0  0.62298  0.01223  0.16416  1.0000
  O   O4        1.0  0.37708  0.98772  0.83586  1.0000
  O   O5        1.0  0.22166  0.52257  0.04751  1.0000
  O   O6        1.0  0.77833  0.47745  0.95249  1.0000
  O   O7        1.0  0.14479  0.46494  0.17688  1.0000
  O   O8        1.0  0.85522  0.53508  0.82313  1.0000
  F   F1        1.0  0.11100  0.10580  0.76227  1.0000
  F   F2        1.0  0.88899  0.89420  0.23773  1.0000
