data_image0
_chemical_formula_structural       Mn2H12C24N8O16
_chemical_formula_sum              "Mn2 H12 C24 N8 O16"
_cell_length_a       8.05478
_cell_length_b       8.06116
_cell_length_c       12.2066
_cell_angle_alpha    90.0455
_cell_angle_beta     109.611
_cell_angle_gamma    119.31

_space_group_name_H-M_alt    "P 1"
_space_group_IT_number       1

loop_
  _space_group_symop_operation_xyz
  'x, y, z'

loop_
  _atom_site_type_symbol
  _atom_site_label
  _atom_site_symmetry_multiplicity
  _atom_site_fract_x
  _atom_site_fract_y
  _atom_site_fract_z
  _atom_site_occupancy
  Mn  Mn1       1.0  0.80615  0.05198  0.76008  1.0000
  Mn  Mn2       1.0  0.20957  0.95417  0.26060  1.0000
  H   H1        1.0  0.68000  0.51500  0.38869  1.0000
  H   H2        1.0  0.61411  0.27414  0.09798  1.0000
  H   H3        1.0  0.32376  0.48357  0.59792  1.0000
  H   H4        1.0  0.37409  0.70864  0.88868  1.0000
  H   H5        1.0  0.79449  0.47276  0.74950  1.0000
  H   H6        1.0  0.17943  0.03137  0.74137  1.0000
  H   H7        1.0  0.20923  0.56169  0.24130  1.0000
  H   H8        1.0  0.77557  0.95326  0.24993  1.0000
  H   H9        1.0  0.73544  0.65049  0.58268  1.0000
  H   H10       1.0  0.52750  0.13113  0.89601  1.0000
  H   H11       1.0  0.26390  0.36805  0.39585  1.0000
  H   H12       1.0  0.43140  0.84608  0.08269  1.0000
  C   C1        1.0  0.80589  0.03810  0.52396  1.0000
  C   C2        1.0  0.00786  0.26518  0.99354  1.0000
  C   C3        1.0  0.22970  0.98593  0.49400  1.0000
  C   C4        1.0  0.98679  0.71843  0.02439  1.0000
  C   C5        1.0  0.78036  0.20984  0.53530  1.0000
  C   C6        1.0  0.16254  0.23681  0.97037  1.0000
  C   C7        1.0  0.23485  0.80822  0.47086  1.0000
  C   C8        1.0  0.82606  0.75494  0.03579  1.0000
  C   C9        1.0  0.73972  0.29957  0.44031  1.0000
  C   C10       1.0  0.34872  0.28351  0.05718  1.0000
  C   C11       1.0  0.27440  0.70851  0.55749  1.0000
  C   C12       1.0  0.64173  0.70103  0.94055  1.0000
  C   C13       1.0  0.68567  0.22064  0.31222  1.0000
  C   C14       1.0  0.40385  0.35398  0.18615  1.0000
  C   C15       1.0  0.33244  0.78175  0.68646  1.0000
  C   C16       1.0  0.59284  0.62707  0.81244  1.0000
  C   C17       1.0  0.77812  0.42380  0.66127  1.0000
  C   C18       1.0  0.22785  0.10336  0.83120  1.0000
  C   C19       1.0  0.22782  0.60337  0.33128  1.0000
  C   C20       1.0  0.73697  0.88209  0.16163  1.0000
  C   C21       1.0  0.74432  0.52134  0.57027  1.0000
  C   C22       1.0  0.41803  0.15563  0.91571  1.0000
  C   C23       1.0  0.25963  0.49741  0.41564  1.0000
  C   C24       1.0  0.54855  0.82509  0.07043  1.0000
  N   N1        1.0  0.79442  0.26863  0.64322  1.0000
  N   N2        1.0  0.09709  0.14441  0.85583  1.0000
  N   N3        1.0  0.21245  0.75919  0.35619  1.0000
  N   N4        1.0  0.87453  0.84817  0.14371  1.0000
  N   N5        1.0  0.72466  0.45571  0.46210  1.0000
  N   N6        1.0  0.47878  0.24707  0.02879  1.0000
  N   N7        1.0  0.28195  0.54993  0.52889  1.0000
  N   N8        1.0  0.50688  0.73747  0.96222  1.0000
  O   O1        1.0  0.80351  0.95191  0.61491  1.0000
  O   O2        1.0  0.83057  0.17977  0.90118  1.0000
  O   O3        1.0  0.22396  0.07149  0.40187  1.0000
  O   O4        1.0  0.16355  0.81075  0.11554  1.0000
  O   O5        1.0  0.82587  0.98647  0.43672  1.0000
  O   O6        1.0  0.03749  0.35152  0.08760  1.0000
  O   O7        1.0  0.23585  0.04962  0.58774  1.0000
  O   O8        1.0  0.95166  0.61219  0.93686  1.0000
  O   O9        1.0  0.52920  0.05001  0.27266  1.0000
  O   O10       1.0  0.29884  0.22369  0.23467  1.0000
  O   O11       1.0  0.51068  0.93569  0.73530  1.0000
  O   O12       1.0  0.72370  0.74454  0.77284  1.0000
  O   O13       1.0  0.78633  0.32955  0.25626  1.0000
  O   O14       1.0  0.54547  0.52350  0.23811  1.0000
  O   O15       1.0  0.21461  0.69089  0.73822  1.0000
  O   O16       1.0  0.42862  0.46993  0.75685  1.0000
