data_image0
_chemical_formula_structural       Cu2P2H42PtC38S2I2N2
_chemical_formula_sum              "Cu2 P2 H42 Pt1 C38 S2 I2 N2"
_cell_length_a       9.82478
_cell_length_b       10.0595
_cell_length_c       11.9558
_cell_angle_alpha    85.4638
_cell_angle_beta     72.6313
_cell_angle_gamma    63.7304

_space_group_name_H-M_alt    "P 1"
_space_group_IT_number       1

loop_
  _space_group_symop_operation_xyz
  'x, y, z'

loop_
  _atom_site_type_symbol
  _atom_site_label
  _atom_site_symmetry_multiplicity
  _atom_site_fract_x
  _atom_site_fract_y
  _atom_site_fract_z
  _atom_site_occupancy
  Cu  Cu1       1.0  0.16162  0.81739  0.50933  1.0000
  Cu  Cu2       1.0  0.83838  0.18261  0.49067  1.0000
  P   P1        1.0  0.65003  0.61109  0.38200  1.0000
  P   P2        1.0  0.34997  0.38891  0.61801  1.0000
  H   H1        1.0  0.31048  0.44800  0.22127  1.0000
  H   H2        1.0  0.68952  0.55200  0.77873  1.0000
  H   H3        1.0  0.21046  0.45853  0.05232  1.0000
  H   H4        1.0  0.78954  0.54147  0.94768  1.0000
  H   H5        1.0  0.88107  0.91822  0.15182  1.0000
  H   H6        1.0  0.11893  0.08178  0.84818  1.0000
  H   H7        1.0  0.98502  0.90791  0.31869  1.0000
  H   H8        1.0  0.01499  0.09209  0.68131  1.0000
  H   H9        1.0  0.77854  0.94479  0.99693  1.0000
  H   H10       1.0  0.22147  0.05522  0.00307  1.0000
  H   H11       1.0  0.88153  0.88452  0.84543  1.0000
  H   H12       1.0  0.11847  0.11549  0.15457  1.0000
  H   H13       1.0  0.97532  0.92938  0.93326  1.0000
  H   H14       1.0  0.02468  0.07062  0.06674  1.0000
  H   H15       1.0  0.49055  0.94415  0.70120  1.0000
  H   H16       1.0  0.50944  0.05585  0.29880  1.0000
  H   H17       1.0  0.62018  0.93268  0.85120  1.0000
  H   H18       1.0  0.37982  0.06732  0.14880  1.0000
  H   H19       1.0  0.57275  0.79947  0.03346  1.0000
  H   H20       1.0  0.42726  0.20053  0.96654  1.0000
  H   H21       1.0  0.39812  0.67179  0.06141  1.0000
  H   H22       1.0  0.60188  0.32821  0.93859  1.0000
  H   H23       1.0  0.27015  0.68015  0.90862  1.0000
  H   H24       1.0  0.72985  0.31984  0.09139  1.0000
  H   H25       1.0  0.69316  0.71034  0.19003  1.0000
  H   H26       1.0  0.30684  0.28966  0.80997  1.0000
  H   H27       1.0  0.48816  0.74552  0.25643  1.0000
  H   H28       1.0  0.51184  0.25448  0.74357  1.0000
  H   H29       1.0  0.63386  0.56545  0.19193  1.0000
  H   H30       1.0  0.36614  0.43455  0.80807  1.0000
  H   H31       1.0  0.92383  0.56412  0.29227  1.0000
  H   H32       1.0  0.07617  0.43588  0.70773  1.0000
  H   H33       1.0  0.89862  0.39781  0.29668  1.0000
  H   H34       1.0  0.10139  0.60219  0.70332  1.0000
  H   H35       1.0  0.89743  0.47250  0.42675  1.0000
  H   H36       1.0  0.10257  0.52750  0.57325  1.0000
  H   H37       1.0  0.64523  0.76103  0.53224  1.0000
  H   H38       1.0  0.35476  0.23896  0.46776  1.0000
  H   H39       1.0  0.48894  0.86288  0.46654  1.0000
  H   H40       1.0  0.51106  0.13711  0.53346  1.0000
  H   H41       1.0  0.69088  0.83018  0.39169  1.0000
  H   H42       1.0  0.30912  0.16982  0.60831  1.0000
  Pt  Pt1       1.0  0.50000  0.50000  0.50000  1.0000
  C   C1        1.0  0.32773  0.60844  0.42684  1.0000
  C   C2        1.0  0.67227  0.39155  0.57316  1.0000
  C   C3        1.0  0.22390  0.66991  0.37378  1.0000
  C   C4        1.0  0.77610  0.33009  0.62622  1.0000
  C   C5        1.0  0.15600  0.67841  0.28148  1.0000
  C   C6        1.0  0.84400  0.32159  0.71852  1.0000
  C   C7        1.0  0.21682  0.55126  0.20550  1.0000
  C   C8        1.0  0.78317  0.44874  0.79450  1.0000
  C   C9        1.0  0.16060  0.55708  0.11083  1.0000
  C   C10       1.0  0.83940  0.44292  0.88917  1.0000
  C   C11       1.0  0.03967  0.68952  0.08922  1.0000
  C   C12       1.0  0.96032  0.31048  0.91079  1.0000
  C   C13       1.0  0.97580  0.81496  0.16602  1.0000
  C   C14       1.0  0.02420  0.18504  0.83398  1.0000
  C   C15       1.0  0.03348  0.80958  0.26039  1.0000
  C   C16       1.0  0.96652  0.19042  0.73961  1.0000
  C   C17       1.0  0.89490  0.88069  0.93388  1.0000
  C   C18       1.0  0.10510  0.11931  0.06612  1.0000
  C   C19       1.0  0.29311  0.82221  0.71133  1.0000
  C   C20       1.0  0.70689  0.17779  0.28868  1.0000
  C   C21       1.0  0.37061  0.81383  0.79638  1.0000
  C   C22       1.0  0.62939  0.18617  0.20363  1.0000
  C   C23       1.0  0.46940  0.88553  0.78019  1.0000
  C   C24       1.0  0.53060  0.11446  0.21981  1.0000
  C   C25       1.0  0.54196  0.87895  0.86559  1.0000
  C   C26       1.0  0.45804  0.12105  0.13441  1.0000
  C   C27       1.0  0.51621  0.80299  0.96679  1.0000
  C   C28       1.0  0.48379  0.19701  0.03321  1.0000
  C   C29       1.0  0.41896  0.73101  0.98257  1.0000
  C   C30       1.0  0.58104  0.26900  0.01744  1.0000
  C   C31       1.0  0.34668  0.73518  0.89753  1.0000
  C   C32       1.0  0.65332  0.26482  0.10248  1.0000
  C   C33       1.0  0.61272  0.66384  0.24094  1.0000
  C   C34       1.0  0.38728  0.33615  0.75907  1.0000
  C   C35       1.0  0.86330  0.50134  0.34560  1.0000
  C   C36       1.0  0.13670  0.49866  0.65440  1.0000
  C   C37       1.0  0.61465  0.78362  0.44948  1.0000
  C   C38       1.0  0.38535  0.21637  0.55052  1.0000
  S   S1        1.0  0.98027  0.68730  0.96451  1.0000
  S   S2        1.0  0.01973  0.31271  0.03550  1.0000
  I   I1        1.0  0.84039  0.92738  0.60043  1.0000
  I   I2        1.0  0.15961  0.07261  0.39957  1.0000
  N   N1        1.0  0.22921  0.83040  0.64104  1.0000
  N   N2        1.0  0.77079  0.16960  0.35896  1.0000
