data_image0
_chemical_formula_structural       Cu2H8C10I2N2
_chemical_formula_sum              "Cu2 H8 C10 I2 N2"
_cell_length_a       4.04523
_cell_length_b       7.72575
_cell_length_c       10.0765
_cell_angle_alpha    87.8286
_cell_angle_beta     81.0796
_cell_angle_gamma    79.1339

_space_group_name_H-M_alt    "P 1"
_space_group_IT_number       1

loop_
  _space_group_symop_operation_xyz
  'x, y, z'

loop_
  _atom_site_type_symbol
  _atom_site_label
  _atom_site_symmetry_multiplicity
  _atom_site_fract_x
  _atom_site_fract_y
  _atom_site_fract_z
  _atom_site_occupancy
  Cu  Cu1       1.0  0.28348  0.01402  0.91308  1.0000
  Cu  Cu2       1.0  0.71650  0.98598  0.08691  1.0000
  H   H1        1.0  0.38144  0.42491  0.28791  1.0000
  H   H2        1.0  0.61852  0.57509  0.71209  1.0000
  H   H3        1.0  0.49970  0.64328  0.11223  1.0000
  H   H4        1.0  0.50027  0.35672  0.88777  1.0000
  H   H5        1.0  0.80970  0.95470  0.37702  1.0000
  H   H6        1.0  0.19034  0.04528  0.62298  1.0000
  H   H7        1.0  0.70369  0.75054  0.56694  1.0000
  H   H8        1.0  0.29635  0.24945  0.43307  1.0000
  C   C1        1.0  0.46747  0.43540  0.55391  1.0000
  C   C2        1.0  0.53249  0.56459  0.44612  1.0000
  C   C3        1.0  0.52276  0.46070  0.68526  1.0000
  C   C4        1.0  0.47724  0.53932  0.31472  1.0000
  C   C5        1.0  0.45811  0.33821  0.78536  1.0000
  C   C6        1.0  0.54192  0.66182  0.21464  1.0000
  C   C7        1.0  0.71238  0.83524  0.36271  1.0000
  C   C8        1.0  0.28767  0.16479  0.63728  1.0000
  C   C9        1.0  0.65239  0.71918  0.46843  1.0000
  C   C10       1.0  0.34761  0.28083  0.53155  1.0000
  I   I1        1.0  0.10775  0.20404  0.13237  1.0000
  I   I2        1.0  0.89224  0.79596  0.86763  1.0000
  N   N1        1.0  0.34005  0.19147  0.76343  1.0000
  N   N2        1.0  0.65994  0.80849  0.23659  1.0000
