data_image0
_chemical_formula_structural       Co4H24C48N16F8
_chemical_formula_sum              "Co4 H24 C48 N16 F8"
_cell_length_a       6.9059
_cell_length_b       8.44541
_cell_length_c       24.8438
_cell_angle_alpha    89.9998
_cell_angle_beta     90
_cell_angle_gamma    129.146

_space_group_name_H-M_alt    "P 1"
_space_group_IT_number       1

loop_
  _space_group_symop_operation_xyz
  'x, y, z'

loop_
  _atom_site_type_symbol
  _atom_site_label
  _atom_site_symmetry_multiplicity
  _atom_site_fract_x
  _atom_site_fract_y
  _atom_site_fract_z
  _atom_site_occupancy
  Co  Co1       1.0  0.27907  0.54067  0.49554  1.0000
  Co  Co2       1.0  0.72092  0.95933  0.99554  1.0000
  Co  Co3       1.0  0.72088  0.45931  0.50446  1.0000
  Co  Co4       1.0  0.27912  0.04070  0.00447  1.0000
  H   H1        1.0  0.61928  0.84188  0.78550  1.0000
  H   H2        1.0  0.38069  0.65811  0.28550  1.0000
  H   H3        1.0  0.38071  0.15811  0.21449  1.0000
  H   H4        1.0  0.61929  0.34186  0.71449  1.0000
  H   H5        1.0  0.95847  0.82275  0.69867  1.0000
  H   H6        1.0  0.04151  0.67725  0.19867  1.0000
  H   H7        1.0  0.04151  0.17725  0.30134  1.0000
  H   H8        1.0  0.95852  0.32276  0.80134  1.0000
  H   H9        1.0  0.58602  0.88346  0.58564  1.0000
  H   H10       1.0  0.41398  0.61654  0.08564  1.0000
  H   H11       1.0  0.41394  0.11654  0.41435  1.0000
  H   H12       1.0  0.58607  0.38347  0.91436  1.0000
  H   H13       1.0  0.83105  0.64923  0.61870  1.0000
  H   H14       1.0  0.16895  0.85077  0.11870  1.0000
  H   H15       1.0  0.16890  0.35072  0.38130  1.0000
  H   H16       1.0  0.83110  0.14927  0.88130  1.0000
  H   H17       1.0  0.55935  0.74661  0.87936  1.0000
  H   H18       1.0  0.44062  0.75338  0.37936  1.0000
  H   H19       1.0  0.44068  0.25341  0.12064  1.0000
  H   H20       1.0  0.55933  0.24659  0.62064  1.0000
  H   H21       1.0  0.08910  0.91982  0.88861  1.0000
  H   H22       1.0  0.91090  0.58019  0.38861  1.0000
  H   H23       1.0  0.91091  0.08019  0.11139  1.0000
  H   H24       1.0  0.08908  0.41980  0.61139  1.0000
  C   C1        1.0  0.27806  0.83392  0.68408  1.0000
  C   C2        1.0  0.72194  0.66608  0.18408  1.0000
  C   C3        1.0  0.72192  0.16607  0.31592  1.0000
  C   C4        1.0  0.27809  0.33392  0.81592  1.0000
  C   C5        1.0  0.46157  0.84335  0.71209  1.0000
  C   C6        1.0  0.53842  0.65665  0.21209  1.0000
  C   C7        1.0  0.53842  0.15664  0.28791  1.0000
  C   C8        1.0  0.46159  0.34334  0.78791  1.0000
  C   C9        1.0  0.47128  0.83630  0.76755  1.0000
  C   C10       1.0  0.52868  0.66369  0.26755  1.0000
  C   C11       1.0  0.52870  0.16370  0.23245  1.0000
  C   C12       1.0  0.47131  0.33630  0.73245  1.0000
  C   C13       1.0  0.29268  0.82093  0.80000  1.0000
  C   C14       1.0  0.70729  0.67906  0.30000  1.0000
  C   C15       1.0  0.70732  0.17907  0.20000  1.0000
  C   C16       1.0  0.29270  0.32094  0.70000  1.0000
  C   C17       1.0  0.11515  0.81976  0.77195  1.0000
  C   C18       1.0  0.88482  0.68023  0.27195  1.0000
  C   C19       1.0  0.88485  0.18025  0.22805  1.0000
  C   C20       1.0  0.11520  0.31978  0.72805  1.0000
  C   C21       1.0  0.10466  0.82574  0.71656  1.0000
  C   C22       1.0  0.89536  0.67428  0.21656  1.0000
  C   C23       1.0  0.89536  0.17428  0.28344  1.0000
  C   C24       1.0  0.10468  0.32575  0.78344  1.0000
  C   C25       1.0  0.23974  0.80094  0.62613  1.0000
  C   C26       1.0  0.76027  0.69906  0.12613  1.0000
  C   C27       1.0  0.76023  0.19904  0.37387  1.0000
  C   C28       1.0  0.23977  0.30095  0.87387  1.0000
  C   C29       1.0  0.39067  0.81624  0.58488  1.0000
  C   C30       1.0  0.60933  0.68376  0.08488  1.0000
  C   C31       1.0  0.60928  0.18374  0.41512  1.0000
  C   C32       1.0  0.39072  0.31626  0.91512  1.0000
  C   C33       1.0  0.00447  0.69582  0.60159  1.0000
  C   C34       1.0  0.99553  0.80418  0.10159  1.0000
  C   C35       1.0  0.99549  0.30414  0.39842  1.0000
  C   C36       1.0  0.00451  0.19585  0.89841  1.0000
  C   C37       1.0  0.30628  0.82142  0.85856  1.0000
  C   C38       1.0  0.69369  0.67856  0.35856  1.0000
  C   C39       1.0  0.69374  0.17859  0.14144  1.0000
  C   C40       1.0  0.30628  0.32142  0.64144  1.0000
  C   C41       1.0  0.45214  0.79502  0.89074  1.0000
  C   C42       1.0  0.54785  0.70498  0.39074  1.0000
  C   C43       1.0  0.54789  0.20501  0.10926  1.0000
  C   C44       1.0  0.45211  0.29499  0.60925  1.0000
  C   C45       1.0  0.21029  0.88196  0.89570  1.0000
  C   C46       1.0  0.78972  0.61805  0.39570  1.0000
  C   C47       1.0  0.78973  0.11806  0.10430  1.0000
  C   C48       1.0  0.21027  0.38194  0.60430  1.0000
  N   N1        1.0  0.25197  0.72004  0.54001  1.0000
  N   N2        1.0  0.74804  0.77996  0.04001  1.0000
  N   N3        1.0  0.74798  0.27993  0.45999  1.0000
  N   N4        1.0  0.25202  0.22008  0.95999  1.0000
  N   N5        1.0  0.01186  0.64388  0.55090  1.0000
  N   N6        1.0  0.98815  0.85613  0.05090  1.0000
  N   N7        1.0  0.98809  0.35609  0.44910  1.0000
  N   N8        1.0  0.01191  0.14391  0.94910  1.0000
  N   N9        1.0  0.45101  0.84480  0.94239  1.0000
  N   N10       1.0  0.54898  0.65521  0.44239  1.0000
  N   N11       1.0  0.54903  0.15524  0.05761  1.0000
  N   N12       1.0  0.45096  0.34476  0.55761  1.0000
  N   N13       1.0  0.30166  0.89936  0.94517  1.0000
  N   N14       1.0  0.69834  0.60066  0.44517  1.0000
  N   N15       1.0  0.69837  0.10067  0.05483  1.0000
  N   N16       1.0  0.30160  0.39932  0.55483  1.0000
  F   F1        1.0  0.93945  0.81203  0.80077  1.0000
  F   F2        1.0  0.06054  0.68797  0.30077  1.0000
  F   F3        1.0  0.06057  0.18798  0.19924  1.0000
  F   F4        1.0  0.93947  0.31205  0.69924  1.0000
  F   F5        1.0  0.63772  0.85295  0.68293  1.0000
  F   F6        1.0  0.36227  0.64705  0.18293  1.0000
  F   F7        1.0  0.36225  0.14703  0.31707  1.0000
  F   F8        1.0  0.63774  0.35292  0.81706  1.0000
