data_image0
_chemical_formula_structural       Co2H24C28N8
_chemical_formula_sum              "Co2 H24 C28 N8"
_cell_length_a       6.95509
_cell_length_b       8.15662
_cell_length_c       13.0151
_cell_angle_alpha    108.267
_cell_angle_beta     91.7492
_cell_angle_gamma    90.1225

_space_group_name_H-M_alt    "P 1"
_space_group_IT_number       1

loop_
  _space_group_symop_operation_xyz
  'x, y, z'

loop_
  _atom_site_type_symbol
  _atom_site_label
  _atom_site_symmetry_multiplicity
  _atom_site_fract_x
  _atom_site_fract_y
  _atom_site_fract_z
  _atom_site_occupancy
  Co  Co1       1.0  0.74995  0.46111  0.99999  1.0000
  Co  Co2       1.0  0.25004  0.53889  0.00000  1.0000
  H   H1        1.0  0.77018  0.32258  0.20541  1.0000
  H   H2        1.0  0.72834  0.11755  0.79442  1.0000
  H   H3        1.0  0.22983  0.67743  0.79459  1.0000
  H   H4        1.0  0.27165  0.88245  0.20558  1.0000
  H   H5        1.0  0.20016  0.54070  0.23432  1.0000
  H   H6        1.0  0.29961  0.30639  0.76551  1.0000
  H   H7        1.0  0.79984  0.45929  0.76567  1.0000
  H   H8        1.0  0.70039  0.69359  0.23449  1.0000
  H   H9        1.0  0.18103  0.23425  0.30590  1.0000
  H   H10       1.0  0.31753  0.92879  0.69439  1.0000
  H   H11       1.0  0.81897  0.76575  0.69411  1.0000
  H   H12       1.0  0.68248  0.07120  0.30561  1.0000
  H   H13       1.0  0.06248  0.28379  0.43112  1.0000
  H   H14       1.0  0.43684  0.85371  0.56939  1.0000
  H   H15       1.0  0.93753  0.71622  0.56889  1.0000
  H   H16       1.0  0.56317  0.14628  0.43061  1.0000
  H   H17       1.0  0.05826  0.43122  0.35622  1.0000
  H   H18       1.0  0.44134  0.07595  0.64463  1.0000
  H   H19       1.0  0.94173  0.56878  0.64379  1.0000
  H   H20       1.0  0.55866  0.92405  0.35537  1.0000
  H   H21       1.0  0.22675  0.42738  0.59462  1.0000
  H   H22       1.0  0.27379  0.83411  0.40573  1.0000
  H   H23       1.0  0.77325  0.57264  0.40538  1.0000
  H   H24       1.0  0.72621  0.16587  0.59427  1.0000
  C   C1        1.0  0.62976  0.37383  0.19422  1.0000
  C   C2        1.0  0.86911  0.17988  0.80561  1.0000
  C   C3        1.0  0.37024  0.62617  0.80578  1.0000
  C   C4        1.0  0.13089  0.82011  0.19438  1.0000
  C   C5        1.0  0.33894  0.48506  0.20888  1.0000
  C   C6        1.0  0.16065  0.27624  0.79105  1.0000
  C   C7        1.0  0.66106  0.51494  0.79113  1.0000
  C   C8        1.0  0.83935  0.72375  0.20895  1.0000
  C   C9        1.0  0.48355  0.43259  0.26892  1.0000
  C   C10       1.0  0.01563  0.16348  0.73098  1.0000
  C   C11       1.0  0.51645  0.56742  0.73108  1.0000
  C   C12       1.0  0.98436  0.83651  0.26902  1.0000
  C   C13       1.0  0.48855  0.46140  0.38623  1.0000
  C   C14       1.0  0.01089  0.07497  0.61379  1.0000
  C   C15       1.0  0.51145  0.53861  0.61376  1.0000
  C   C16       1.0  0.98910  0.92502  0.38621  1.0000
  C   C17       1.0  0.32977  0.42289  0.44024  1.0000
  C   C18       1.0  0.17005  0.98332  0.55994  1.0000
  C   C19       1.0  0.67023  0.57712  0.55976  1.0000
  C   C20       1.0  0.82996  0.01667  0.44006  1.0000
  C   C21       1.0  0.14895  0.33828  0.38042  1.0000
  C   C22       1.0  0.35034  0.95868  0.62003  1.0000
  C   C23       1.0  0.85105  0.66173  0.61958  1.0000
  C   C24       1.0  0.64966  0.04132  0.37997  1.0000
  C   C25       1.0  0.34615  0.46212  0.55267  1.0000
  C   C26       1.0  0.15424  0.91037  0.44754  1.0000
  C   C27       1.0  0.65385  0.53790  0.44734  1.0000
  C   C28       1.0  0.84575  0.08961  0.55246  1.0000
  N   N1        1.0  0.57711  0.39437  0.09781  1.0000
  N   N2        1.0  0.92196  0.29719  0.90189  1.0000
  N   N3        1.0  0.42289  0.60562  0.90218  1.0000
  N   N4        1.0  0.07803  0.70281  0.09811  1.0000
  N   N5        1.0  0.39762  0.46486  0.10781  1.0000
  N   N6        1.0  0.10195  0.35757  0.89196  1.0000
  N   N7        1.0  0.60238  0.53514  0.89218  1.0000
  N   N8        1.0  0.89805  0.64242  0.10804  1.0000
