data_image0
_chemical_formula_structural       Cu2H20C20N4O8
_chemical_formula_sum              "Cu2 H20 C20 N4 O8"
_cell_length_a       6.64342
_cell_length_b       8.95446
_cell_length_c       9.47025
_cell_angle_alpha    98.5869
_cell_angle_beta     90.0008
_cell_angle_gamma    90.0008

_space_group_name_H-M_alt    "P 1"
_space_group_IT_number       1

loop_
  _space_group_symop_operation_xyz
  'x, y, z'

loop_
  _atom_site_type_symbol
  _atom_site_label
  _atom_site_symmetry_multiplicity
  _atom_site_fract_x
  _atom_site_fract_y
  _atom_site_fract_z
  _atom_site_occupancy
  Cu  Cu1       1.0  0.84868  0.06279  0.59000  1.0000
  Cu  Cu2       1.0  0.34868  0.93721  0.41000  1.0000
  H   H1        1.0  0.81928  0.41137  0.87934  1.0000
  H   H2        1.0  0.31925  0.58864  0.12067  1.0000
  H   H3        1.0  0.03354  0.30245  0.80939  1.0000
  H   H4        1.0  0.53352  0.69754  0.19060  1.0000
  H   H5        1.0  0.83943  0.61790  0.72503  1.0000
  H   H6        1.0  0.33942  0.38210  0.27497  1.0000
  H   H7        1.0  0.81482  0.68430  0.48134  1.0000
  H   H8        1.0  0.31485  0.31570  0.51866  1.0000
  H   H9        1.0  0.80805  0.47369  0.26915  1.0000
  H   H10       1.0  0.30809  0.52630  0.73085  1.0000
  H   H11       1.0  0.82451  0.20583  0.31692  1.0000
  H   H12       1.0  0.32452  0.79417  0.68309  1.0000
  H   H13       1.0  0.99770  0.11344  0.91927  1.0000
  H   H14       1.0  0.49768  0.88656  0.08071  1.0000
  H   H15       1.0  0.75081  0.09631  0.99041  1.0000
  H   H16       1.0  0.25078  0.90370  0.00960  1.0000
  H   H17       1.0  0.48783  0.18569  0.90548  1.0000
  H   H18       1.0  0.98782  0.81432  0.09452  1.0000
  H   H19       1.0  0.51310  0.32160  0.78944  1.0000
  H   H20       1.0  0.01309  0.67839  0.21054  1.0000
  C   C1        1.0  0.87306  0.32467  0.79246  1.0000
  C   C2        1.0  0.37304  0.67533  0.20753  1.0000
  C   C3        1.0  0.84935  0.37784  0.64958  1.0000
  C   C4        1.0  0.34935  0.62216  0.35042  1.0000
  C   C5        1.0  0.83769  0.52911  0.63240  1.0000
  C   C6        1.0  0.33768  0.47090  0.36760  1.0000
  C   C7        1.0  0.82471  0.56582  0.49461  1.0000
  C   C8        1.0  0.32471  0.43418  0.50540  1.0000
  C   C9        1.0  0.82128  0.45031  0.37843  1.0000
  C   C10       1.0  0.32131  0.54970  0.62157  1.0000
  C   C11       1.0  0.83094  0.30103  0.40309  1.0000
  C   C12       1.0  0.33094  0.69897  0.59691  1.0000
  C   C13       1.0  0.84080  0.08218  0.89182  1.0000
  C   C14       1.0  0.34078  0.91782  0.10817  1.0000
  C   C15       1.0  0.84428  0.91480  0.82464  1.0000
  C   C16       1.0  0.34428  0.08520  0.17536  1.0000
  C   C17       1.0  0.54476  0.20318  0.79982  1.0000
  C   C18       1.0  0.04475  0.79682  0.20018  1.0000
  C   C19       1.0  0.41181  0.11074  0.68699  1.0000
  C   C20       1.0  0.91180  0.88925  0.31301  1.0000
  N   N1        1.0  0.76521  0.17965  0.79029  1.0000
  N   N2        1.0  0.26520  0.82035  0.20971  1.0000
  N   N3        1.0  0.84579  0.26650  0.53574  1.0000
  N   N4        1.0  0.34578  0.73350  0.46426  1.0000
  O   O1        1.0  0.85245  0.88632  0.68694  1.0000
  O   O2        1.0  0.35246  0.11368  0.31306  1.0000
  O   O3        1.0  0.84591  0.81510  0.90392  1.0000
  O   O4        1.0  0.34592  0.18490  0.09609  1.0000
  O   O5        1.0  0.50110  0.03823  0.57671  1.0000
  O   O6        1.0  0.00109  0.96178  0.42329  1.0000
  O   O7        1.0  0.22654  0.11733  0.70829  1.0000
  O   O8        1.0  0.72654  0.88265  0.29172  1.0000
