data_image0
_chemical_formula_structural       Ag2H16C18S4N10O6
_chemical_formula_sum              "Ag2 H16 C18 S4 N10 O6"
_cell_length_a       7.31523
_cell_length_b       8.75488
_cell_length_c       10.1453
_cell_angle_alpha    90
_cell_angle_beta     106.711
_cell_angle_gamma    90.0003

_space_group_name_H-M_alt    "P 1"
_space_group_IT_number       1

loop_
  _space_group_symop_operation_xyz
  'x, y, z'

loop_
  _atom_site_type_symbol
  _atom_site_label
  _atom_site_symmetry_multiplicity
  _atom_site_fract_x
  _atom_site_fract_y
  _atom_site_fract_z
  _atom_site_occupancy
  Ag  Ag1       1.0  0.85619  0.75046  0.46456  1.0000
  Ag  Ag2       1.0  0.14380  0.25046  0.53544  1.0000
  H   H1        1.0  0.88221  0.12217  0.24909  1.0000
  H   H2        1.0  0.11779  0.62216  0.75091  1.0000
  H   H3        1.0  0.75755  0.20170  0.00198  1.0000
  H   H4        1.0  0.24246  0.70170  0.99802  1.0000
  H   H5        1.0  0.85283  0.46750  0.94017  1.0000
  H   H6        1.0  0.14719  0.96750  0.05982  1.0000
  H   H7        1.0  0.11804  0.74093  0.21047  1.0000
  H   H8        1.0  0.88196  0.24093  0.78954  1.0000
  H   H9        1.0  0.36496  0.77225  0.31045  1.0000
  H   H10       1.0  0.63504  0.27224  0.68955  1.0000
  H   H11       1.0  0.62675  0.68333  0.74389  1.0000
  H   H12       1.0  0.37324  0.18332  0.25611  1.0000
  H   H13       1.0  0.62434  0.89201  0.91870  1.0000
  H   H14       1.0  0.37565  0.39199  0.08129  1.0000
  H   H15       1.0  0.41245  0.12046  0.83200  1.0000
  H   H16       1.0  0.58754  0.62045  0.16800  1.0000
  C   C1        1.0  0.91453  0.23392  0.21475  1.0000
  C   C2        1.0  0.08547  0.73392  0.78524  1.0000
  C   C3        1.0  0.84688  0.27833  0.07785  1.0000
  C   C4        1.0  0.15313  0.77833  0.92215  1.0000
  C   C5        1.0  0.89891  0.42350  0.04521  1.0000
  C   C6        1.0  0.10111  0.92350  0.95479  1.0000
  C   C7        1.0  0.06230  0.46626  0.27018  1.0000
  C   C8        1.0  0.93770  0.96626  0.72982  1.0000
  C   C9        1.0  0.21837  0.75249  0.31396  1.0000
  C   C10       1.0  0.78163  0.25248  0.68604  1.0000
  C   C11       1.0  0.31463  0.91520  0.55173  1.0000
  C   C12       1.0  0.68537  0.41520  0.44827  1.0000
  C   C13       1.0  0.53843  0.78532  0.71637  1.0000
  C   C14       1.0  0.46155  0.28531  0.28363  1.0000
  C   C15       1.0  0.53848  0.90000  0.81163  1.0000
  C   C16       1.0  0.46151  0.39999  0.18837  1.0000
  C   C17       1.0  0.42184  0.02593  0.76429  1.0000
  C   C18       1.0  0.57815  0.52592  0.23571  1.0000
  S   S1        1.0  0.20471  0.57726  0.40536  1.0000
  S   S2        1.0  0.79529  0.07725  0.59465  1.0000
  S   S3        1.0  0.14300  0.91794  0.38974  1.0000
  S   S4        1.0  0.85700  0.41793  0.61027  1.0000
  N   N1        1.0  0.02400  0.32589  0.31198  1.0000
  N   N2        1.0  0.97600  0.82588  0.68802  1.0000
  N   N3        1.0  0.00541  0.51754  0.14099  1.0000
  N   N4        1.0  0.99461  0.01754  0.85901  1.0000
  N   N5        1.0  0.42565  0.79243  0.58642  1.0000
  N   N6        1.0  0.57435  0.29243  0.41359  1.0000
  N   N7        1.0  0.31070  0.03629  0.63314  1.0000
  N   N8        1.0  0.68929  0.53628  0.36686  1.0000
  N   N9        1.0  0.62935  0.92837  0.18111  1.0000
  N   N10       1.0  0.37065  0.42837  0.81889  1.0000
  O   O1        1.0  0.60457  0.90104  0.29917  1.0000
  O   O2        1.0  0.39543  0.40105  0.70082  1.0000
  O   O3        1.0  0.76581  0.86432  0.14823  1.0000
  O   O4        1.0  0.23420  0.36432  0.85176  1.0000
  O   O5        1.0  0.51821  0.01941  0.10011  1.0000
  O   O6        1.0  0.48180  0.51941  0.89989  1.0000
