data_image0
_chemical_formula_structural       Ag8H40C32S16N24O24
_chemical_formula_sum              "Ag8 H40 C32 S16 N24 O24"
_cell_length_a       8.35625
_cell_length_b       13.5931
_cell_length_c       16.48
_cell_angle_alpha    107.883
_cell_angle_beta     90
_cell_angle_gamma    90

_space_group_name_H-M_alt    "P 1"
_space_group_IT_number       1

loop_
  _space_group_symop_operation_xyz
  'x, y, z'

loop_
  _atom_site_type_symbol
  _atom_site_label
  _atom_site_symmetry_multiplicity
  _atom_site_fract_x
  _atom_site_fract_y
  _atom_site_fract_z
  _atom_site_occupancy
  Ag  Ag1       1.0  0.97108  0.12147  0.98510  1.0000
  Ag  Ag2       1.0  0.52892  0.12147  0.48510  1.0000
  Ag  Ag3       1.0  0.02892  0.87853  0.01490  1.0000
  Ag  Ag4       1.0  0.47108  0.87853  0.51490  1.0000
  Ag  Ag5       1.0  0.52451  0.60695  0.55107  1.0000
  Ag  Ag6       1.0  0.97549  0.60695  0.05108  1.0000
  Ag  Ag7       1.0  0.47549  0.39305  0.44893  1.0000
  Ag  Ag8       1.0  0.02451  0.39305  0.94893  1.0000
  H   H1        1.0  0.18586  0.86297  0.17683  1.0000
  H   H2        1.0  0.31414  0.86297  0.67683  1.0000
  H   H3        1.0  0.81414  0.13703  0.82317  1.0000
  H   H4        1.0  0.68586  0.13703  0.32317  1.0000
  H   H5        1.0  0.38997  0.89860  0.17661  1.0000
  H   H6        1.0  0.11004  0.89860  0.67661  1.0000
  H   H7        1.0  0.61004  0.10140  0.82339  1.0000
  H   H8        1.0  0.88996  0.10140  0.32339  1.0000
  H   H9        1.0  0.27479  0.94459  0.27269  1.0000
  H   H10       1.0  0.22521  0.94459  0.77269  1.0000
  H   H11       1.0  0.72521  0.05541  0.72731  1.0000
  H   H12       1.0  0.77479  0.05541  0.22731  1.0000
  H   H13       1.0  0.26728  0.46291  0.25863  1.0000
  H   H14       1.0  0.23271  0.46291  0.75863  1.0000
  H   H15       1.0  0.73272  0.53709  0.74137  1.0000
  H   H16       1.0  0.76729  0.53709  0.24137  1.0000
  H   H17       1.0  0.36398  0.35409  0.27487  1.0000
  H   H18       1.0  0.13602  0.35409  0.77487  1.0000
  H   H19       1.0  0.63603  0.64591  0.72513  1.0000
  H   H20       1.0  0.86398  0.64590  0.22513  1.0000
  H   H21       1.0  0.01276  0.42082  0.32484  1.0000
  H   H22       1.0  0.48724  0.42082  0.82484  1.0000
  H   H23       1.0  0.98724  0.57918  0.67516  1.0000
  H   H24       1.0  0.51276  0.57918  0.17516  1.0000
  H   H25       1.0  0.10040  0.30727  0.33616  1.0000
  H   H26       1.0  0.39960  0.30727  0.83616  1.0000
  H   H27       1.0  0.89960  0.69273  0.66384  1.0000
  H   H28       1.0  0.60040  0.69273  0.16384  1.0000
  H   H29       1.0  0.19469  0.90576  0.44472  1.0000
  H   H30       1.0  0.30531  0.90576  0.94473  1.0000
  H   H31       1.0  0.80531  0.09424  0.55528  1.0000
  H   H32       1.0  0.69468  0.09425  0.05528  1.0000
  H   H33       1.0  0.99034  0.87280  0.45162  1.0000
  H   H34       1.0  0.50966  0.87280  0.95162  1.0000
  H   H35       1.0  0.00966  0.12720  0.54838  1.0000
  H   H36       1.0  0.49034  0.12720  0.04838  1.0000
  H   H37       1.0  0.09184  0.83173  0.35118  1.0000
  H   H38       1.0  0.40816  0.83173  0.85118  1.0000
  H   H39       1.0  0.90817  0.16827  0.64882  1.0000
  H   H40       1.0  0.59184  0.16827  0.14882  1.0000
  C   C1        1.0  0.27120  0.92616  0.20303  1.0000
  C   C2        1.0  0.22880  0.92616  0.70303  1.0000
  C   C3        1.0  0.72880  0.07384  0.79697  1.0000
  C   C4        1.0  0.77120  0.07384  0.29697  1.0000
  C   C5        1.0  0.22437  0.01816  0.17828  1.0000
  C   C6        1.0  0.27563  0.01815  0.67828  1.0000
  C   C7        1.0  0.77563  0.98184  0.82172  1.0000
  C   C8        1.0  0.72437  0.98184  0.32172  1.0000
  C   C9        1.0  0.18176  0.18671  0.16113  1.0000
  C   C10       1.0  0.31825  0.18671  0.66113  1.0000
  C   C11       1.0  0.81824  0.81329  0.83887  1.0000
  C   C12       1.0  0.68176  0.81329  0.33887  1.0000
  C   C13       1.0  0.24716  0.38495  0.26365  1.0000
  C   C14       1.0  0.25284  0.38494  0.76364  1.0000
  C   C15       1.0  0.75284  0.61505  0.73635  1.0000
  C   C16       1.0  0.74716  0.61506  0.23635  1.0000
  C   C17       1.0  0.12695  0.38516  0.33290  1.0000
  C   C18       1.0  0.37304  0.38516  0.83289  1.0000
  C   C19       1.0  0.87305  0.61484  0.66711  1.0000
  C   C20       1.0  0.62695  0.61484  0.16711  1.0000
  C   C21       1.0  0.20461  0.57718  0.44135  1.0000
  C   C22       1.0  0.29538  0.57718  0.94135  1.0000
  C   C23       1.0  0.79539  0.42282  0.55865  1.0000
  C   C24       1.0  0.70461  0.42282  0.05865  1.0000
  C   C25       1.0  0.15735  0.74880  0.43593  1.0000
  C   C26       1.0  0.34266  0.74880  0.93593  1.0000
  C   C27       1.0  0.84266  0.25121  0.56408  1.0000
  C   C28       1.0  0.65734  0.25121  0.06408  1.0000
  C   C29       1.0  0.10469  0.84515  0.42008  1.0000
  C   C30       1.0  0.39531  0.84515  0.92008  1.0000
  C   C31       1.0  0.89531  0.15484  0.57992  1.0000
  C   C32       1.0  0.60469  0.15485  0.07992  1.0000
  S   S1        1.0  0.19980  0.44870  0.44098  1.0000
  S   S2        1.0  0.30020  0.44870  0.94098  1.0000
  S   S3        1.0  0.80020  0.55130  0.55902  1.0000
  S   S4        1.0  0.69980  0.55130  0.05902  1.0000
  S   S5        1.0  0.04945  0.63501  0.40476  1.0000
  S   S6        1.0  0.45055  0.63501  0.90476  1.0000
  S   S7        1.0  0.95055  0.36499  0.59524  1.0000
  S   S8        1.0  0.54945  0.36499  0.09524  1.0000
  S   S9        1.0  0.17506  0.31280  0.15775  1.0000
  S   S10       1.0  0.32493  0.31280  0.65775  1.0000
  S   S11       1.0  0.82493  0.68720  0.84225  1.0000
  S   S12       1.0  0.67507  0.68720  0.34225  1.0000
  S   S13       1.0  0.29255  0.14135  0.23132  1.0000
  S   S14       1.0  0.20745  0.14135  0.73132  1.0000
  S   S15       1.0  0.70745  0.85865  0.76868  1.0000
  S   S16       1.0  0.79255  0.85865  0.26868  1.0000
  N   N1        1.0  0.10398  0.11184  0.10428  1.0000
  N   N2        1.0  0.39602  0.11183  0.60428  1.0000
  N   N3        1.0  0.89602  0.88817  0.89572  1.0000
  N   N4        1.0  0.60398  0.88816  0.39572  1.0000
  N   N5        1.0  0.12964  0.01661  0.11407  1.0000
  N   N6        1.0  0.37036  0.01660  0.61407  1.0000
  N   N7        1.0  0.87035  0.98339  0.88593  1.0000
  N   N8        1.0  0.62965  0.98339  0.38593  1.0000
  N   N9        1.0  0.32209  0.64157  0.47527  1.0000
  N   N10       1.0  0.17791  0.64157  0.97527  1.0000
  N   N11       1.0  0.67792  0.35843  0.52473  1.0000
  N   N12       1.0  0.82208  0.35843  0.02473  1.0000
  N   N13       1.0  0.29385  0.73945  0.47268  1.0000
  N   N14       1.0  0.20615  0.73945  0.97268  1.0000
  N   N15       1.0  0.70615  0.26055  0.52733  1.0000
  N   N16       1.0  0.79385  0.26055  0.02733  1.0000
  N   N17       1.0  0.29717  0.63009  0.69742  1.0000
  N   N18       1.0  0.20283  0.63009  0.19742  1.0000
  N   N19       1.0  0.70284  0.36991  0.30259  1.0000
  N   N20       1.0  0.79716  0.36991  0.80258  1.0000
  N   N21       1.0  0.31019  0.16319  0.92220  1.0000
  N   N22       1.0  0.18981  0.16319  0.42220  1.0000
  N   N23       1.0  0.68981  0.83681  0.07779  1.0000
  N   N24       1.0  0.81019  0.83681  0.57779  1.0000
  O   O1        1.0  0.40252  0.69726  0.69294  1.0000
  O   O2        1.0  0.09749  0.69726  0.19294  1.0000
  O   O3        1.0  0.59748  0.30274  0.30706  1.0000
  O   O4        1.0  0.90252  0.30274  0.80706  1.0000
  O   O5        1.0  0.20476  0.64872  0.76023  1.0000
  O   O6        1.0  0.29525  0.64872  0.26023  1.0000
  O   O7        1.0  0.79525  0.35129  0.23977  1.0000
  O   O8        1.0  0.70475  0.35129  0.73977  1.0000
  O   O9        1.0  0.28926  0.54458  0.63748  1.0000
  O   O10       1.0  0.21074  0.54459  0.13748  1.0000
  O   O11       1.0  0.71075  0.45542  0.36253  1.0000
  O   O12       1.0  0.78925  0.45542  0.86253  1.0000
  O   O13       1.0  0.18266  0.21883  0.94197  1.0000
  O   O14       1.0  0.31734  0.21883  0.44197  1.0000
  O   O15       1.0  0.81733  0.78116  0.05802  1.0000
  O   O16       1.0  0.68267  0.78116  0.55802  1.0000
  O   O17       1.0  0.30333  0.06812  0.91417  1.0000
  O   O18       1.0  0.19668  0.06812  0.41417  1.0000
  O   O19       1.0  0.69667  0.93188  0.08583  1.0000
  O   O20       1.0  0.80333  0.93188  0.58583  1.0000
  O   O21       1.0  0.43921  0.20542  0.91102  1.0000
  O   O22       1.0  0.06079  0.20542  0.41102  1.0000
  O   O23       1.0  0.56079  0.79458  0.08898  1.0000
  O   O24       1.0  0.93921  0.79458  0.58898  1.0000
