data_image0
_chemical_formula_structural       Fe2Ni2H12C24N16F4
_chemical_formula_sum              "Fe2 Ni2 H12 C24 N16 F4"
_cell_length_a       6.85231
_cell_length_b       6.93792
_cell_length_c       15.0475
_cell_angle_alpha    90.0017
_cell_angle_beta     89.9246
_cell_angle_gamma    90.0001

_space_group_name_H-M_alt    "P 1"
_space_group_IT_number       1

loop_
  _space_group_symop_operation_xyz
  'x, y, z'

loop_
  _atom_site_type_symbol
  _atom_site_label
  _atom_site_symmetry_multiplicity
  _atom_site_fract_x
  _atom_site_fract_y
  _atom_site_fract_z
  _atom_site_occupancy
  Fe  Fe1       1.0  0.01259  0.99999  0.51149  1.0000
  Fe  Fe2       1.0  0.01307  0.50000  0.98851  1.0000
  Ni  Ni1       1.0  0.51064  0.49998  0.50194  1.0000
  Ni  Ni2       1.0  0.51108  0.00001  0.99815  1.0000
  H   H1        1.0  0.59695  1.00000  0.39437  1.0000
  H   H2        1.0  0.40165  0.49999  0.89831  1.0000
  H   H3        1.0  0.40077  0.99999  0.60178  1.0000
  H   H4        1.0  0.59680  0.50002  0.10559  1.0000
  H   H5        1.0  0.17130  0.99999  0.30396  1.0000
  H   H6        1.0  0.82038  0.50003  0.81390  1.0000
  H   H7        1.0  0.81883  0.00001  0.68593  1.0000
  H   H8        1.0  0.17061  0.49998  0.19603  1.0000
  H   H9        1.0  0.05092  0.00001  0.14330  1.0000
  H   H10       1.0  0.93431  0.50005  0.65429  1.0000
  H   H11       1.0  0.93147  0.00003  0.84559  1.0000
  H   H12       1.0  0.04931  0.49997  0.35668  1.0000
  C   C1        1.0  0.69581  0.68648  0.52240  1.0000
  C   C2        1.0  0.32419  0.81367  0.01457  1.0000
  C   C3        1.0  0.32383  0.68632  0.48547  1.0000
  C   C4        1.0  0.69635  0.81349  0.97767  1.0000
  C   C5        1.0  0.32385  0.31365  0.48547  1.0000
  C   C6        1.0  0.69634  0.18653  0.97766  1.0000
  C   C7        1.0  0.69583  0.31350  0.52240  1.0000
  C   C8        1.0  0.32416  0.18633  0.01456  1.0000
  C   C9        1.0  0.69938  0.99999  0.33892  1.0000
  C   C10       1.0  0.29551  0.50000  0.84481  1.0000
  C   C11       1.0  0.29414  0.99999  0.65523  1.0000
  C   C12       1.0  0.69888  0.50001  0.16105  1.0000
  C   C13       1.0  0.01703  0.99999  0.28739  1.0000
  C   C14       1.0  0.97412  0.50002  0.79668  1.0000
  C   C15       1.0  0.97239  0.00001  0.70324  1.0000
  C   C16       1.0  0.01625  0.49999  0.21259  1.0000
  C   C17       1.0  0.64059  0.99998  0.25018  1.0000
  C   C18       1.0  0.34896  0.50001  0.75573  1.0000
  C   C19       1.0  0.34690  0.00000  0.74435  1.0000
  C   C20       1.0  0.63957  0.50000  0.24978  1.0000
  C   C21       1.0  0.95061  1.00000  0.19972  1.0000
  C   C22       1.0  0.03829  0.50003  0.70909  1.0000
  C   C23       1.0  0.03583  0.00001  0.79084  1.0000
  C   C24       1.0  0.94931  0.49998  0.30026  1.0000
  N   N1        1.0  0.81742  0.80486  0.52879  1.0000
  N   N2        1.0  0.20207  0.69497  0.01528  1.0000
  N   N3        1.0  0.20171  0.80500  0.48472  1.0000
  N   N4        1.0  0.81798  0.69513  0.97124  1.0000
  N   N5        1.0  0.20172  0.19496  0.48472  1.0000
  N   N6        1.0  0.81797  0.30490  0.97123  1.0000
  N   N7        1.0  0.81742  0.19513  0.52880  1.0000
  N   N8        1.0  0.20205  0.30502  0.01527  1.0000
  N   N9        1.0  0.89083  0.99999  0.35544  1.0000
  N   N10       1.0  0.10281  0.50001  0.86527  1.0000
  N   N11       1.0  0.10162  0.99999  0.63469  1.0000
  N   N12       1.0  0.89044  0.50000  0.14454  1.0000
  N   N13       1.0  0.75868  1.00000  0.18158  1.0000
  N   N14       1.0  0.22920  0.50002  0.68785  1.0000
  N   N15       1.0  0.22661  0.00001  0.81217  1.0000
  N   N16       1.0  0.75725  0.49999  0.31839  1.0000
  F   F1        1.0  0.44667  0.99997  0.23129  1.0000
  F   F2        1.0  0.54268  0.50000  0.73599  1.0000
  F   F3        1.0  0.54048  0.00001  0.76419  1.0000
  F   F4        1.0  0.44556  0.50001  0.26865  1.0000
