data_image0
_chemical_formula_structural       Fe2H12Pd2C24N16F4
_chemical_formula_sum              "Fe2 H12 Pd2 C24 N16 F4"
_cell_length_a       6.98495
_cell_length_b       7.16756
_cell_length_c       15.0916
_cell_angle_alpha    89.9999
_cell_angle_beta     89.9986
_cell_angle_gamma    90

_space_group_name_H-M_alt    "P 1"
_space_group_IT_number       1

loop_
  _space_group_symop_operation_xyz
  'x, y, z'

loop_
  _atom_site_type_symbol
  _atom_site_label
  _atom_site_symmetry_multiplicity
  _atom_site_fract_x
  _atom_site_fract_y
  _atom_site_fract_z
  _atom_site_occupancy
  Fe  Fe1       1.0  0.48828  0.50000  0.01191  1.0000
  Fe  Fe2       1.0  0.48829  1.00000  0.48809  1.0000
  H   H1        1.0  0.10754  0.50000  0.10107  1.0000
  H   H2        1.0  0.89360  0.99999  0.60429  1.0000
  H   H3        1.0  0.89362  0.50000  0.89574  1.0000
  H   H4        1.0  0.10755  1.00000  0.39893  1.0000
  H   H5        1.0  0.67710  0.50000  0.18677  1.0000
  H   H6        1.0  0.33121  0.00000  0.69589  1.0000
  H   H7        1.0  0.33129  0.49999  0.80408  1.0000
  H   H8        1.0  0.67710  1.00000  0.31322  1.0000
  H   H9        1.0  0.56370  0.50000  0.34568  1.0000
  H   H10       1.0  0.45183  0.00001  0.85585  1.0000
  H   H11       1.0  0.45201  0.50000  0.64413  1.0000
  H   H12       1.0  0.56368  0.00000  0.15431  1.0000
  Pd  Pd1       1.0  0.99045  0.00000  0.00291  1.0000
  Pd  Pd2       1.0  0.99047  0.50000  0.49710  1.0000
  C   C1        1.0  0.18627  0.80541  0.98454  1.0000
  C   C2        1.0  0.79599  0.69482  0.47547  1.0000
  C   C3        1.0  0.79598  0.80517  0.02453  1.0000
  C   C4        1.0  0.18628  0.69458  0.51546  1.0000
  C   C5        1.0  0.79598  0.19483  0.02453  1.0000
  C   C6        1.0  0.18629  0.30542  0.51546  1.0000
  C   C7        1.0  0.18627  0.19459  0.98454  1.0000
  C   C8        1.0  0.79599  0.30517  0.47547  1.0000
  C   C9        1.0  0.21103  0.50000  0.15479  1.0000
  C   C10       1.0  0.79416  1.00000  0.65999  1.0000
  C   C11       1.0  0.79422  0.50000  0.84003  1.0000
  C   C12       1.0  0.21104  1.00000  0.34520  1.0000
  C   C13       1.0  0.52606  0.50000  0.20358  1.0000
  C   C14       1.0  0.48287  0.00000  0.71212  1.0000
  C   C15       1.0  0.48297  0.49999  0.78786  1.0000
  C   C16       1.0  0.52605  1.00000  0.29641  1.0000
  C   C17       1.0  0.15755  0.50000  0.24348  1.0000
  C   C18       1.0  0.85324  0.00000  0.74833  1.0000
  C   C19       1.0  0.85336  0.50000  0.75170  1.0000
  C   C20       1.0  0.15755  0.00000  0.25652  1.0000
  C   C21       1.0  0.46219  0.50000  0.29073  1.0000
  C   C22       1.0  0.54945  0.00001  0.79933  1.0000
  C   C23       1.0  0.54959  0.50000  0.70066  1.0000
  C   C24       1.0  0.46217  0.00000  0.20926  1.0000
  N   N1        1.0  0.30392  0.68887  0.98480  1.0000
  N   N2        1.0  0.67841  0.81095  0.47029  1.0000
  N   N3        1.0  0.67840  0.68904  0.02971  1.0000
  N   N4        1.0  0.30393  0.81114  0.51520  1.0000
  N   N5        1.0  0.67839  0.31096  0.02971  1.0000
  N   N6        1.0  0.30393  0.18887  0.51520  1.0000
  N   N7        1.0  0.30392  0.31114  0.98480  1.0000
  N   N8        1.0  0.67841  0.18905  0.47028  1.0000
  N   N9        1.0  0.40016  0.50000  0.13495  1.0000
  N   N10       1.0  0.60617  0.00000  0.64407  1.0000
  N   N11       1.0  0.60622  0.49999  0.85593  1.0000
  N   N12       1.0  0.40016  1.00000  0.36504  1.0000
  N   N13       1.0  0.27459  0.50000  0.31144  1.0000
  N   N14       1.0  0.73805  0.00001  0.81693  1.0000
  N   N15       1.0  0.73821  0.50000  0.68309  1.0000
  N   N16       1.0  0.27459  0.00000  0.18856  1.0000
  F   F1        1.0  0.96726  0.49999  0.26238  1.0000
  F   F2        1.0  0.04380  0.00000  0.76642  1.0000
  F   F3        1.0  0.04394  0.50001  0.73362  1.0000
  F   F4        1.0  0.96726  1.00000  0.23762  1.0000
