data_image0
_chemical_formula_structural       Cd12H32C48N40
_chemical_formula_sum              "Cd12 H32 C48 N40"
_cell_length_a       13.1016
_cell_length_b       14.2701
_cell_length_c       14.1514
_cell_angle_alpha    90
_cell_angle_beta     105.45
_cell_angle_gamma    90

_space_group_name_H-M_alt    "P 1"
_space_group_IT_number       1

loop_
  _space_group_symop_operation_xyz
  'x, y, z'

loop_
  _atom_site_type_symbol
  _atom_site_label
  _atom_site_symmetry_multiplicity
  _atom_site_fract_x
  _atom_site_fract_y
  _atom_site_fract_z
  _atom_site_occupancy
  Cd  Cd1       1.0  0.34276  0.33376  0.88467  1.0000
  Cd  Cd2       1.0  0.84277  0.16624  0.38466  1.0000
  Cd  Cd3       1.0  0.65724  0.66623  0.11534  1.0000
  Cd  Cd4       1.0  0.15724  0.83377  0.61534  1.0000
  Cd  Cd5       1.0  0.32066  0.04573  0.13938  1.0000
  Cd  Cd6       1.0  0.82065  0.45427  0.63937  1.0000
  Cd  Cd7       1.0  0.67934  0.95427  0.86062  1.0000
  Cd  Cd8       1.0  0.17935  0.54573  0.36063  1.0000
  Cd  Cd9       1.0  0.20772  0.68189  0.99168  1.0000
  Cd  Cd10      1.0  0.70772  0.81811  0.49168  1.0000
  Cd  Cd11      1.0  0.79228  0.31811  0.00832  1.0000
  Cd  Cd12      1.0  0.29229  0.18189  0.50832  1.0000
  H   H1        1.0  0.51536  0.14930  0.05420  1.0000
  H   H2        1.0  0.01535  0.35070  0.55420  1.0000
  H   H3        1.0  0.48466  0.85070  0.94580  1.0000
  H   H4        1.0  0.98465  0.64930  0.44580  1.0000
  H   H5        1.0  0.70246  0.08819  0.08068  1.0000
  H   H6        1.0  0.20245  0.41181  0.58067  1.0000
  H   H7        1.0  0.29755  0.91180  0.91932  1.0000
  H   H8        1.0  0.79755  0.58819  0.41932  1.0000
  H   H9        1.0  0.73447  0.93681  0.18340  1.0000
  H   H10       1.0  0.23446  0.56319  0.68340  1.0000
  H   H11       1.0  0.26553  0.06319  0.81659  1.0000
  H   H12       1.0  0.76554  0.43681  0.31659  1.0000
  H   H13       1.0  0.54272  0.90314  0.22576  1.0000
  H   H14       1.0  0.04272  0.59686  0.72576  1.0000
  H   H15       1.0  0.45728  0.09686  0.77424  1.0000
  H   H16       1.0  0.95729  0.40314  0.27424  1.0000
  H   H17       1.0  0.98980  0.58619  0.04262  1.0000
  H   H18       1.0  0.48980  0.91380  0.54262  1.0000
  H   H19       1.0  0.01020  0.41380  0.95738  1.0000
  H   H20       1.0  0.51020  0.08620  0.45739  1.0000
  H   H21       1.0  0.80197  0.59114  0.93517  1.0000
  H   H22       1.0  0.30196  0.90885  0.43517  1.0000
  H   H23       1.0  0.19803  0.40885  0.06483  1.0000
  H   H24       1.0  0.69804  0.09115  0.56484  1.0000
  H   H25       1.0  0.78423  0.69571  0.78226  1.0000
  H   H26       1.0  0.28422  0.80428  0.28226  1.0000
  H   H27       1.0  0.21577  0.30428  0.21774  1.0000
  H   H28       1.0  0.71577  0.19572  0.71775  1.0000
  H   H29       1.0  0.98934  0.75893  0.80046  1.0000
  H   H30       1.0  0.48932  0.74107  0.30045  1.0000
  H   H31       1.0  0.01066  0.24107  0.19953  1.0000
  H   H32       1.0  0.51067  0.25893  0.69955  1.0000
  C   C1        1.0  0.26332  0.45845  0.91894  1.0000
  C   C2        1.0  0.76332  0.04154  0.41890  1.0000
  C   C3        1.0  0.73667  0.54153  0.08108  1.0000
  C   C4        1.0  0.23667  0.95847  0.58109  1.0000
  C   C5        1.0  0.29474  0.27202  0.73770  1.0000
  C   C6        1.0  0.79475  0.22801  0.23771  1.0000
  C   C7        1.0  0.70525  0.72797  0.26231  1.0000
  C   C8        1.0  0.20525  0.77202  0.76231  1.0000
  C   C9        1.0  0.51636  0.32676  0.93433  1.0000
  C   C10       1.0  0.01636  0.17325  0.43432  1.0000
  C   C11       1.0  0.48365  0.67325  0.06566  1.0000
  C   C12       1.0  0.98365  0.82675  0.56565  1.0000
  C   C13       1.0  0.28945  0.16337  0.03341  1.0000
  C   C14       1.0  0.78944  0.33663  0.53339  1.0000
  C   C15       1.0  0.71056  0.83663  0.96660  1.0000
  C   C16       1.0  0.21056  0.66337  0.46660  1.0000
  C   C17       1.0  0.24843  0.91224  0.08060  1.0000
  C   C18       1.0  0.74843  0.58776  0.58059  1.0000
  C   C19       1.0  0.75156  0.08777  0.91938  1.0000
  C   C20       1.0  0.25157  0.41223  0.41939  1.0000
  C   C21       1.0  0.31147  0.09259  0.28361  1.0000
  C   C22       1.0  0.81148  0.40742  0.78362  1.0000
  C   C23       1.0  0.68851  0.90742  0.71638  1.0000
  C   C24       1.0  0.18851  0.59259  0.21638  1.0000
  C   C25       1.0  0.54677  0.08677  0.09530  1.0000
  C   C26       1.0  0.04675  0.41324  0.59529  1.0000
  C   C27       1.0  0.45324  0.91323  0.90470  1.0000
  C   C28       1.0  0.95324  0.58677  0.40470  1.0000
  C   C29       1.0  0.66050  0.97508  0.16333  1.0000
  C   C30       1.0  0.16049  0.52492  0.66333  1.0000
  C   C31       1.0  0.33951  0.02491  0.83667  1.0000
  C   C32       1.0  0.83951  0.47509  0.33666  1.0000
  C   C33       1.0  0.56495  0.95905  0.18330  1.0000
  C   C34       1.0  0.06495  0.54095  0.68330  1.0000
  C   C35       1.0  0.43505  0.04095  0.81669  1.0000
  C   C36       1.0  0.93505  0.45905  0.31669  1.0000
  C   C37       1.0  0.96374  0.62462  0.97434  1.0000
  C   C38       1.0  0.46374  0.87538  0.47434  1.0000
  C   C39       1.0  0.03625  0.37537  0.02566  1.0000
  C   C40       1.0  0.53626  0.12462  0.52567  1.0000
  C   C41       1.0  0.85738  0.68234  0.83795  1.0000
  C   C42       1.0  0.35737  0.81765  0.33795  1.0000
  C   C43       1.0  0.14262  0.31765  0.16205  1.0000
  C   C44       1.0  0.64263  0.18235  0.66205  1.0000
  C   C45       1.0  0.95929  0.71318  0.84807  1.0000
  C   C46       1.0  0.45928  0.78682  0.34806  1.0000
  C   C47       1.0  0.04071  0.28682  0.15193  1.0000
  C   C48       1.0  0.54072  0.21318  0.65194  1.0000
  N   N1        1.0  0.22176  0.52234  0.94472  1.0000
  N   N2        1.0  0.72177  0.97767  0.44471  1.0000
  N   N3        1.0  0.77823  0.47766  0.05528  1.0000
  N   N4        1.0  0.27823  0.02233  0.55528  1.0000
  N   N5        1.0  0.28109  0.23673  0.66087  1.0000
  N   N6        1.0  0.78110  0.26326  0.16087  1.0000
  N   N7        1.0  0.71891  0.76327  0.33913  1.0000
  N   N8        1.0  0.21890  0.73674  0.83914  1.0000
  N   N9        1.0  0.60840  0.31929  0.95603  1.0000
  N   N10       1.0  0.10841  0.18072  0.45604  1.0000
  N   N11       1.0  0.39159  0.68072  0.04397  1.0000
  N   N12       1.0  0.89160  0.81929  0.54395  1.0000
  N   N13       1.0  0.29228  0.22548  0.98043  1.0000
  N   N14       1.0  0.79228  0.27451  0.48042  1.0000
  N   N15       1.0  0.70772  0.77451  0.01958  1.0000
  N   N16       1.0  0.20772  0.72549  0.51958  1.0000
  N   N17       1.0  0.21762  0.84067  0.04367  1.0000
  N   N18       1.0  0.71762  0.65934  0.54367  1.0000
  N   N19       1.0  0.78238  0.15934  0.95632  1.0000
  N   N20       1.0  0.28239  0.34066  0.45633  1.0000
  N   N21       1.0  0.30564  0.12454  0.35793  1.0000
  N   N22       1.0  0.80564  0.37547  0.85793  1.0000
  N   N23       1.0  0.69436  0.87546  0.64207  1.0000
  N   N24       1.0  0.19436  0.62454  0.14207  1.0000
  N   N25       1.0  0.49482  0.02915  0.14048  1.0000
  N   N26       1.0  0.99481  0.47085  0.64048  1.0000
  N   N27       1.0  0.50519  0.97085  0.85952  1.0000
  N   N28       1.0  0.00519  0.52915  0.35952  1.0000
  N   N29       1.0  0.64702  0.05576  0.10778  1.0000
  N   N30       1.0  0.14701  0.44424  0.60778  1.0000
  N   N31       1.0  0.35299  0.94424  0.89222  1.0000
  N   N32       1.0  0.85299  0.55576  0.39222  1.0000
  N   N33       1.0  0.02468  0.67656  0.93333  1.0000
  N   N34       1.0  0.52468  0.82343  0.43332  1.0000
  N   N35       1.0  0.97531  0.32343  0.06667  1.0000
  N   N36       1.0  0.47532  0.17656  0.56668  1.0000
  N   N37       1.0  0.86233  0.62643  0.91845  1.0000
  N   N38       1.0  0.36233  0.87356  0.41845  1.0000
  N   N39       1.0  0.13766  0.37356  0.08155  1.0000
  N   N40       1.0  0.63767  0.12644  0.58156  1.0000
