data_image0
_chemical_formula_structural       Fe2H12Pt2C24N16F4
_chemical_formula_sum              "Fe2 H12 Pt2 C24 N16 F4"
_cell_length_a       7.0072
_cell_length_b       7.16652
_cell_length_c       15.3323
_cell_angle_alpha    90.0005
_cell_angle_beta     90.0392
_cell_angle_gamma    90

_space_group_name_H-M_alt    "P 1"
_space_group_IT_number       1

loop_
  _space_group_symop_operation_xyz
  'x, y, z'

loop_
  _atom_site_type_symbol
  _atom_site_label
  _atom_site_symmetry_multiplicity
  _atom_site_fract_x
  _atom_site_fract_y
  _atom_site_fract_z
  _atom_site_occupancy
  Fe  Fe1       1.0  0.48913  0.50000  0.98786  1.0000
  Fe  Fe2       1.0  0.48921  0.00000  0.51208  1.0000
  H   H1        1.0  0.88596  0.50000  0.10614  1.0000
  H   H2        1.0  0.11542  1.00000  0.60304  1.0000
  H   H3        1.0  0.11488  0.50000  0.89720  1.0000
  H   H4        1.0  0.88546  0.00000  0.39402  1.0000
  H   H5        1.0  0.43645  0.50000  0.34982  1.0000
  H   H6        1.0  0.57949  0.99999  0.83995  1.0000
  H   H7        1.0  0.57715  0.50000  0.65986  1.0000
  H   H8        1.0  0.43626  1.00000  0.14994  1.0000
  H   H9        1.0  0.32211  0.50000  0.19132  1.0000
  H   H10       1.0  0.68642  0.00000  0.68252  1.0000
  H   H11       1.0  0.68525  0.50000  0.81721  1.0000
  H   H12       1.0  0.32169  0.00000  0.30837  1.0000
  Pt  Pt1       1.0  0.99114  0.00000  0.99595  1.0000
  Pt  Pt2       1.0  0.99119  0.50000  0.50411  1.0000
  C   C1        1.0  0.78508  0.50000  0.16021  1.0000
  C   C2        1.0  0.22036  0.00000  0.65516  1.0000
  C   C3        1.0  0.21941  0.50000  0.84499  1.0000
  C   C4        1.0  0.78466  0.00001  0.33986  1.0000
  C   C5        1.0  0.84074  0.50000  0.24763  1.0000
  C   C6        1.0  0.17051  1.00000  0.74281  1.0000
  C   C7        1.0  0.16888  0.50000  0.75738  1.0000
  C   C8        1.0  0.84037  0.00000  0.25249  1.0000
  C   C9        1.0  0.53584  0.50000  0.29503  1.0000
  C   C10       1.0  0.47613  0.99999  0.78670  1.0000
  C   C11       1.0  0.47421  0.50000  0.71322  1.0000
  C   C12       1.0  0.53555  0.00000  0.20483  1.0000
  C   C13       1.0  0.47269  0.50000  0.20868  1.0000
  C   C14       1.0  0.53648  1.00000  0.70041  1.0000
  C   C15       1.0  0.53518  0.50000  0.79946  1.0000
  C   C16       1.0  0.47232  0.00001  0.29115  1.0000
  C   C17       1.0  0.79603  0.80548  0.97797  1.0000
  C   C18       1.0  0.18721  0.69418  0.48881  1.0000
  C   C19       1.0  0.18724  0.80581  0.01126  1.0000
  C   C20       1.0  0.79604  0.69452  0.52203  1.0000
  C   C21       1.0  0.18725  0.19419  0.01125  1.0000
  C   C22       1.0  0.79604  0.30547  0.52203  1.0000
  C   C23       1.0  0.79603  0.19453  0.97797  1.0000
  C   C24       1.0  0.18721  0.30582  0.48880  1.0000
  N   N1        1.0  0.59840  0.50000  0.14285  1.0000
  N   N2        1.0  0.40800  0.00000  0.63395  1.0000
  N   N3        1.0  0.40719  0.50000  0.86602  1.0000
  N   N4        1.0  0.59797  0.00001  0.35707  1.0000
  N   N5        1.0  0.67924  0.68899  0.97213  1.0000
  N   N6        1.0  0.30434  0.81094  0.48732  1.0000
  N   N7        1.0  0.30435  0.68903  0.01270  1.0000
  N   N8        1.0  0.67930  0.81100  0.52782  1.0000
  N   N9        1.0  0.30435  0.31097  0.01270  1.0000
  N   N10       1.0  0.67932  0.18900  0.52782  1.0000
  N   N11       1.0  0.67924  0.31101  0.97213  1.0000
  N   N12       1.0  0.30435  0.18907  0.48732  1.0000
  N   N13       1.0  0.72306  0.50000  0.31405  1.0000
  N   N14       1.0  0.29012  0.99999  0.80864  1.0000
  N   N15       1.0  0.28804  0.50000  0.69145  1.0000
  N   N16       1.0  0.72278  0.00000  0.18596  1.0000
  F   F1        1.0  0.03011  0.50000  0.26684  1.0000
  F   F2        1.0  0.98160  0.99999  0.76275  1.0000
  F   F3        1.0  0.97980  0.50000  0.73759  1.0000
  F   F4        1.0  0.02980  0.00000  0.23338  1.0000
