data_image0
_chemical_formula_structural       Fe2H12Pt2C24N16F4
_chemical_formula_sum              "Fe2 H12 Pt2 C24 N16 F4"
_cell_length_a       6.91616
_cell_length_b       7.20255
_cell_length_c       15.0064
_cell_angle_alpha    90
_cell_angle_beta     90.0002
_cell_angle_gamma    90

_space_group_name_H-M_alt    "P 1"
_space_group_IT_number       1

loop_
  _space_group_symop_operation_xyz
  'x, y, z'

loop_
  _atom_site_type_symbol
  _atom_site_label
  _atom_site_symmetry_multiplicity
  _atom_site_fract_x
  _atom_site_fract_y
  _atom_site_fract_z
  _atom_site_occupancy
  Fe  Fe1       1.0  0.50000  0.00000  0.50000  1.0000
  Fe  Fe2       1.0  0.50000  0.50000  0.00000  1.0000
  H   H1        1.0  0.13148  0.00000  0.60060  1.0000
  H   H2        1.0  0.86851  0.50000  0.10061  1.0000
  H   H3        1.0  0.86852  1.00000  0.39940  1.0000
  H   H4        1.0  0.13149  0.50000  0.89939  1.0000
  H   H5        1.0  0.62432  1.00000  0.83252  1.0000
  H   H6        1.0  0.37567  0.50000  0.33252  1.0000
  H   H7        1.0  0.37568  1.00000  0.16748  1.0000
  H   H8        1.0  0.62433  0.50000  0.66748  1.0000
  H   H9        1.0  0.71622  1.00000  0.66956  1.0000
  H   H10       1.0  0.28377  0.50000  0.16956  1.0000
  H   H11       1.0  0.28378  1.00000  0.33044  1.0000
  H   H12       1.0  0.71622  0.50000  0.83044  1.0000
  Pt  Pt1       1.0  0.00000  0.50000  0.50000  1.0000
  Pt  Pt2       1.0  1.00000  0.00000  1.00000  1.0000
  C   C1        1.0  0.24294  0.00000  0.65155  1.0000
  C   C2        1.0  0.75705  0.50000  0.15156  1.0000
  C   C3        1.0  0.75706  1.00000  0.34845  1.0000
  C   C4        1.0  0.24294  0.50000  0.84844  1.0000
  C   C5        1.0  0.20050  1.00000  0.74211  1.0000
  C   C6        1.0  0.79949  0.50000  0.24211  1.0000
  C   C7        1.0  0.79950  1.00000  0.25789  1.0000
  C   C8        1.0  0.20051  0.50000  0.75789  1.0000
  C   C9        1.0  0.51431  1.00000  0.78042  1.0000
  C   C10       1.0  0.48569  0.50000  0.28042  1.0000
  C   C11       1.0  0.48569  1.00000  0.21958  1.0000
  C   C12       1.0  0.51432  0.50000  0.71958  1.0000
  C   C13       1.0  0.56622  1.00000  0.69092  1.0000
  C   C14       1.0  0.43377  0.50000  0.19092  1.0000
  C   C15       1.0  0.43378  1.00000  0.30908  1.0000
  C   C16       1.0  0.56623  0.50000  0.80908  1.0000
  C   C17       1.0  0.80273  0.30542  0.51545  1.0000
  C   C18       1.0  0.19728  0.19459  0.01545  1.0000
  C   C19       1.0  0.19728  0.30542  0.48455  1.0000
  C   C20       1.0  0.80272  0.19459  0.98455  1.0000
  C   C21       1.0  0.19728  0.69459  0.48455  1.0000
  C   C22       1.0  0.80272  0.80542  0.98455  1.0000
  C   C23       1.0  0.80272  0.69458  0.51545  1.0000
  C   C24       1.0  0.19727  0.80543  0.01545  1.0000
  N   N1        1.0  0.42984  0.00000  0.62631  1.0000
  N   N2        1.0  0.57016  0.50000  0.12631  1.0000
  N   N3        1.0  0.57017  1.00000  0.37369  1.0000
  N   N4        1.0  0.42984  0.50000  0.87369  1.0000
  N   N5        1.0  0.68728  0.18670  0.51866  1.0000
  N   N6        1.0  0.31272  0.31330  0.01866  1.0000
  N   N7        1.0  0.31272  0.18671  0.48134  1.0000
  N   N8        1.0  0.68728  0.31330  0.98134  1.0000
  N   N9        1.0  0.31272  0.81329  0.48134  1.0000
  N   N10       1.0  0.68728  0.68671  0.98134  1.0000
  N   N11       1.0  0.68728  0.81329  0.51866  1.0000
  N   N12       1.0  0.31272  0.68671  0.01866  1.0000
  N   N13       1.0  0.32813  1.00000  0.80678  1.0000
  N   N14       1.0  0.67186  0.50000  0.30678  1.0000
  N   N15       1.0  0.67187  1.00000  0.19322  1.0000
  N   N16       1.0  0.32814  0.50000  0.69322  1.0000
  F   F1        1.0  0.01098  1.00000  0.76628  1.0000
  F   F2        1.0  0.98901  0.50000  0.26628  1.0000
  F   F3        1.0  0.98902  0.99999  0.23372  1.0000
  F   F4        1.0  0.01099  0.49999  0.73372  1.0000
