data_image0
_chemical_formula_structural       Zn2H20C36N16Cl8O4
_chemical_formula_sum              "Zn2 H20 C36 N16 Cl8 O4"
_cell_length_a       8.71113
_cell_length_b       10.2873
_cell_length_c       12.0037
_cell_angle_alpha    98.8736
_cell_angle_beta     90.0002
_cell_angle_gamma    90.0002

_space_group_name_H-M_alt    "P 1"
_space_group_IT_number       1

loop_
  _space_group_symop_operation_xyz
  'x, y, z'

loop_
  _atom_site_type_symbol
  _atom_site_label
  _atom_site_symmetry_multiplicity
  _atom_site_fract_x
  _atom_site_fract_y
  _atom_site_fract_z
  _atom_site_occupancy
  Zn  Zn1       1.0  0.50000  0.50000  1.00000  1.0000
  Zn  Zn2       1.0  1.00000  1.00000  0.00000  1.0000
  H   H1        1.0  0.63761  0.38915  0.29623  1.0000
  H   H2        1.0  0.13760  0.11085  0.70377  1.0000
  H   H3        1.0  0.36239  0.61086  0.70377  1.0000
  H   H4        1.0  0.86240  0.88915  0.29623  1.0000
  H   H5        1.0  0.62829  0.54969  0.44721  1.0000
  H   H6        1.0  0.12828  0.95031  0.55279  1.0000
  H   H7        1.0  0.37171  0.45032  0.55279  1.0000
  H   H8        1.0  0.87171  0.04969  0.44721  1.0000
  H   H9        1.0  0.42724  0.92977  0.43245  1.0000
  H   H10       1.0  0.92724  0.57023  0.56756  1.0000
  H   H11       1.0  0.57275  0.07023  0.56755  1.0000
  H   H12       1.0  0.07276  0.42977  0.43245  1.0000
  H   H13       1.0  0.43506  0.13232  0.12745  1.0000
  H   H14       1.0  0.93506  0.36768  0.87255  1.0000
  H   H15       1.0  0.56494  0.86768  0.87255  1.0000
  H   H16       1.0  0.06494  0.63232  0.12745  1.0000
  H   H17       1.0  0.85232  0.31965  0.06746  1.0000
  H   H18       1.0  0.35232  0.18035  0.93253  1.0000
  H   H19       1.0  0.14768  0.68035  0.93253  1.0000
  H   H20       1.0  0.64768  0.81965  0.06747  1.0000
  C   C1        1.0  0.57512  0.44468  0.23957  1.0000
  C   C2        1.0  0.07512  0.05532  0.76043  1.0000
  C   C3        1.0  0.42488  0.55532  0.76043  1.0000
  C   C4        1.0  0.92488  0.94468  0.23957  1.0000
  C   C5        1.0  0.56682  0.61681  0.40099  1.0000
  C   C6        1.0  0.06681  0.88318  0.59901  1.0000
  C   C7        1.0  0.43318  0.38319  0.59900  1.0000
  C   C8        1.0  0.93319  0.11681  0.40099  1.0000
  C   C9        1.0  0.52533  0.57382  0.28681  1.0000
  C   C10       1.0  0.02532  0.92618  0.71319  1.0000
  C   C11       1.0  0.47468  0.42618  0.71319  1.0000
  C   C12       1.0  0.97468  0.07382  0.28681  1.0000
  C   C13       1.0  0.43885  0.65829  0.22406  1.0000
  C   C14       1.0  0.93885  0.84171  0.77594  1.0000
  C   C15       1.0  0.56115  0.34172  0.77593  1.0000
  C   C16       1.0  0.06115  0.15829  0.22407  1.0000
  C   C17       1.0  0.41253  0.78951  0.28177  1.0000
  C   C18       1.0  0.91253  0.71049  0.71823  1.0000
  C   C19       1.0  0.58747  0.21050  0.71823  1.0000
  C   C20       1.0  0.08747  0.28951  0.28177  1.0000
  C   C21       1.0  0.52946  0.74192  0.45289  1.0000
  C   C22       1.0  0.02946  0.75808  0.54711  1.0000
  C   C23       1.0  0.47053  0.25809  0.54710  1.0000
  C   C24       1.0  0.97054  0.24192  0.45290  1.0000
  C   C25       1.0  0.45434  0.83007  0.39255  1.0000
  C   C26       1.0  0.95434  0.66993  0.60745  1.0000
  C   C27       1.0  0.54566  0.16993  0.60745  1.0000
  C   C28       1.0  0.04566  0.33007  0.39255  1.0000
  C   C29       1.0  0.55480  0.14487  0.10638  1.0000
  C   C30       1.0  0.05480  0.35513  0.89362  1.0000
  C   C31       1.0  0.44520  0.85513  0.89362  1.0000
  C   C32       1.0  0.94520  0.64487  0.10638  1.0000
  C   C33       1.0  0.77141  0.24100  0.07484  1.0000
  C   C34       1.0  0.27142  0.25900  0.92516  1.0000
  C   C35       1.0  0.22859  0.75900  0.92516  1.0000
  C   C36       1.0  0.72859  0.74100  0.07484  1.0000
  N   N1        1.0  0.55476  0.38894  0.13502  1.0000
  N   N2        1.0  0.05476  0.11106  0.86498  1.0000
  N   N3        1.0  0.44524  0.61106  0.86498  1.0000
  N   N4        1.0  0.94524  0.88894  0.13503  1.0000
  N   N5        1.0  0.79096  0.11218  0.05232  1.0000
  N   N6        1.0  0.29096  0.38782  0.94767  1.0000
  N   N7        1.0  0.20904  0.88782  0.94768  1.0000
  N   N8        1.0  0.70904  0.61218  0.05232  1.0000
  N   N9        1.0  0.62420  0.26497  0.11035  1.0000
  N   N10       1.0  0.12420  0.23502  0.88965  1.0000
  N   N11       1.0  0.37580  0.73502  0.88965  1.0000
  N   N12       1.0  0.87580  0.76498  0.11035  1.0000
  N   N13       1.0  0.65532  0.05111  0.07249  1.0000
  N   N14       1.0  0.15532  0.44889  0.92751  1.0000
  N   N15       1.0  0.34468  0.94889  0.92751  1.0000
  N   N16       1.0  0.84468  0.55111  0.07249  1.0000
  Cl  Cl1       1.0  0.31943  0.89686  0.20833  1.0000
  Cl  Cl2       1.0  0.81943  0.60313  0.79167  1.0000
  Cl  Cl3       1.0  0.68057  0.10314  0.79166  1.0000
  Cl  Cl4       1.0  0.18057  0.39687  0.20833  1.0000
  Cl  Cl5       1.0  0.57344  0.79474  0.59376  1.0000
  Cl  Cl6       1.0  0.07344  0.70526  0.40625  1.0000
  Cl  Cl7       1.0  0.42655  0.20526  0.40624  1.0000
  Cl  Cl8       1.0  0.92656  0.29474  0.59375  1.0000
  O   O1        1.0  0.38537  0.62309  0.12383  1.0000
  O   O2        1.0  0.88537  0.87690  0.87617  1.0000
  O   O3        1.0  0.61463  0.37691  0.87616  1.0000
  O   O4        1.0  0.11463  0.12310  0.12383  1.0000
