data_image0
_chemical_formula_structural       Zn2H20C36Br8N16O4
_chemical_formula_sum              "Zn2 H20 C36 Br8 N16 O4"
_cell_length_a       8.94424
_cell_length_b       10.2897
_cell_length_c       12.5395
_cell_angle_alpha    98.9459
_cell_angle_beta     90
_cell_angle_gamma    90.0001

_space_group_name_H-M_alt    "P 1"
_space_group_IT_number       1

loop_
  _space_group_symop_operation_xyz
  'x, y, z'

loop_
  _atom_site_type_symbol
  _atom_site_label
  _atom_site_symmetry_multiplicity
  _atom_site_fract_x
  _atom_site_fract_y
  _atom_site_fract_z
  _atom_site_occupancy
  Zn  Zn1       1.0  0.50000  0.50000  0.00000  1.0000
  Zn  Zn2       1.0  0.00000  1.00000  1.00000  1.0000
  H   H1        1.0  0.64894  0.38442  0.27953  1.0000
  H   H2        1.0  0.14894  0.11558  0.72047  1.0000
  H   H3        1.0  0.35106  0.61558  0.72047  1.0000
  H   H4        1.0  0.85106  0.88442  0.27953  1.0000
  H   H5        1.0  0.64455  0.54197  0.42542  1.0000
  H   H6        1.0  0.14456  0.95803  0.57458  1.0000
  H   H7        1.0  0.35545  0.45803  0.57458  1.0000
  H   H8        1.0  0.85545  0.04197  0.42542  1.0000
  H   H9        1.0  0.44554  0.92321  0.42074  1.0000
  H   H10       1.0  0.94554  0.57679  0.57926  1.0000
  H   H11       1.0  0.55445  0.07679  0.57926  1.0000
  H   H12       1.0  0.05445  0.42321  0.42074  1.0000
  H   H13       1.0  0.44619  0.12831  0.11683  1.0000
  H   H14       1.0  0.94619  0.37169  0.88317  1.0000
  H   H15       1.0  0.55381  0.87169  0.88317  1.0000
  H   H16       1.0  0.05381  0.62831  0.11683  1.0000
  H   H17       1.0  0.85221  0.31835  0.06422  1.0000
  H   H18       1.0  0.35221  0.18165  0.93578  1.0000
  H   H19       1.0  0.14779  0.68165  0.93578  1.0000
  H   H20       1.0  0.64779  0.81836  0.06422  1.0000
  C   C1        1.0  0.58481  0.44039  0.22736  1.0000
  C   C2        1.0  0.08480  0.05961  0.77263  1.0000
  C   C3        1.0  0.41520  0.55961  0.77264  1.0000
  C   C4        1.0  0.91519  0.94039  0.22736  1.0000
  C   C5        1.0  0.58266  0.61032  0.38366  1.0000
  C   C6        1.0  0.08266  0.88968  0.61633  1.0000
  C   C7        1.0  0.41734  0.38968  0.61634  1.0000
  C   C8        1.0  0.91734  0.11032  0.38366  1.0000
  C   C9        1.0  0.53761  0.56896  0.27501  1.0000
  C   C10       1.0  0.03761  0.93104  0.72499  1.0000
  C   C11       1.0  0.46239  0.43104  0.72499  1.0000
  C   C12       1.0  0.96239  0.06896  0.27501  1.0000
  C   C13       1.0  0.44964  0.65420  0.21801  1.0000
  C   C14       1.0  0.94965  0.84580  0.78200  1.0000
  C   C15       1.0  0.55035  0.34580  0.78200  1.0000
  C   C16       1.0  0.05035  0.15420  0.21800  1.0000
  C   C17       1.0  0.42525  0.78423  0.27560  1.0000
  C   C18       1.0  0.92525  0.71577  0.72440  1.0000
  C   C19       1.0  0.57475  0.21577  0.72440  1.0000
  C   C20       1.0  0.07475  0.28423  0.27560  1.0000
  C   C21       1.0  0.54767  0.73481  0.43527  1.0000
  C   C22       1.0  0.04767  0.76519  0.56473  1.0000
  C   C23       1.0  0.45233  0.26519  0.56474  1.0000
  C   C24       1.0  0.95234  0.23481  0.43527  1.0000
  C   C25       1.0  0.47104  0.82400  0.38069  1.0000
  C   C26       1.0  0.97104  0.67600  0.61931  1.0000
  C   C27       1.0  0.52896  0.17600  0.61931  1.0000
  C   C28       1.0  0.02896  0.32400  0.38069  1.0000
  C   C29       1.0  0.56264  0.14176  0.09711  1.0000
  C   C30       1.0  0.06264  0.35824  0.90289  1.0000
  C   C31       1.0  0.43736  0.85824  0.90289  1.0000
  C   C32       1.0  0.93736  0.64176  0.09711  1.0000
  C   C33       1.0  0.77370  0.23918  0.06992  1.0000
  C   C34       1.0  0.27370  0.26082  0.93008  1.0000
  C   C35       1.0  0.22630  0.76082  0.93008  1.0000
  C   C36       1.0  0.72630  0.73918  0.06992  1.0000
  Br  Br1       1.0  0.31646  0.90233  0.20378  1.0000
  Br  Br2       1.0  0.81646  0.59767  0.79622  1.0000
  Br  Br3       1.0  0.68354  0.09767  0.79622  1.0000
  Br  Br4       1.0  0.18354  0.40233  0.20378  1.0000
  Br  Br5       1.0  0.59923  0.79032  0.58287  1.0000
  Br  Br6       1.0  0.09923  0.70968  0.41713  1.0000
  Br  Br7       1.0  0.40078  0.20968  0.41713  1.0000
  Br  Br8       1.0  0.90077  0.29032  0.58287  1.0000
  N   N1        1.0  0.56065  0.38559  0.12739  1.0000
  N   N2        1.0  0.06065  0.11440  0.87261  1.0000
  N   N3        1.0  0.43935  0.61441  0.87261  1.0000
  N   N4        1.0  0.93935  0.88559  0.12739  1.0000
  N   N5        1.0  0.79390  0.11050  0.04808  1.0000
  N   N6        1.0  0.29390  0.38950  0.95192  1.0000
  N   N7        1.0  0.20610  0.88950  0.95192  1.0000
  N   N8        1.0  0.70610  0.61050  0.04808  1.0000
  N   N9        1.0  0.62934  0.26218  0.10197  1.0000
  N   N10       1.0  0.12934  0.23782  0.89803  1.0000
  N   N11       1.0  0.37066  0.73782  0.89803  1.0000
  N   N12       1.0  0.87066  0.76218  0.10197  1.0000
  N   N13       1.0  0.66159  0.04859  0.06555  1.0000
  N   N14       1.0  0.16159  0.45141  0.93445  1.0000
  N   N15       1.0  0.33841  0.95141  0.93445  1.0000
  N   N16       1.0  0.83841  0.54859  0.06555  1.0000
  O   O1        1.0  0.39339  0.61933  0.12307  1.0000
  O   O2        1.0  0.89339  0.88066  0.87693  1.0000
  O   O3        1.0  0.60661  0.38067  0.87693  1.0000
  O   O4        1.0  0.10661  0.11933  0.12307  1.0000
