data_image0
_chemical_formula_structural       La2Ag2H12C28N4O16
_chemical_formula_sum              "La2 Ag2 H12 C28 N4 O16"
_cell_length_a       7.44277
_cell_length_b       10.3284
_cell_length_c       11.6095
_cell_angle_alpha    98.3488
_cell_angle_beta     101.079
_cell_angle_gamma    95.8393

_space_group_name_H-M_alt    "P 1"
_space_group_IT_number       1

loop_
  _space_group_symop_operation_xyz
  'x, y, z'

loop_
  _atom_site_type_symbol
  _atom_site_label
  _atom_site_symmetry_multiplicity
  _atom_site_fract_x
  _atom_site_fract_y
  _atom_site_fract_z
  _atom_site_occupancy
  La  La1       1.0  0.26083  0.47147  0.07330  1.0000
  La  La2       1.0  0.73918  0.52853  0.92670  1.0000
  Ag  Ag1       1.0  0.28884  0.76288  0.69946  1.0000
  Ag  Ag2       1.0  0.71115  0.23712  0.30054  1.0000
  H   H1        1.0  0.58282  0.62553  0.53475  1.0000
  H   H2        1.0  0.41719  0.37447  0.46525  1.0000
  H   H3        1.0  0.87420  0.69969  0.68690  1.0000
  H   H4        1.0  0.12581  0.30030  0.31310  1.0000
  H   H5        1.0  0.19252  0.65359  0.43037  1.0000
  H   H6        1.0  0.80748  0.34641  0.56963  1.0000
  H   H7        1.0  0.27657  0.02708  0.84113  1.0000
  H   H8        1.0  0.72342  0.97292  0.15887  1.0000
  H   H9        1.0  0.72334  0.84287  0.76964  1.0000
  H   H10       1.0  0.27665  0.15712  0.23036  1.0000
  H   H11       1.0  0.94662  0.02840  0.89339  1.0000
  H   H12       1.0  0.05338  0.97159  0.10661  1.0000
  C   C1        1.0  0.55232  0.54746  0.29387  1.0000
  C   C2        1.0  0.44768  0.45255  0.70613  1.0000
  C   C3        1.0  0.72564  0.59372  0.38803  1.0000
  C   C4        1.0  0.27436  0.40628  0.61196  1.0000
  C   C5        1.0  0.71492  0.63088  0.50703  1.0000
  C   C6        1.0  0.28508  0.36912  0.49297  1.0000
  C   C7        1.0  0.87588  0.67404  0.59284  1.0000
  C   C8        1.0  0.12412  0.32596  0.40716  1.0000
  C   C9        1.0  0.05574  0.64696  0.45140  1.0000
  C   C10       1.0  0.94427  0.35305  0.54861  1.0000
  C   C11       1.0  0.90143  0.60071  0.36014  1.0000
  C   C12       1.0  0.09858  0.39929  0.63986  1.0000
  C   C13       1.0  0.93148  0.55938  0.23626  1.0000
  C   C14       1.0  0.06853  0.44062  0.76374  1.0000
  C   C15       1.0  0.45198  0.25007  0.97742  1.0000
  C   C16       1.0  0.54802  0.74992  0.02258  1.0000
  C   C17       1.0  0.54063  0.14070  0.92242  1.0000
  C   C18       1.0  0.45936  0.85929  0.07758  1.0000
  C   C19       1.0  0.42582  0.03112  0.85224  1.0000
  C   C20       1.0  0.57418  0.96888  0.14776  1.0000
  C   C21       1.0  0.67458  0.92946  0.81230  1.0000
  C   C22       1.0  0.32541  0.07053  0.18770  1.0000
  C   C23       1.0  0.79897  0.03390  0.88158  1.0000
  C   C24       1.0  0.20103  0.96610  0.11841  1.0000
  C   C25       1.0  0.73324  0.14189  0.93961  1.0000
  C   C26       1.0  0.26676  0.85811  0.06039  1.0000
  C   C27       1.0  0.87343  0.24511  0.02584  1.0000
  C   C28       1.0  0.12657  0.75489  0.97416  1.0000
  N   N1        1.0  0.04474  0.68372  0.56560  1.0000
  N   N2        1.0  0.95527  0.31628  0.43440  1.0000
  N   N3        1.0  0.48986  0.92672  0.79797  1.0000
  N   N4        1.0  0.51013  0.07328  0.20203  1.0000
  O   O1        1.0  0.49979  0.42292  0.26136  1.0000
  O   O2        1.0  0.50022  0.57709  0.73863  1.0000
  O   O3        1.0  0.46458  0.63493  0.25293  1.0000
  O   O4        1.0  0.53542  0.36507  0.74707  1.0000
  O   O5        1.0  0.80148  0.56494  0.15019  1.0000
  O   O6        1.0  0.19852  0.43506  0.84981  1.0000
  O   O7        1.0  0.08751  0.52241  0.22944  1.0000
  O   O8        1.0  0.91248  0.47758  0.77056  1.0000
  O   O9        1.0  0.54396  0.36657  0.00543  1.0000
  O   O10       1.0  0.45604  0.63343  0.99457  1.0000
  O   O11       1.0  0.29087  0.22734  0.99613  1.0000
  O   O12       1.0  0.70913  0.77266  0.00388  1.0000
  O   O13       1.0  0.93406  0.21782  0.12607  1.0000
  O   O14       1.0  0.06593  0.78218  0.87393  1.0000
  O   O15       1.0  0.92880  0.34988  0.98667  1.0000
  O   O16       1.0  0.07120  0.65012  0.01332  1.0000
