data_image0
_chemical_formula_structural       Al4H44C60S8N4O20
_chemical_formula_sum              "Al4 H44 C60 S8 N4 O20"
_cell_length_a       6.65223
_cell_length_b       14.7468
_cell_length_c       15.089
_cell_angle_alpha    90
_cell_angle_beta     90
_cell_angle_gamma    90.9047

_space_group_name_H-M_alt    "P 1"
_space_group_IT_number       1

loop_
  _space_group_symop_operation_xyz
  'x, y, z'

loop_
  _atom_site_type_symbol
  _atom_site_label
  _atom_site_symmetry_multiplicity
  _atom_site_fract_x
  _atom_site_fract_y
  _atom_site_fract_z
  _atom_site_occupancy
  Al  Al1       1.0  0.99999  0.99999  0.00000  1.0000
  Al  Al2       1.0  0.50001  0.50000  0.50000  1.0000
  Al  Al3       1.0  0.50000  0.99999  1.00000  1.0000
  Al  Al4       1.0  0.00000  0.50000  0.50000  1.0000
  H   H1        1.0  0.25381  0.11915  0.02231  1.0000
  H   H2        1.0  0.24620  0.38084  0.52230  1.0000
  H   H3        1.0  0.74620  0.88084  0.97770  1.0000
  H   H4        1.0  0.75380  0.61915  0.47770  1.0000
  H   H5        1.0  0.56078  0.72842  0.65791  1.0000
  H   H6        1.0  0.93922  0.77157  0.15792  1.0000
  H   H7        1.0  0.43922  0.27159  0.34207  1.0000
  H   H8        1.0  0.06077  0.22844  0.84210  1.0000
  H   H9        1.0  0.55791  0.84994  0.77545  1.0000
  H   H10       1.0  0.94207  0.65006  0.27546  1.0000
  H   H11       1.0  0.44208  0.15007  0.22453  1.0000
  H   H12       1.0  0.05792  0.34995  0.72455  1.0000
  H   H13       1.0  0.93035  0.67890  0.69908  1.0000
  H   H14       1.0  0.56965  0.82107  0.19907  1.0000
  H   H15       1.0  0.06968  0.32108  0.30092  1.0000
  H   H16       1.0  0.43035  0.17890  0.80092  1.0000
  H   H17       1.0  0.92503  0.80163  0.81522  1.0000
  H   H18       1.0  0.57496  0.69835  0.31522  1.0000
  H   H19       1.0  0.07497  0.19836  0.18478  1.0000
  H   H20       1.0  0.42504  0.30162  0.68477  1.0000
  H   H21       1.0  0.76299  0.08475  0.39429  1.0000
  H   H22       1.0  0.73699  0.41525  0.89431  1.0000
  H   H23       1.0  0.23697  0.91526  0.60570  1.0000
  H   H24       1.0  0.26305  0.58477  0.10570  1.0000
  H   H25       1.0  0.25008  0.91026  0.32132  1.0000
  H   H26       1.0  0.24988  0.58974  0.82136  1.0000
  H   H27       1.0  0.74985  0.08975  0.67864  1.0000
  H   H28       1.0  0.75013  0.41027  0.17868  1.0000
  H   H29       1.0  0.48791  0.00327  0.40922  1.0000
  H   H30       1.0  0.01208  0.49672  0.90926  1.0000
  H   H31       1.0  0.51203  0.99673  0.59075  1.0000
  H   H32       1.0  0.98796  0.50327  0.09077  1.0000
  H   H33       1.0  0.84264  0.86557  0.31300  1.0000
  H   H34       1.0  0.65734  0.63443  0.81301  1.0000
  H   H35       1.0  0.15732  0.13444  0.68700  1.0000
  H   H36       1.0  0.34268  0.36559  0.18700  1.0000
  H   H37       1.0  0.90303  0.93815  0.22308  1.0000
  H   H38       1.0  0.59696  0.56183  0.72310  1.0000
  H   H39       1.0  0.09694  0.06185  0.77691  1.0000
  H   H40       1.0  0.40305  0.43817  0.27692  1.0000
  H   H41       1.0  0.69746  0.96387  0.29321  1.0000
  H   H42       1.0  0.80252  0.53613  0.79325  1.0000
  H   H43       1.0  0.30250  0.03614  0.70676  1.0000
  H   H44       1.0  0.19749  0.46389  0.20678  1.0000
  C   C1        1.0  0.24673  0.62128  0.60767  1.0000
  C   C2        1.0  0.25325  0.87870  0.10766  1.0000
  C   C3        1.0  0.75327  0.37871  0.39234  1.0000
  C   C4        1.0  0.74673  0.12129  0.89234  1.0000
  C   C5        1.0  0.24596  0.69675  0.67323  1.0000
  C   C6        1.0  0.25404  0.80323  0.17322  1.0000
  C   C7        1.0  0.75406  0.30324  0.32677  1.0000
  C   C8        1.0  0.74596  0.19676  0.82678  1.0000
  C   C9        1.0  0.42325  0.74531  0.69288  1.0000
  C   C10       1.0  0.07674  0.75468  0.19288  1.0000
  C   C11       1.0  0.57674  0.25469  0.30710  1.0000
  C   C12       1.0  0.92325  0.24532  0.80712  1.0000
  C   C13       1.0  0.24096  0.89954  0.87435  1.0000
  C   C14       1.0  0.25905  0.60046  0.37436  1.0000
  C   C15       1.0  0.75904  0.10045  0.12564  1.0000
  C   C16       1.0  0.74097  0.39955  0.62564  1.0000
  C   C17       1.0  0.24140  0.83201  0.80134  1.0000
  C   C18       1.0  0.25858  0.66798  0.30134  1.0000
  C   C19       1.0  0.75860  0.16799  0.19866  1.0000
  C   C20       1.0  0.74140  0.33200  0.69866  1.0000
  C   C21       1.0  0.42140  0.81255  0.75742  1.0000
  C   C22       1.0  0.07858  0.68744  0.25742  1.0000
  C   C23       1.0  0.57860  0.18746  0.24257  1.0000
  C   C24       1.0  0.92141  0.31255  0.74259  1.0000
  C   C25       1.0  0.06560  0.71758  0.71619  1.0000
  C   C26       1.0  0.43440  0.78240  0.21619  1.0000
  C   C27       1.0  0.93441  0.28241  0.28381  1.0000
  C   C28       1.0  0.56561  0.21759  0.78381  1.0000
  C   C29       1.0  0.06275  0.78542  0.77988  1.0000
  C   C30       1.0  0.43725  0.71456  0.27988  1.0000
  C   C31       1.0  0.93726  0.21457  0.22011  1.0000
  C   C32       1.0  0.56276  0.28542  0.72011  1.0000
  C   C33       1.0  0.05305  0.11703  0.45095  1.0000
  C   C34       1.0  0.44695  0.38296  0.95097  1.0000
  C   C35       1.0  0.94692  0.88297  0.54904  1.0000
  C   C36       1.0  0.55310  0.61704  0.04904  1.0000
  C   C37       1.0  0.91994  0.06525  0.39903  1.0000
  C   C38       1.0  0.58006  0.43475  0.89905  1.0000
  C   C39       1.0  0.08002  0.93476  0.60096  1.0000
  C   C40       1.0  0.41999  0.56525  0.10096  1.0000
  C   C41       1.0  0.98970  0.99114  0.35076  1.0000
  C   C42       1.0  0.51028  0.50887  0.85079  1.0000
  C   C43       1.0  0.01025  0.00888  0.64922  1.0000
  C   C44       1.0  0.48975  0.49115  0.14924  1.0000
  C   C45       1.0  0.19451  0.96879  0.35741  1.0000
  C   C46       1.0  0.30545  0.53122  0.85745  1.0000
  C   C47       1.0  0.80542  0.03122  0.64256  1.0000
  C   C48       1.0  0.69456  0.46880  0.14259  1.0000
  C   C49       1.0  0.33006  0.02144  0.40673  1.0000
  C   C50       1.0  0.16993  0.47856  0.90677  1.0000
  C   C51       1.0  0.66990  0.97857  0.59325  1.0000
  C   C52       1.0  0.83010  0.52144  0.09327  1.0000
  C   C53       1.0  0.26056  0.09713  0.45287  1.0000
  C   C54       1.0  0.23944  0.40288  0.95290  1.0000
  C   C55       1.0  0.73939  0.90288  0.54712  1.0000
  C   C56       1.0  0.76062  0.59713  0.04712  1.0000
  C   C57       1.0  0.85031  0.93702  0.29210  1.0000
  C   C58       1.0  0.64966  0.56298  0.79212  1.0000
  C   C59       1.0  0.14963  0.06299  0.70788  1.0000
  C   C60       1.0  0.35036  0.43704  0.20790  1.0000
  S   S1        1.0  0.99163  0.20710  0.51859  1.0000
  S   S2        1.0  0.50838  0.29291  0.01861  1.0000
  S   S3        1.0  0.00833  0.79292  0.48140  1.0000
  S   S4        1.0  0.49169  0.70709  0.98140  1.0000
  S   S5        1.0  0.39979  0.17426  0.51600  1.0000
  S   S6        1.0  0.10023  0.32575  0.01604  1.0000
  S   S7        1.0  0.60018  0.82575  0.48398  1.0000
  S   S8        1.0  0.89985  0.67425  0.98398  1.0000
  N   N1        1.0  0.21774  0.24249  0.54914  1.0000
  N   N2        1.0  0.28228  0.25751  0.04916  1.0000
  N   N3        1.0  0.78223  0.75752  0.45085  1.0000
  N   N4        1.0  0.71779  0.74248  0.95085  1.0000
  O   O1        1.0  0.25132  0.05507  0.00498  1.0000
  O   O2        1.0  0.24868  0.44492  0.50497  1.0000
  O   O3        1.0  0.74867  0.94492  0.99502  1.0000
  O   O4        1.0  0.75133  0.55508  0.49503  1.0000
  O   O5        1.0  0.07177  0.93077  0.89768  1.0000
  O   O6        1.0  0.42822  0.56922  0.39768  1.0000
  O   O7        1.0  0.92823  0.06922  0.10232  1.0000
  O   O8        1.0  0.57178  0.43077  0.60233  1.0000
  O   O9        1.0  0.07671  0.58540  0.58946  1.0000
  O   O10       1.0  0.42329  0.91459  0.08946  1.0000
  O   O11       1.0  0.92330  0.41460  0.41054  1.0000
  O   O12       1.0  0.57671  0.08540  0.91054  1.0000
  O   O13       1.0  0.41048  0.91861  0.90929  1.0000
  O   O14       1.0  0.08950  0.58139  0.40930  1.0000
  O   O15       1.0  0.58951  0.08138  0.09070  1.0000
  O   O16       1.0  0.91050  0.41861  0.59070  1.0000
  O   O17       1.0  0.41567  0.59908  0.57510  1.0000
  O   O18       1.0  0.08434  0.90090  0.07509  1.0000
  O   O19       1.0  0.58436  0.40091  0.42490  1.0000
  O   O20       1.0  0.91567  0.09909  0.92491  1.0000
