data_image0
_chemical_formula_structural       Al4H36C56S8N4O20
_chemical_formula_sum              "Al4 H36 C56 S8 N4 O20"
_cell_length_a       6.67251
_cell_length_b       13.8976
_cell_length_c       15.954
_cell_angle_alpha    90
_cell_angle_beta     90
_cell_angle_gamma    91.7164

_space_group_name_H-M_alt    "P 1"
_space_group_IT_number       1

loop_
  _space_group_symop_operation_xyz
  'x, y, z'

loop_
  _atom_site_type_symbol
  _atom_site_label
  _atom_site_symmetry_multiplicity
  _atom_site_fract_x
  _atom_site_fract_y
  _atom_site_fract_z
  _atom_site_occupancy
  Al  Al1       1.0  0.00011  1.00000  0.99998  1.0000
  Al  Al2       1.0  0.50010  0.50000  0.50001  1.0000
  Al  Al3       1.0  0.50009  0.99998  0.99999  1.0000
  Al  Al4       1.0  0.00007  0.49998  0.49999  1.0000
  H   H1        1.0  0.76227  0.12728  0.98562  1.0000
  H   H2        1.0  0.73785  0.37267  0.48569  1.0000
  H   H3        1.0  0.23789  0.87267  0.01432  1.0000
  H   H4        1.0  0.26224  0.62727  0.51438  1.0000
  H   H5        1.0  0.43377  0.66450  0.29628  1.0000
  H   H6        1.0  0.06646  0.83549  0.79629  1.0000
  H   H7        1.0  0.56645  0.33553  0.70371  1.0000
  H   H8        1.0  0.93378  0.16448  0.20371  1.0000
  H   H9        1.0  0.42667  0.78077  0.17481  1.0000
  H   H10       1.0  0.07356  0.71923  0.67482  1.0000
  H   H11       1.0  0.57356  0.21926  0.82517  1.0000
  H   H12       1.0  0.92667  0.28078  0.32517  1.0000
  H   H13       1.0  0.06757  0.71630  0.32172  1.0000
  H   H14       1.0  0.43258  0.78375  0.82165  1.0000
  H   H15       1.0  0.93259  0.28377  0.67833  1.0000
  H   H16       1.0  0.56761  0.21629  0.17828  1.0000
  H   H17       1.0  0.06062  0.83445  0.20185  1.0000
  H   H18       1.0  0.43959  0.66559  0.70179  1.0000
  H   H19       1.0  0.93963  0.16559  0.79818  1.0000
  H   H20       1.0  0.56063  0.33445  0.29815  1.0000
  H   H21       1.0  0.08062  0.03882  0.54536  1.0000
  H   H22       1.0  0.41906  0.46130  0.04523  1.0000
  H   H23       1.0  0.91897  0.96135  0.45477  1.0000
  H   H24       1.0  0.58096  0.53875  0.95461  1.0000
  H   H25       1.0  0.09500  0.94501  0.67800  1.0000
  H   H26       1.0  0.40459  0.55501  0.17793  1.0000
  H   H27       1.0  0.90433  0.05504  0.32206  1.0000
  H   H28       1.0  0.59530  0.44501  0.82194  1.0000
  H   H29       1.0  0.40883  0.94516  0.76231  1.0000
  H   H30       1.0  0.09061  0.55471  0.26218  1.0000
  H   H31       1.0  0.59035  0.05466  0.23784  1.0000
  H   H32       1.0  0.90925  0.44527  0.73766  1.0000
  H   H33       1.0  0.71612  0.03133  0.71184  1.0000
  H   H34       1.0  0.78334  0.46853  0.21164  1.0000
  H   H35       1.0  0.28314  0.96845  0.28839  1.0000
  H   H36       1.0  0.21653  0.53144  0.78820  1.0000
  C   C1        1.0  0.75267  0.61579  0.38680  1.0000
  C   C2        1.0  0.74748  0.88419  0.88679  1.0000
  C   C3        1.0  0.24746  0.38421  0.61319  1.0000
  C   C4        1.0  0.25268  0.11580  0.11319  1.0000
  C   C5        1.0  0.75086  0.68450  0.31526  1.0000
  C   C6        1.0  0.74931  0.81552  0.81523  1.0000
  C   C7        1.0  0.24931  0.31555  0.68475  1.0000
  C   C8        1.0  0.25088  0.18448  0.18474  1.0000
  C   C9        1.0  0.56942  0.70220  0.27447  1.0000
  C   C10       1.0  0.93078  0.79783  0.77447  1.0000
  C   C11       1.0  0.43078  0.29786  0.72553  1.0000
  C   C12       1.0  0.06941  0.20218  0.22552  1.0000
  C   C13       1.0  0.74168  0.88512  0.11296  1.0000
  C   C14       1.0  0.75857  0.61490  0.61297  1.0000
  C   C15       1.0  0.25859  0.11490  0.88702  1.0000
  C   C16       1.0  0.24167  0.38512  0.38701  1.0000
  C   C17       1.0  0.74314  0.81478  0.18305  1.0000
  C   C18       1.0  0.75709  0.68525  0.68303  1.0000
  C   C19       1.0  0.25711  0.18526  0.81695  1.0000
  C   C20       1.0  0.24316  0.31478  0.31693  1.0000
  C   C21       1.0  0.56542  0.76685  0.20817  1.0000
  C   C22       1.0  0.93480  0.73316  0.70817  1.0000
  C   C23       1.0  0.43481  0.23318  0.79183  1.0000
  C   C24       1.0  0.06543  0.26684  0.29182  1.0000
  C   C25       1.0  0.92875  0.73127  0.28902  1.0000
  C   C26       1.0  0.57145  0.76878  0.78895  1.0000
  C   C27       1.0  0.07145  0.26878  0.71103  1.0000
  C   C28       1.0  0.42877  0.23126  0.21098  1.0000
  C   C29       1.0  0.92488  0.79652  0.22325  1.0000
  C   C30       1.0  0.57533  0.70352  0.72321  1.0000
  C   C31       1.0  0.07535  0.20352  0.77677  1.0000
  C   C32       1.0  0.42490  0.29652  0.27674  1.0000
  C   C33       1.0  0.57059  0.08658  0.60087  1.0000
  C   C34       1.0  0.92905  0.41337  0.10067  1.0000
  C   C35       1.0  0.42896  0.91335  0.39936  1.0000
  C   C36       1.0  0.07093  0.58660  0.89918  1.0000
  C   C37       1.0  0.38967  0.08894  0.55420  1.0000
  C   C38       1.0  0.11000  0.41110  0.05404  1.0000
  C   C39       1.0  0.60989  0.91111  0.44597  1.0000
  C   C40       1.0  0.88998  0.58889  0.94582  1.0000
  C   C41       1.0  0.21961  0.03609  0.58090  1.0000
  C   C42       1.0  0.28000  0.46398  0.08074  1.0000
  C   C43       1.0  0.77988  0.96402  0.41926  1.0000
  C   C44       1.0  0.71994  0.53604  0.91908  1.0000
  C   C45       1.0  0.22843  0.98456  0.65605  1.0000
  C   C46       1.0  0.27117  0.51546  0.15593  1.0000
  C   C47       1.0  0.77097  0.01547  0.34408  1.0000
  C   C48       1.0  0.72872  0.48456  0.84391  1.0000
  C   C49       1.0  0.40486  0.98394  0.70308  1.0000
  C   C50       1.0  0.09465  0.51597  0.20293  1.0000
  C   C51       1.0  0.59445  0.01595  0.29709  1.0000
  C   C52       1.0  0.90523  0.48400  0.79692  1.0000
  C   C53       1.0  0.57868  0.03261  0.67504  1.0000
  C   C54       1.0  0.92086  0.46729  0.17486  1.0000
  C   C55       1.0  0.42069  0.96724  0.32516  1.0000
  C   C56       1.0  0.07905  0.53267  0.82498  1.0000
  S   S1        1.0  0.75941  0.15828  0.55593  1.0000
  S   S2        1.0  0.74028  0.34168  0.05566  1.0000
  S   S3        1.0  0.24019  0.84164  0.44439  1.0000
  S   S4        1.0  0.25975  0.65830  0.94418  1.0000
  S   S5        1.0  0.40765  0.16241  0.46650  1.0000
  S   S6        1.0  0.09211  0.33769  0.96631  1.0000
  S   S7        1.0  0.59210  0.83770  0.53372  1.0000
  S   S8        1.0  0.90790  0.66232  0.03356  1.0000
  N   N1        1.0  0.63993  0.20563  0.47617  1.0000
  N   N2        1.0  0.85989  0.29441  0.97590  1.0000
  N   N3        1.0  0.35989  0.79441  0.52414  1.0000
  N   N4        1.0  0.14017  0.70558  0.02394  1.0000
  O   O1        1.0  0.75324  0.05894  0.99918  1.0000
  O   O2        1.0  0.74692  0.44103  0.49918  1.0000
  O   O3        1.0  0.24693  0.94102  0.00079  1.0000
  O   O4        1.0  0.25322  0.55894  0.50079  1.0000
  O   O5        1.0  0.91189  0.91137  0.08372  1.0000
  O   O6        1.0  0.58832  0.58863  0.58374  1.0000
  O   O7        1.0  0.08836  0.08863  0.91625  1.0000
  O   O8        1.0  0.41189  0.41139  0.41625  1.0000
  O   O9        1.0  0.92253  0.59265  0.41587  1.0000
  O   O10       1.0  0.57760  0.90732  0.91588  1.0000
  O   O11       1.0  0.07758  0.40733  0.58411  1.0000
  O   O12       1.0  0.42256  0.09265  0.08411  1.0000
  O   O13       1.0  0.57228  0.91311  0.08743  1.0000
  O   O14       1.0  0.92792  0.58688  0.58742  1.0000
  O   O15       1.0  0.42794  0.08687  0.91256  1.0000
  O   O16       1.0  0.07228  0.41310  0.41256  1.0000
  O   O17       1.0  0.58186  0.58642  0.41319  1.0000
  O   O18       1.0  0.91827  0.91359  0.91317  1.0000
  O   O19       1.0  0.41826  0.41359  0.58680  1.0000
  O   O20       1.0  0.08188  0.08640  0.08681  1.0000
