data_image0
_chemical_formula_structural       H22Pb2C26N14O2
_chemical_formula_sum              "H22 Pb2 C26 N14 O2"
_cell_length_a       7.35493
_cell_length_b       9.71143
_cell_length_c       10.3162
_cell_angle_alpha    88.5255
_cell_angle_beta     78.3502
_cell_angle_gamma    73.9076

_space_group_name_H-M_alt    "P 1"
_space_group_IT_number       1

loop_
  _space_group_symop_operation_xyz
  'x, y, z'

loop_
  _atom_site_type_symbol
  _atom_site_label
  _atom_site_symmetry_multiplicity
  _atom_site_fract_x
  _atom_site_fract_y
  _atom_site_fract_z
  _atom_site_occupancy
  H   H1        1.0  0.63438  0.94037  0.44898  1.0000
  H   H2        1.0  0.36561  0.05961  0.55099  1.0000
  H   H3        1.0  0.81782  0.05419  0.04766  1.0000
  H   H4        1.0  0.18226  0.94583  0.95233  1.0000
  H   H5        1.0  0.00621  0.79491  0.99932  1.0000
  H   H6        1.0  0.99385  0.20510  0.00065  1.0000
  H   H7        1.0  0.99648  0.62213  0.18379  1.0000
  H   H8        1.0  0.00352  0.37786  0.81616  1.0000
  H   H9        1.0  0.69354  0.41008  0.99818  1.0000
  H   H10       1.0  0.30642  0.58992  0.00182  1.0000
  H   H11       1.0  0.85738  0.43837  0.08937  1.0000
  H   H12       1.0  0.14260  0.56165  0.91061  1.0000
  H   H13       1.0  0.72163  0.58593  0.01054  1.0000
  H   H14       1.0  0.27831  0.41409  0.98945  1.0000
  H   H15       1.0  0.10506  0.79609  0.49617  1.0000
  H   H16       1.0  0.89488  0.20387  0.50383  1.0000
  H   H17       1.0  0.10465  0.02466  0.37333  1.0000
  H   H18       1.0  0.89524  0.97531  0.62667  1.0000
  H   H19       1.0  0.32919  0.00914  0.15472  1.0000
  H   H20       1.0  0.67075  0.99086  0.84531  1.0000
  H   H21       1.0  0.54518  0.77055  0.06494  1.0000
  H   H22       1.0  0.45481  0.22946  0.93508  1.0000
  Pb  Pb1       1.0  0.30191  0.42219  0.49046  1.0000
  Pb  Pb2       1.0  0.69825  0.57783  0.50954  1.0000
  C   C1        1.0  0.71639  0.91284  0.34839  1.0000
  C   C2        1.0  0.28362  0.08714  0.65158  1.0000
  C   C3        1.0  0.71553  0.01823  0.25291  1.0000
  C   C4        1.0  0.28450  0.98176  0.74707  1.0000
  C   C5        1.0  0.82050  0.97546  0.12477  1.0000
  C   C6        1.0  0.17955  0.02454  0.87521  1.0000
  C   C7        1.0  0.92424  0.83207  0.09831  1.0000
  C   C8        1.0  0.07579  0.16793  0.90166  1.0000
  C   C9        1.0  0.91723  0.73534  0.20029  1.0000
  C   C10       1.0  0.08277  0.26464  0.79967  1.0000
  C   C11       1.0  0.59970  0.16808  0.29225  1.0000
  C   C12       1.0  0.40036  0.83192  0.70774  1.0000
  C   C13       1.0  0.56287  0.51198  0.18780  1.0000
  C   C14       1.0  0.43712  0.48803  0.81220  1.0000
  C   C15       1.0  0.71567  0.48830  0.06418  1.0000
  C   C16       1.0  0.28430  0.51171  0.93581  1.0000
  C   C17       1.0  0.43950  0.65622  0.23469  1.0000
  C   C18       1.0  0.56049  0.34378  0.76533  1.0000
  C   C19       1.0  0.20174  0.79604  0.40063  1.0000
  C   C20       1.0  0.79820  0.20394  0.59938  1.0000
  C   C21       1.0  0.20111  0.92202  0.33243  1.0000
  C   C22       1.0  0.79882  0.07796  0.66758  1.0000
  C   C23       1.0  0.32620  0.91230  0.20995  1.0000
  C   C24       1.0  0.67375  0.08770  0.79006  1.0000
  C   C25       1.0  0.44641  0.77876  0.16023  1.0000
  C   C26       1.0  0.55357  0.22124  0.83979  1.0000
  N   N1        1.0  0.81366  0.77441  0.32327  1.0000
  N   N2        1.0  0.18633  0.22558  0.67668  1.0000
  N   N3        1.0  0.64593  0.27095  0.21401  1.0000
  N   N4        1.0  0.35408  0.72904  0.78597  1.0000
  N   N5        1.0  0.53317  0.40360  0.25923  1.0000
  N   N6        1.0  0.46685  0.59639  0.74077  1.0000
  N   N7        1.0  0.31646  0.66747  0.35401  1.0000
  N   N8        1.0  0.68352  0.33251  0.64600  1.0000
  N   N9        1.0  0.06326  0.40104  0.37320  1.0000
  N   N10       1.0  0.93682  0.59900  0.62687  1.0000
  N   N11       1.0  0.12245  0.33235  0.26971  1.0000
  N   N12       1.0  0.87755  0.66769  0.73036  1.0000
  N   N13       1.0  0.17580  0.26670  0.16955  1.0000
  N   N14       1.0  0.82411  0.73334  0.83052  1.0000
  O   O1        1.0  0.46841  0.18548  0.39810  1.0000
  O   O2        1.0  0.53171  0.81452  0.60193  1.0000
