data_image0
_chemical_formula_structural       Zn4H48C56N8O20
_chemical_formula_sum              "Zn4 H48 C56 N8 O20"
_cell_length_a       5.34134
_cell_length_b       14.7179
_cell_length_c       16.449
_cell_angle_alpha    90
_cell_angle_beta     93.4502
_cell_angle_gamma    90

_space_group_name_H-M_alt    "P 1"
_space_group_IT_number       1

loop_
  _space_group_symop_operation_xyz
  'x, y, z'

loop_
  _atom_site_type_symbol
  _atom_site_label
  _atom_site_symmetry_multiplicity
  _atom_site_fract_x
  _atom_site_fract_y
  _atom_site_fract_z
  _atom_site_occupancy
  Zn  Zn1       1.0  0.69387  0.43729  0.77111  1.0000
  Zn  Zn2       1.0  0.30611  0.93729  0.72888  1.0000
  Zn  Zn3       1.0  0.30611  0.56271  0.22889  1.0000
  Zn  Zn4       1.0  0.69389  0.06271  0.27111  1.0000
  H   H1        1.0  0.78912  0.71174  0.78642  1.0000
  H   H2        1.0  0.21089  0.21175  0.71358  1.0000
  H   H3        1.0  0.21090  0.28825  0.21358  1.0000
  H   H4        1.0  0.78910  0.78825  0.28642  1.0000
  H   H5        1.0  0.26769  0.72324  0.00462  1.0000
  H   H6        1.0  0.73230  0.22324  0.49538  1.0000
  H   H7        1.0  0.73232  0.27676  0.99538  1.0000
  H   H8        1.0  0.26770  0.77676  0.50462  1.0000
  H   H9        1.0  0.01598  0.59624  0.51547  1.0000
  H   H10       1.0  0.98402  0.09624  0.98453  1.0000
  H   H11       1.0  0.98401  0.40376  0.48453  1.0000
  H   H12       1.0  0.01599  0.90376  0.01547  1.0000
  H   H13       1.0  0.64790  0.53690  0.98984  1.0000
  H   H14       1.0  0.35209  0.03690  0.51015  1.0000
  H   H15       1.0  0.35211  0.46310  0.01015  1.0000
  H   H16       1.0  0.64790  0.96309  0.48984  1.0000
  H   H17       1.0  0.40716  0.72763  0.63099  1.0000
  H   H18       1.0  0.59284  0.22763  0.86901  1.0000
  H   H19       1.0  0.59283  0.27237  0.36901  1.0000
  H   H20       1.0  0.40716  0.77237  0.13099  1.0000
  H   H21       1.0  0.22770  0.57335  0.74380  1.0000
  H   H22       1.0  0.77230  0.07336  0.75620  1.0000
  H   H23       1.0  0.77230  0.42665  0.25620  1.0000
  H   H24       1.0  0.22769  0.92665  0.24380  1.0000
  H   H25       1.0  0.34799  0.68194  0.77018  1.0000
  H   H26       1.0  0.65199  0.18194  0.72982  1.0000
  H   H27       1.0  0.65201  0.31807  0.22982  1.0000
  H   H28       1.0  0.34800  0.81806  0.27018  1.0000
  H   H29       1.0  0.03471  0.48325  0.62974  1.0000
  H   H30       1.0  0.96528  0.98326  0.87026  1.0000
  H   H31       1.0  0.96528  0.51675  0.37025  1.0000
  H   H32       1.0  0.03472  0.01674  0.12975  1.0000
  H   H33       1.0  0.68238  0.71732  0.51359  1.0000
  H   H34       1.0  0.31763  0.21732  0.98641  1.0000
  H   H35       1.0  0.31762  0.28268  0.48641  1.0000
  H   H36       1.0  0.68238  0.78268  0.01359  1.0000
  H   H37       1.0  0.38460  0.53288  0.86506  1.0000
  H   H38       1.0  0.61540  0.03287  0.63494  1.0000
  H   H39       1.0  0.61540  0.46712  0.13494  1.0000
  H   H40       1.0  0.38459  0.96712  0.36506  1.0000
  H   H41       1.0  0.20849  0.37280  0.72448  1.0000
  H   H42       1.0  0.79150  0.87280  0.77552  1.0000
  H   H43       1.0  0.79151  0.62720  0.27552  1.0000
  H   H44       1.0  0.20850  0.12720  0.22448  1.0000
  H   H45       1.0  0.43241  0.37351  0.66051  1.0000
  H   H46       1.0  0.56758  0.87352  0.83949  1.0000
  H   H47       1.0  0.56758  0.62648  0.33949  1.0000
  H   H48       1.0  0.43242  0.12648  0.16051  1.0000
  C   C1        1.0  0.03217  0.59519  0.09110  1.0000
  C   C2        1.0  0.96784  0.09519  0.40890  1.0000
  C   C3        1.0  0.96786  0.40481  0.90890  1.0000
  C   C4        1.0  0.03214  0.90481  0.59110  1.0000
  C   C5        1.0  0.18466  0.80202  0.85820  1.0000
  C   C6        1.0  0.81534  0.30202  0.64180  1.0000
  C   C7        1.0  0.81534  0.19798  0.14180  1.0000
  C   C8        1.0  0.18466  0.69798  0.35820  1.0000
  C   C9        1.0  0.96145  0.62747  0.00633  1.0000
  C   C10       1.0  0.03855  0.12747  0.49367  1.0000
  C   C11       1.0  0.03857  0.37253  0.99367  1.0000
  C   C12       1.0  0.96143  0.87253  0.50633  1.0000
  C   C13       1.0  0.83309  0.68733  0.84804  1.0000
  C   C14       1.0  0.16691  0.18733  0.65196  1.0000
  C   C15       1.0  0.16691  0.31266  0.15196  1.0000
  C   C16       1.0  0.83308  0.81266  0.34804  1.0000
  C   C17       1.0  0.69694  0.61599  0.88083  1.0000
  C   C18       1.0  0.30307  0.11599  0.61916  1.0000
  C   C19       1.0  0.30307  0.38401  0.11916  1.0000
  C   C20       1.0  0.69693  0.88400  0.38084  1.0000
  C   C21       1.0  0.10487  0.69481  0.97119  1.0000
  C   C22       1.0  0.89513  0.19481  0.52881  1.0000
  C   C23       1.0  0.89515  0.30518  0.02881  1.0000
  C   C24       1.0  0.10486  0.80518  0.47119  1.0000
  C   C25       1.0  0.03498  0.72695  0.89326  1.0000
  C   C26       1.0  0.96503  0.22695  0.60674  1.0000
  C   C27       1.0  0.96503  0.27305  0.10674  1.0000
  C   C28       1.0  0.03498  0.77305  0.39326  1.0000
  C   C29       1.0  0.88320  0.60024  0.56306  1.0000
  C   C30       1.0  0.11680  0.10024  0.93694  1.0000
  C   C31       1.0  0.11679  0.39976  0.43694  1.0000
  C   C32       1.0  0.88320  0.89977  0.06306  1.0000
  C   C33       1.0  0.75629  0.58967  0.96182  1.0000
  C   C34       1.0  0.24372  0.08968  0.53818  1.0000
  C   C35       1.0  0.24373  0.41032  0.03817  1.0000
  C   C36       1.0  0.75627  0.91032  0.46182  1.0000
  C   C37       1.0  0.54439  0.67299  0.62745  1.0000
  C   C38       1.0  0.45560  0.17299  0.87255  1.0000
  C   C39       1.0  0.45561  0.32701  0.37255  1.0000
  C   C40       1.0  0.54439  0.82701  0.12745  1.0000
  C   C41       1.0  0.56853  0.60806  0.68923  1.0000
  C   C42       1.0  0.43147  0.10806  0.81077  1.0000
  C   C43       1.0  0.43147  0.39195  0.31077  1.0000
  C   C44       1.0  0.56852  0.89195  0.18923  1.0000
  C   C45       1.0  0.40131  0.61079  0.76013  1.0000
  C   C46       1.0  0.59869  0.11079  0.73987  1.0000
  C   C47       1.0  0.59869  0.38921  0.23987  1.0000
  C   C48       1.0  0.40130  0.88921  0.26013  1.0000
  C   C49       1.0  0.89541  0.53748  0.62619  1.0000
  C   C50       1.0  0.10458  0.03748  0.87381  1.0000
  C   C51       1.0  0.10458  0.46252  0.37381  1.0000
  C   C52       1.0  0.89541  0.96252  0.12619  1.0000
  C   C53       1.0  0.70134  0.66837  0.56303  1.0000
  C   C54       1.0  0.29867  0.16837  0.93697  1.0000
  C   C55       1.0  0.29866  0.33163  0.43697  1.0000
  C   C56       1.0  0.70133  0.83163  0.06303  1.0000
  N   N1        1.0  0.51401  0.56793  0.83324  1.0000
  N   N2        1.0  0.48599  0.06793  0.66676  1.0000
  N   N3        1.0  0.48600  0.43207  0.16676  1.0000
  N   N4        1.0  0.51400  0.93206  0.33324  1.0000
  N   N5        1.0  0.74033  0.54109  0.68786  1.0000
  N   N6        1.0  0.25966  0.04109  0.81214  1.0000
  N   N7        1.0  0.25967  0.45891  0.31214  1.0000
  N   N8        1.0  0.74033  0.95891  0.18786  1.0000
  O   O1        1.0  0.25323  0.61940  0.12033  1.0000
  O   O2        1.0  0.74677  0.11939  0.37967  1.0000
  O   O3        1.0  0.74679  0.38061  0.87967  1.0000
  O   O4        1.0  0.25321  0.88061  0.62033  1.0000
  O   O5        1.0  0.88707  0.54693  0.13033  1.0000
  O   O6        1.0  0.11294  0.04693  0.36967  1.0000
  O   O7        1.0  0.11296  0.45307  0.86967  1.0000
  O   O8        1.0  0.88705  0.95307  0.63033  1.0000
  O   O9        1.0  0.10597  0.83470  0.78807  1.0000
  O   O10       1.0  0.89404  0.33470  0.71193  1.0000
  O   O11       1.0  0.89403  0.16530  0.21193  1.0000
  O   O12       1.0  0.10597  0.66530  0.28807  1.0000
  O   O13       1.0  0.38104  0.82834  0.89795  1.0000
  O   O14       1.0  0.61895  0.32833  0.60205  1.0000
  O   O15       1.0  0.61895  0.17167  0.10205  1.0000
  O   O16       1.0  0.38105  0.67167  0.39795  1.0000
  O   O17       1.0  0.35854  0.40617  0.70810  1.0000
  O   O18       1.0  0.64145  0.90618  0.79190  1.0000
  O   O19       1.0  0.64145  0.59383  0.29190  1.0000
  O   O20       1.0  0.35855  0.09383  0.20810  1.0000
