data_image0
_chemical_formula_structural       Lu2H52C42N10O24
_chemical_formula_sum              "Lu2 H52 C42 N10 O24"
_cell_length_a       9.51505
_cell_length_b       10.1314
_cell_length_c       14.849
_cell_angle_alpha    73.3196
_cell_angle_beta     78.0199
_cell_angle_gamma    75.3714

_space_group_name_H-M_alt    "P 1"
_space_group_IT_number       1

loop_
  _space_group_symop_operation_xyz
  'x, y, z'

loop_
  _atom_site_type_symbol
  _atom_site_label
  _atom_site_symmetry_multiplicity
  _atom_site_fract_x
  _atom_site_fract_y
  _atom_site_fract_z
  _atom_site_occupancy
  Lu  Lu1       1.0  0.21179  0.39605  0.28231  1.0000
  Lu  Lu2       1.0  0.78821  0.60395  0.71769  1.0000
  H   H1        1.0  0.10757  0.31650  0.48811  1.0000
  H   H2        1.0  0.89243  0.68350  0.51189  1.0000
  H   H3        1.0  0.49726  0.53315  0.26833  1.0000
  H   H4        1.0  0.50274  0.46686  0.73167  1.0000
  H   H5        1.0  0.92074  0.44736  0.18094  1.0000
  H   H6        1.0  0.07926  0.55264  0.81906  1.0000
  H   H7        1.0  0.34574  0.17335  0.48975  1.0000
  H   H8        1.0  0.65426  0.82665  0.51025  1.0000
  H   H9        1.0  0.48215  0.07363  0.62680  1.0000
  H   H10       1.0  0.51785  0.92637  0.37320  1.0000
  H   H11       1.0  0.68877  0.17515  0.63924  1.0000
  H   H12       1.0  0.31123  0.82485  0.36076  1.0000
  H   H13       1.0  0.76270  0.37360  0.50996  1.0000
  H   H14       1.0  0.23731  0.62640  0.49003  1.0000
  H   H15       1.0  0.74531  0.52721  0.36065  1.0000
  H   H16       1.0  0.25469  0.47279  0.63935  1.0000
  H   H17       1.0  0.75346  0.67615  0.22376  1.0000
  H   H18       1.0  0.24654  0.32385  0.77624  1.0000
  H   H19       1.0  0.46801  0.77409  0.13587  1.0000
  H   H20       1.0  0.53199  0.22591  0.86413  1.0000
  H   H21       1.0  0.51395  0.84412  0.22010  1.0000
  H   H22       1.0  0.48605  0.15588  0.77991  1.0000
  H   H23       1.0  0.56795  0.99211  0.05550  1.0000
  H   H24       1.0  0.43205  0.00789  0.94450  1.0000
  H   H25       1.0  0.72811  0.91680  0.10810  1.0000
  H   H26       1.0  0.27189  0.08320  0.89190  1.0000
  H   H27       1.0  0.77464  0.89198  0.94238  1.0000
  H   H28       1.0  0.22536  0.10802  0.05762  1.0000
  H   H29       1.0  0.62726  0.80433  0.96598  1.0000
  H   H30       1.0  0.37273  0.19567  0.03403  1.0000
  H   H31       1.0  0.86030  0.62815  0.97508  1.0000
  H   H32       1.0  0.13969  0.37185  0.02492  1.0000
  H   H33       1.0  0.90956  0.69801  0.05797  1.0000
  H   H34       1.0  0.09045  0.30199  0.94202  1.0000
  H   H35       1.0  0.64711  0.55784  0.08756  1.0000
  H   H36       1.0  0.35289  0.44216  0.91244  1.0000
  H   H37       1.0  0.73733  0.33014  0.09900  1.0000
  H   H38       1.0  0.26267  0.66986  0.90100  1.0000
  H   H39       1.0  0.81225  0.09621  0.10337  1.0000
  H   H40       1.0  0.18775  0.90379  0.89663  1.0000
  H   H41       1.0  0.97280  0.85883  0.15243  1.0000
  H   H42       1.0  0.02720  0.14117  0.84757  1.0000
  H   H43       1.0  0.17410  0.83197  0.24442  1.0000
  H   H44       1.0  0.82590  0.16803  0.75558  1.0000
  H   H45       1.0  0.21809  0.03818  0.28457  1.0000
  H   H46       1.0  0.78191  0.96182  0.71543  1.0000
  H   H47       1.0  0.99985  0.14187  0.41138  1.0000
  H   H48       1.0  0.00015  0.85813  0.58862  1.0000
  H   H49       1.0  0.99121  0.14358  0.53265  1.0000
  H   H50       1.0  0.00879  0.85642  0.46735  1.0000
  H   H51       1.0  0.16041  0.06822  0.46878  1.0000
  H   H52       1.0  0.83959  0.93178  0.53122  1.0000
  C   C1        1.0  0.46929  0.33635  0.42181  1.0000
  C   C2        1.0  0.53072  0.66365  0.57819  1.0000
  C   C3        1.0  0.43485  0.21882  0.49488  1.0000
  C   C4        1.0  0.56515  0.78118  0.50512  1.0000
  C   C5        1.0  0.51243  0.16296  0.57110  1.0000
  C   C6        1.0  0.48757  0.83704  0.42890  1.0000
  C   C7        1.0  0.63037  0.21896  0.57809  1.0000
  C   C8        1.0  0.36963  0.78104  0.42191  1.0000
  C   C9        1.0  0.67107  0.32950  0.50650  1.0000
  C   C10       1.0  0.32894  0.67050  0.49349  1.0000
  C   C11       1.0  0.59387  0.38882  0.42734  1.0000
  C   C12       1.0  0.40613  0.61118  0.57266  1.0000
  C   C13       1.0  0.64738  0.49561  0.35362  1.0000
  C   C14       1.0  0.35262  0.50439  0.64638  1.0000
  C   C15       1.0  0.66439  0.65556  0.19620  1.0000
  C   C16       1.0  0.33562  0.34444  0.80380  1.0000
  C   C17       1.0  0.55983  0.79475  0.16056  1.0000
  C   C18       1.0  0.44017  0.20525  0.83944  1.0000
  C   C19       1.0  0.64240  0.89150  0.08012  1.0000
  C   C20       1.0  0.35760  0.10850  0.91988  1.0000
  C   C21       1.0  0.71297  0.82228  0.99834  1.0000
  C   C22       1.0  0.28703  0.17772  0.00166  1.0000
  C   C23       1.0  0.81569  0.68152  0.03274  1.0000
  C   C24       1.0  0.18430  0.31848  0.96726  1.0000
  C   C25       1.0  0.73444  0.58351  0.11400  1.0000
  C   C26       1.0  0.26556  0.41649  0.88600  1.0000
  C   C27       1.0  0.82591  0.32957  0.13585  1.0000
  C   C28       1.0  0.17409  0.67043  0.86415  1.0000
  C   C29       1.0  0.92371  0.19991  0.16618  1.0000
  C   C30       1.0  0.07629  0.80009  0.83382  1.0000
  C   C31       1.0  0.90163  0.08064  0.14327  1.0000
  C   C32       1.0  0.09837  0.91937  0.85673  1.0000
  C   C33       1.0  0.99003  0.94973  0.17073  1.0000
  C   C34       1.0  0.00997  0.05027  0.82927  1.0000
  C   C35       1.0  0.10310  0.93523  0.22313  1.0000
  C   C36       1.0  0.89690  0.06477  0.77687  1.0000
  C   C37       1.0  0.12844  0.04969  0.24604  1.0000
  C   C38       1.0  0.87156  0.95031  0.75396  1.0000
  C   C39       1.0  0.04181  0.18662  0.21744  1.0000
  C   C40       1.0  0.95819  0.81338  0.78255  1.0000
  C   C41       1.0  0.06078  0.15208  0.46311  1.0000
  C   C42       1.0  0.93922  0.84792  0.53689  1.0000
  N   N1        1.0  0.59192  0.56000  0.27460  1.0000
  N   N2        1.0  0.40808  0.44001  0.72540  1.0000
  N   N3        1.0  0.83410  0.45056  0.14782  1.0000
  N   N4        1.0  0.16590  0.54944  0.85219  1.0000
  N   N5        1.0  0.99014  0.60308  0.35955  1.0000
  N   N6        1.0  0.00986  0.39692  0.64044  1.0000
  N   N7        1.0  0.25304  0.62092  0.11794  1.0000
  N   N8        1.0  0.74696  0.37908  0.88206  1.0000
  N   N9        1.0  0.44805  0.19207  0.22998  1.0000
  N   N10       1.0  0.55195  0.80793  0.77002  1.0000
  O   O1        1.0  0.39383  0.39741  0.35154  1.0000
  O   O2        1.0  0.60617  0.60259  0.64846  1.0000
  O   O3        1.0  0.06607  0.29729  0.23600  1.0000
  O   O4        1.0  0.93393  0.70271  0.76400  1.0000
  O   O5        1.0  0.11194  0.56220  0.39119  1.0000
  O   O6        1.0  0.88806  0.43780  0.60881  1.0000
  O   O7        1.0  0.88077  0.67747  0.39688  1.0000
  O   O8        1.0  0.11923  0.32253  0.60311  1.0000
  O   O9        1.0  0.98213  0.56272  0.28663  1.0000
  O   O10       1.0  0.01788  0.43728  0.71336  1.0000
  O   O11       1.0  0.17996  0.53225  0.11565  1.0000
  O   O12       1.0  0.82004  0.46775  0.88434  1.0000
  O   O13       1.0  0.28561  0.71486  0.04829  1.0000
  O   O14       1.0  0.71439  0.28514  0.95171  1.0000
  O   O15       1.0  0.29196  0.60566  0.19970  1.0000
  O   O16       1.0  0.70803  0.39434  0.80030  1.0000
  O   O17       1.0  0.41623  0.31718  0.17595  1.0000
  O   O18       1.0  0.58377  0.68282  0.82405  1.0000
  O   O19       1.0  0.55890  0.10574  0.21043  1.0000
  O   O20       1.0  0.44111  0.89425  0.78958  1.0000
  O   O21       1.0  0.35561  0.16385  0.30595  1.0000
  O   O22       1.0  0.64438  0.83615  0.69405  1.0000
  O   O23       1.0  0.09826  0.28910  0.43079  1.0000
  O   O24       1.0  0.90174  0.71090  0.56921  1.0000
