data_image0
_chemical_formula_structural       Eu2H52C42N10O24
_chemical_formula_sum              "Eu2 H52 C42 N10 O24"
_cell_length_a       9.68766
_cell_length_b       10.1564
_cell_length_c       14.8251
_cell_angle_alpha    73.1596
_cell_angle_beta     77.4336
_cell_angle_gamma    74.8015

_space_group_name_H-M_alt    "P 1"
_space_group_IT_number       1

loop_
  _space_group_symop_operation_xyz
  'x, y, z'

loop_
  _atom_site_type_symbol
  _atom_site_label
  _atom_site_symmetry_multiplicity
  _atom_site_fract_x
  _atom_site_fract_y
  _atom_site_fract_z
  _atom_site_occupancy
  Eu  Eu1       1.0  0.78684  0.10168  0.22076  1.0000
  Eu  Eu2       1.0  0.21316  0.89832  0.77924  1.0000
  H   H1        1.0  0.78947  0.46140  0.21713  1.0000
  H   H2        1.0  0.21053  0.53860  0.78287  1.0000
  H   H3        1.0  0.82910  0.66872  0.25662  1.0000
  H   H4        1.0  0.17090  0.33128  0.74338  1.0000
  H   H5        1.0  0.02524  0.64343  0.34884  1.0000
  H   H6        1.0  0.97476  0.35657  0.65116  1.0000
  H   H7        1.0  0.18631  0.40682  0.39789  1.0000
  H   H8        1.0  0.81369  0.59318  0.60211  1.0000
  H   H9        1.0  0.26465  0.17140  0.40124  1.0000
  H   H10       1.0  0.73535  0.82860  0.59876  1.0000
  H   H11       1.0  0.35313  0.94145  0.41260  1.0000
  H   H12       1.0  0.64687  0.05855  0.58740  1.0000
  H   H13       1.0  0.14018  0.87445  0.52563  1.0000
  H   H14       1.0  0.85982  0.12555  0.47437  1.0000
  H   H15       1.0  0.09323  0.80557  0.44213  1.0000
  H   H16       1.0  0.90677  0.19443  0.55787  1.0000
  H   H17       1.0  0.22395  0.61016  0.55861  1.0000
  H   H18       1.0  0.77605  0.38984  0.44139  1.0000
  H   H19       1.0  0.36955  0.69596  0.53517  1.0000
  H   H20       1.0  0.63045  0.30404  0.46483  1.0000
  H   H21       1.0  0.27257  0.58388  0.39288  1.0000
  H   H22       1.0  0.72743  0.41612  0.60712  1.0000
  H   H23       1.0  0.42964  0.50819  0.44578  1.0000
  H   H24       1.0  0.57036  0.49181  0.55422  1.0000
  H   H25       1.0  0.52854  0.72510  0.36391  1.0000
  H   H26       1.0  0.47146  0.27490  0.63609  1.0000
  H   H27       1.0  0.48379  0.65517  0.27996  1.0000
  H   H28       1.0  0.51621  0.34483  0.72003  1.0000
  H   H29       1.0  0.24691  0.82424  0.27761  1.0000
  H   H30       1.0  0.75309  0.17576  0.72239  1.0000
  H   H31       1.0  0.25396  0.97219  0.13942  1.0000
  H   H32       1.0  0.74604  0.02781  0.86058  1.0000
  H   H33       1.0  0.23667  0.12763  0.98930  1.0000
  H   H34       1.0  0.76333  0.87237  0.01070  1.0000
  H   H35       1.0  0.30962  0.32649  0.86004  1.0000
  H   H36       1.0  0.69038  0.67351  0.13996  1.0000
  H   H37       1.0  0.51256  0.42600  0.87247  1.0000
  H   H38       1.0  0.48744  0.57400  0.12754  1.0000
  H   H39       1.0  0.64667  0.32431  0.00945  1.0000
  H   H40       1.0  0.35333  0.67569  0.99055  1.0000
  H   H41       1.0  0.83995  0.43532  0.04116  1.0000
  H   H42       1.0  0.16005  0.56467  0.95884  1.0000
  H   H43       1.0  0.99132  0.37008  0.95996  1.0000
  H   H44       1.0  0.00868  0.62992  0.04004  1.0000
  H   H45       1.0  0.01290  0.35589  0.07956  1.0000
  H   H46       1.0  0.98710  0.64410  0.92044  1.0000
  H   H47       1.0  0.08381  0.05718  0.31944  1.0000
  H   H48       1.0  0.91619  0.94282  0.68056  1.0000
  H   H49       1.0  0.49854  0.96736  0.22928  1.0000
  H   H50       1.0  0.50146  0.03264  0.77072  1.0000
  H   H51       1.0  0.89429  0.18967  0.00751  1.0000
  H   H52       1.0  0.10571  0.81033  0.99249  1.0000
  C   C1        1.0  0.96396  0.31424  0.28433  1.0000
  C   C2        1.0  0.03604  0.68576  0.71567  1.0000
  C   C3        1.0  0.87756  0.45083  0.25519  1.0000
  C   C4        1.0  0.12244  0.54917  0.74481  1.0000
  C   C5        1.0  0.90027  0.56584  0.27793  1.0000
  C   C6        1.0  0.09973  0.43416  0.72207  1.0000
  C   C7        1.0  0.01048  0.55211  0.33049  1.0000
  C   C8        1.0  0.98952  0.44788  0.66951  1.0000
  C   C9        1.0  0.09914  0.42160  0.35795  1.0000
  C   C10       1.0  0.90086  0.57840  0.64205  1.0000
  C   C11       1.0  0.07978  0.30189  0.33509  1.0000
  C   C12       1.0  0.92022  0.69811  0.66491  1.0000
  C   C13       1.0  0.17734  0.17230  0.36491  1.0000
  C   C14       1.0  0.82266  0.82770  0.63509  1.0000
  C   C15       1.0  0.26667  0.91764  0.38630  1.0000
  C   C16       1.0  0.73333  0.08235  0.61370  1.0000
  C   C17       1.0  0.18520  0.82080  0.46781  1.0000
  C   C18       1.0  0.81479  0.17920  0.53219  1.0000
  C   C19       1.0  0.28562  0.67907  0.50256  1.0000
  C   C20       1.0  0.71438  0.32093  0.49744  1.0000
  C   C21       1.0  0.35638  0.60906  0.42072  1.0000
  C   C22       1.0  0.64362  0.39094  0.57928  1.0000
  C   C23       1.0  0.43824  0.70493  0.33967  1.0000
  C   C24       1.0  0.56176  0.29507  0.66033  1.0000
  C   C25       1.0  0.33515  0.84454  0.30400  1.0000
  C   C26       1.0  0.66485  0.15546  0.69600  1.0000
  C   C27       1.0  0.35031  0.00355  0.14574  1.0000
  C   C28       1.0  0.64969  0.99645  0.85426  1.0000
  C   C29       1.0  0.40275  0.11042  0.07184  1.0000
  C   C30       1.0  0.59725  0.88958  0.92816  1.0000
  C   C31       1.0  0.32684  0.17081  0.99273  1.0000
  C   C32       1.0  0.67316  0.82919  0.00727  1.0000
  C   C33       1.0  0.36684  0.28159  0.92120  1.0000
  C   C34       1.0  0.63316  0.71841  0.07880  1.0000
  C   C35       1.0  0.48273  0.33661  0.92813  1.0000
  C   C36       1.0  0.51727  0.66339  0.07187  1.0000
  C   C37       1.0  0.55886  0.27978  0.00433  1.0000
  C   C38       1.0  0.44114  0.72022  0.99567  1.0000
  C   C39       1.0  0.52500  0.16221  0.07750  1.0000
  C   C40       1.0  0.47500  0.83779  0.92250  1.0000
  C   C41       1.0  0.93842  0.35265  0.03463  1.0000
  C   C42       1.0  0.06158  0.64735  0.96537  1.0000
  N   N1        1.0  0.16953  0.05180  0.35258  1.0000
  N   N2        1.0  0.83047  0.94820  0.64742  1.0000
  N   N3        1.0  0.40589  0.93908  0.22439  1.0000
  N   N4        1.0  0.59411  0.06092  0.77561  1.0000
  N   N5        1.0  0.01554  0.88865  0.14286  1.0000
  N   N6        1.0  0.98446  0.11135  0.85714  1.0000
  N   N7        1.0  0.73916  0.87013  0.38897  1.0000
  N   N8        1.0  0.26084  0.12987  0.61103  1.0000
  N   N9        1.0  0.54286  0.31319  0.27264  1.0000
  N   N10       1.0  0.45714  0.68681  0.72736  1.0000
  O   O1        1.0  0.94048  0.20289  0.26700  1.0000
  O   O2        1.0  0.05952  0.79711  0.73301  1.0000
  O   O3        1.0  0.59933  0.10126  0.14781  1.0000
  O   O4        1.0  0.40067  0.89874  0.85219  1.0000
  O   O5        1.0  0.02300  0.92446  0.21752  1.0000
  O   O6        1.0  0.97700  0.07554  0.78248  1.0000
  O   O7        1.0  0.12398  0.81586  0.10365  1.0000
  O   O8        1.0  0.87602  0.18414  0.89635  1.0000
  O   O9        1.0  0.89581  0.93127  0.11082  1.0000
  O   O10       1.0  0.10419  0.06873  0.88918  1.0000
  O   O11       1.0  0.70092  0.88549  0.30740  1.0000
  O   O12       1.0  0.29908  0.11451  0.69260  1.0000
  O   O13       1.0  0.70738  0.77619  0.45887  1.0000
  O   O14       1.0  0.29261  0.22381  0.54113  1.0000
  O   O15       1.0  0.81105  0.95812  0.39176  1.0000
  O   O16       1.0  0.18895  0.04188  0.60824  1.0000
  O   O17       1.0  0.57107  0.18860  0.32803  1.0000
  O   O18       1.0  0.42893  0.81140  0.67197  1.0000
  O   O19       1.0  0.43103  0.39974  0.28872  1.0000
  O   O20       1.0  0.56897  0.60026  0.71128  1.0000
  O   O21       1.0  0.63914  0.34180  0.19885  1.0000
  O   O22       1.0  0.36086  0.65820  0.80115  1.0000
  O   O23       1.0  0.90350  0.21531  0.06557  1.0000
  O   O24       1.0  0.09650  0.78469  0.93443  1.0000
