data_image0
_chemical_formula_structural       Co2H34C46N4O14
_chemical_formula_sum              "Co2 H34 C46 N4 O14"
_cell_length_a       7.38901
_cell_length_b       10.8013
_cell_length_c       13.0127
_cell_angle_alpha    104.846
_cell_angle_beta     95.8106
_cell_angle_gamma    96.0326

_space_group_name_H-M_alt    "P 1"
_space_group_IT_number       1

loop_
  _space_group_symop_operation_xyz
  'x, y, z'

loop_
  _atom_site_type_symbol
  _atom_site_label
  _atom_site_symmetry_multiplicity
  _atom_site_fract_x
  _atom_site_fract_y
  _atom_site_fract_z
  _atom_site_occupancy
  Co  Co1       1.0  0.92349  0.75102  0.66438  1.0000
  Co  Co2       1.0  0.07624  0.24923  0.33593  1.0000
  H   H1        1.0  0.64583  0.63634  0.78904  1.0000
  H   H2        1.0  0.35422  0.36405  0.21115  1.0000
  H   H3        1.0  0.53004  0.73117  0.96145  1.0000
  H   H4        1.0  0.46763  0.26937  0.03794  1.0000
  H   H5        1.0  0.63072  0.96561  0.05935  1.0000
  H   H6        1.0  0.36534  0.03524  0.93975  1.0000
  H   H7        1.0  0.81403  0.18220  0.05672  1.0000
  H   H8        1.0  0.18190  0.81867  0.94256  1.0000
  H   H9        1.0  0.00147  0.30453  0.95800  1.0000
  H   H10       1.0  0.99719  0.69610  0.04224  1.0000
  H   H11       1.0  0.13515  0.30741  0.78012  1.0000
  H   H12       1.0  0.86660  0.69312  0.22121  1.0000
  H   H13       1.0  0.19670  0.17643  0.60161  1.0000
  H   H14       1.0  0.80841  0.82407  0.40051  1.0000
  H   H15       1.0  0.10406  0.93861  0.54704  1.0000
  H   H16       1.0  0.90090  0.06194  0.45478  1.0000
  H   H17       1.0  0.60796  0.06747  0.50651  1.0000
  H   H18       1.0  0.39329  0.93131  0.49355  1.0000
  H   H19       1.0  0.50501  0.03317  0.67524  1.0000
  H   H20       1.0  0.49701  0.96583  0.32524  1.0000
  H   H21       1.0  0.56159  0.21738  0.84137  1.0000
  H   H22       1.0  0.44037  0.78202  0.15882  1.0000
  H   H23       1.0  0.82360  0.48793  0.06848  1.0000
  H   H24       1.0  0.17727  0.51190  0.93062  1.0000
  H   H25       1.0  0.59917  0.54669  0.19582  1.0000
  H   H26       1.0  0.40167  0.45288  0.80331  1.0000
  H   H27       1.0  0.15500  0.65190  0.76332  1.0000
  H   H28       1.0  0.84496  0.34715  0.23643  1.0000
  H   H29       1.0  0.26481  0.75630  0.71906  1.0000
  H   H30       1.0  0.73485  0.24276  0.28096  1.0000
  H   H31       1.0  0.67612  0.64691  0.50270  1.0000
  H   H32       1.0  0.32292  0.35435  0.49703  1.0000
  H   H33       1.0  0.55921  0.74623  0.56609  1.0000
  H   H34       1.0  0.43982  0.25426  0.43432  1.0000
  C   C1        1.0  0.84820  0.93488  0.83770  1.0000
  C   C2        1.0  0.15035  0.06576  0.16225  1.0000
  C   C3        1.0  0.68577  0.73753  0.83205  1.0000
  C   C4        1.0  0.31328  0.26301  0.16796  1.0000
  C   C5        1.0  0.62194  0.79276  0.92928  1.0000
  C   C6        1.0  0.37591  0.20784  0.07031  1.0000
  C   C7        1.0  0.67565  0.92209  0.98265  1.0000
  C   C8        1.0  0.32132  0.07866  0.01676  1.0000
  C   C9        1.0  0.79011  0.99838  0.93529  1.0000
  C   C10       1.0  0.20720  0.00238  0.06429  1.0000
  C   C11       1.0  0.85182  0.13422  0.97875  1.0000
  C   C12       1.0  0.14518  0.86661  0.02084  1.0000
  C   C13       1.0  0.95714  0.20114  0.92467  1.0000
  C   C14       1.0  0.04132  0.79950  0.07548  1.0000
  C   C15       1.0  0.00891  0.13913  0.82251  1.0000
  C   C16       1.0  0.99104  0.86139  0.17805  1.0000
  C   C17       1.0  0.09970  0.20273  0.75615  1.0000
  C   C18       1.0  0.90212  0.79778  0.24507  1.0000
  C   C19       1.0  0.13238  0.13050  0.65683  1.0000
  C   C20       1.0  0.87122  0.87001  0.34481  1.0000
  C   C21       1.0  0.08034  0.99610  0.62490  1.0000
  C   C22       1.0  0.92302  0.00441  0.37659  1.0000
  C   C23       1.0  0.95701  0.00430  0.78238  1.0000
  C   C24       1.0  0.04270  0.99621  0.21799  1.0000
  C   C25       1.0  0.90478  0.48688  0.68450  1.0000
  C   C26       1.0  0.09494  0.51257  0.31481  1.0000
  C   C27       1.0  0.78208  0.36211  0.67454  1.0000
  C   C28       1.0  0.21789  0.63716  0.32485  1.0000
  C   C29       1.0  0.78528  0.26966  0.47197  1.0000
  C   C30       1.0  0.21362  0.72933  0.52750  1.0000
  C   C31       1.0  0.73592  0.26205  0.57961  1.0000
  C   C32       1.0  0.26384  0.73705  0.41996  1.0000
  C   C33       1.0  0.63743  0.14439  0.58086  1.0000
  C   C34       1.0  0.36325  0.85457  0.41907  1.0000
  C   C35       1.0  0.57833  0.12596  0.67459  1.0000
  C   C36       1.0  0.42307  0.87309  0.32555  1.0000
  C   C37       1.0  0.61081  0.22775  0.76758  1.0000
  C   C38       1.0  0.39050  0.77150  0.23239  1.0000
  C   C39       1.0  0.71287  0.34364  0.76688  1.0000
  C   C40       1.0  0.28772  0.65569  0.23264  1.0000
  C   C41       1.0  0.62620  0.46737  0.92846  1.0000
  C   C42       1.0  0.37460  0.53255  0.07078  1.0000
  C   C43       1.0  0.68263  0.49431  0.03846  1.0000
  C   C44       1.0  0.31824  0.50568  0.96075  1.0000
  C   C45       1.0  0.55621  0.52737  0.10996  1.0000
  C   C46       1.0  0.44464  0.47251  0.88922  1.0000
  N   N1        1.0  0.99572  0.93219  0.68621  1.0000
  N   N2        1.0  0.00541  0.06829  0.31452  1.0000
  N   N3        1.0  0.80057  0.80594  0.78717  1.0000
  N   N4        1.0  0.19872  0.19461  0.21298  1.0000
  O   O1        1.0  0.82839  0.57044  0.64652  1.0000
  O   O2        1.0  0.17047  0.42970  0.35413  1.0000
  O   O3        1.0  0.06484  0.50030  0.73266  1.0000
  O   O4        1.0  0.93556  0.49853  0.26550  1.0000
  O   O5        1.0  0.95566  0.29463  0.46456  1.0000
  O   O6        1.0  0.04306  0.70566  0.53505  1.0000
  O   O7        1.0  0.65370  0.24037  0.39517  1.0000
  O   O8        1.0  0.34506  0.75757  0.60431  1.0000
  O   O9        1.0  0.75922  0.44372  0.86040  1.0000
  O   O10       1.0  0.24153  0.55591  0.13890  1.0000
  O   O11       1.0  0.18194  0.74789  0.77378  1.0000
  O   O12       1.0  0.81763  0.25123  0.22618  1.0000
  O   O13       1.0  0.68104  0.73815  0.53946  1.0000
  O   O14       1.0  0.31841  0.26278  0.46137  1.0000
