data_image0
_chemical_formula_structural       Cu4H48C64N4O16
_chemical_formula_sum              "Cu4 H48 C64 N4 O16"
_cell_length_a       9.67376
_cell_length_b       10.1267
_cell_length_c       18.968
_cell_angle_alpha    96.7445
_cell_angle_beta     90
_cell_angle_gamma    118.531

_space_group_name_H-M_alt    "P 1"
_space_group_IT_number       1

loop_
  _space_group_symop_operation_xyz
  'x, y, z'

loop_
  _atom_site_type_symbol
  _atom_site_label
  _atom_site_symmetry_multiplicity
  _atom_site_fract_x
  _atom_site_fract_y
  _atom_site_fract_z
  _atom_site_occupancy
  Cu  Cu1       1.0  0.64271  0.00013  0.74992  1.0000
  Cu  Cu2       1.0  0.35730  0.99987  0.25008  1.0000
  Cu  Cu3       1.0  0.90726  0.00036  0.74994  1.0000
  Cu  Cu4       1.0  0.09274  0.99963  0.25006  1.0000
  H   H1        1.0  0.35379  0.59367  0.83980  1.0000
  H   H2        1.0  0.75933  0.40609  0.66042  1.0000
  H   H3        1.0  0.64621  0.40633  0.16021  1.0000
  H   H4        1.0  0.24066  0.59393  0.33959  1.0000
  H   H5        1.0  0.23343  0.34727  0.89042  1.0000
  H   H6        1.0  0.88432  0.65249  0.60973  1.0000
  H   H7        1.0  0.76657  0.65273  0.10959  1.0000
  H   H8        1.0  0.11567  0.34751  0.39028  1.0000
  H   H9        1.0  0.38050  0.20246  0.89123  1.0000
  H   H10       1.0  0.17609  0.79794  0.60861  1.0000
  H   H11       1.0  0.61950  0.79754  0.10878  1.0000
  H   H12       1.0  0.82390  0.20206  0.39139  1.0000
  H   H13       1.0  0.63687  0.29216  0.83477  1.0000
  H   H14       1.0  0.34369  0.70901  0.66485  1.0000
  H   H15       1.0  0.36313  0.70785  0.16524  1.0000
  H   H16       1.0  0.65630  0.29098  0.33514  1.0000
  H   H17       1.0  0.75388  0.53730  0.78398  1.0000
  H   H18       1.0  0.21674  0.46408  0.71573  1.0000
  H   H19       1.0  0.24612  0.46271  0.21602  1.0000
  H   H20       1.0  0.78325  0.53591  0.28427  1.0000
  H   H21       1.0  0.43667  0.72994  0.54475  1.0000
  H   H22       1.0  0.70686  0.27108  0.95514  1.0000
  H   H23       1.0  0.56332  0.27005  0.45524  1.0000
  H   H24       1.0  0.29313  0.72892  0.04487  1.0000
  H   H25       1.0  0.37410  0.57826  0.42504  1.0000
  H   H26       1.0  0.79603  0.42227  0.07492  1.0000
  H   H27       1.0  0.62590  0.42175  0.57495  1.0000
  H   H28       1.0  0.20397  0.57773  0.92508  1.0000
  H   H29       1.0  0.58815  0.56554  0.35663  1.0000
  H   H30       1.0  0.02222  0.43413  0.14336  1.0000
  H   H31       1.0  0.41185  0.43447  0.64336  1.0000
  H   H32       1.0  0.97779  0.56588  0.85663  1.0000
  H   H33       1.0  0.86533  0.70530  0.40871  1.0000
  H   H34       1.0  0.15919  0.29393  0.09122  1.0000
  H   H35       1.0  0.13467  0.29470  0.59128  1.0000
  H   H36       1.0  0.84082  0.70606  0.90878  1.0000
  H   H37       1.0  0.92632  0.85453  0.52957  1.0000
  H   H38       1.0  0.07096  0.14517  0.97027  1.0000
  H   H39       1.0  0.07367  0.14547  0.47043  1.0000
  H   H40       1.0  0.92902  0.85481  0.02972  1.0000
  H   H41       1.0  0.34399  0.87598  0.83511  1.0000
  H   H42       1.0  0.46789  0.12428  0.66479  1.0000
  H   H43       1.0  0.65604  0.12405  0.16490  1.0000
  H   H44       1.0  0.53213  0.87572  0.33520  1.0000
  H   H45       1.0  0.08269  0.87866  0.83612  1.0000
  H   H46       1.0  0.20391  0.12160  0.66399  1.0000
  H   H47       1.0  0.91734  0.12134  0.16388  1.0000
  H   H48       1.0  0.79612  0.87838  0.33601  1.0000
  C   C1        1.0  0.63800  0.73332  0.78568  1.0000
  C   C2        1.0  0.90508  0.26718  0.71423  1.0000
  C   C3        1.0  0.36200  0.26667  0.21432  1.0000
  C   C4        1.0  0.09492  0.73281  0.28577  1.0000
  C   C5        1.0  0.56180  0.58085  0.81046  1.0000
  C   C6        1.0  0.98069  0.41964  0.68945  1.0000
  C   C7        1.0  0.43819  0.41915  0.18954  1.0000
  C   C8        1.0  0.01930  0.58036  0.31055  1.0000
  C   C9        1.0  0.41415  0.52636  0.83947  1.0000
  C   C10       1.0  0.88694  0.47370  0.66059  1.0000
  C   C11       1.0  0.58585  0.47365  0.16053  1.0000
  C   C12       1.0  0.11305  0.52630  0.33942  1.0000
  C   C13       1.0  0.34843  0.38997  0.86797  1.0000
  C   C14       1.0  0.95699  0.61007  0.63207  1.0000
  C   C15       1.0  0.65158  0.61004  0.13204  1.0000
  C   C16       1.0  0.04299  0.38992  0.36793  1.0000
  C   C17       1.0  0.43042  0.30768  0.86762  1.0000
  C   C18       1.0  0.12125  0.69277  0.63224  1.0000
  C   C19       1.0  0.56959  0.69233  0.13239  1.0000
  C   C20       1.0  0.87874  0.30723  0.36776  1.0000
  C   C21       1.0  0.57518  0.35861  0.83658  1.0000
  C   C22       1.0  0.21559  0.64229  0.66316  1.0000
  C   C23       1.0  0.42482  0.64139  0.16343  1.0000
  C   C24       1.0  0.78440  0.35771  0.33684  1.0000
  C   C25       1.0  0.64064  0.49493  0.80793  1.0000
  C   C26       1.0  0.14538  0.50603  0.69186  1.0000
  C   C27       1.0  0.35936  0.50507  0.19208  1.0000
  C   C28       1.0  0.85461  0.49397  0.30815  1.0000
  C   C29       1.0  0.72098  0.88305  0.61869  1.0000
  C   C30       1.0  0.83774  0.11742  0.88114  1.0000
  C   C31       1.0  0.27902  0.11696  0.38131  1.0000
  C   C32       1.0  0.16224  0.88257  0.11886  1.0000
  C   C33       1.0  0.68525  0.80116  0.54449  1.0000
  C   C34       1.0  0.88369  0.19910  0.95537  1.0000
  C   C35       1.0  0.31475  0.19884  0.45550  1.0000
  C   C36       1.0  0.11630  0.80089  0.04463  1.0000
  C   C37       1.0  0.52996  0.72479  0.51444  1.0000
  C   C38       1.0  0.80503  0.27570  0.98544  1.0000
  C   C39       1.0  0.47004  0.27521  0.48556  1.0000
  C   C40       1.0  0.19496  0.72430  0.01456  1.0000
  C   C41       1.0  0.49564  0.64033  0.44716  1.0000
  C   C42       1.0  0.85517  0.35988  0.05278  1.0000
  C   C43       1.0  0.50436  0.35968  0.55283  1.0000
  C   C44       1.0  0.14483  0.64012  0.94722  1.0000
  C   C45       1.0  0.61583  0.63269  0.40909  1.0000
  C   C46       1.0  0.98270  0.36707  0.09089  1.0000
  C   C47       1.0  0.38417  0.36732  0.59090  1.0000
  C   C48       1.0  0.01730  0.63292  0.90911  1.0000
  C   C49       1.0  0.77133  0.71073  0.43840  1.0000
  C   C50       1.0  0.05990  0.28882  0.06155  1.0000
  C   C51       1.0  0.22867  0.28928  0.56160  1.0000
  C   C52       1.0  0.94010  0.71117  0.93845  1.0000
  C   C53       1.0  0.80594  0.79432  0.50588  1.0000
  C   C54       1.0  0.01095  0.20549  0.99401  1.0000
  C   C55       1.0  0.19405  0.20568  0.49411  1.0000
  C   C56       1.0  0.98904  0.79449  0.00599  1.0000
  C   C57       1.0  0.31241  0.93177  0.79719  1.0000
  C   C58       1.0  0.38062  0.06845  0.70275  1.0000
  C   C59       1.0  0.68763  0.06825  0.20282  1.0000
  C   C60       1.0  0.61939  0.93155  0.29725  1.0000
  C   C61       1.0  0.16881  0.93260  0.79751  1.0000
  C   C62       1.0  0.23620  0.06766  0.70255  1.0000
  C   C63       1.0  0.83122  0.06741  0.20250  1.0000
  C   C64       1.0  0.76382  0.93233  0.29745  1.0000
  N   N1        1.0  0.41815  0.00010  0.74994  1.0000
  N   N2        1.0  0.58188  0.99990  0.25006  1.0000
  N   N3        1.0  0.13100  0.00016  0.75006  1.0000
  N   N4        1.0  0.86902  0.99984  0.24994  1.0000
  O   O1        1.0  0.55690  0.80280  0.78685  1.0000
  O   O2        1.0  0.75451  0.19739  0.71303  1.0000
  O   O3        1.0  0.44310  0.19720  0.21316  1.0000
  O   O4        1.0  0.24549  0.80260  0.28697  1.0000
  O   O5        1.0  0.77890  0.78352  0.76665  1.0000
  O   O6        1.0  0.99608  0.21731  0.73322  1.0000
  O   O7        1.0  0.22109  0.21647  0.23334  1.0000
  O   O8        1.0  0.00393  0.78270  0.26678  1.0000
  O   O9        1.0  0.60805  0.89100  0.65017  1.0000
  O   O10       1.0  0.71679  0.10934  0.84967  1.0000
  O   O11       1.0  0.39195  0.10900  0.34983  1.0000
  O   O12       1.0  0.28319  0.89065  0.15034  1.0000
  O   O13       1.0  0.86141  0.93563  0.64544  1.0000
  O   O14       1.0  0.92579  0.06511  0.85439  1.0000
  O   O15       1.0  0.13859  0.06438  0.35455  1.0000
  O   O16       1.0  0.07418  0.93488  0.14561  1.0000
