data_image0
_chemical_formula_structural       Zn4H36C60N8Cl12O16
_chemical_formula_sum              "Zn4 H36 C60 N8 Cl12 O16"
_cell_length_a       9.00063
_cell_length_b       11.5438
_cell_length_c       16.9322
_cell_angle_alpha    109.605
_cell_angle_beta     89.9999
_cell_angle_gamma    89.9999

_space_group_name_H-M_alt    "P 1"
_space_group_IT_number       1

loop_
  _space_group_symop_operation_xyz
  'x, y, z'

loop_
  _atom_site_type_symbol
  _atom_site_label
  _atom_site_symmetry_multiplicity
  _atom_site_fract_x
  _atom_site_fract_y
  _atom_site_fract_z
  _atom_site_occupancy
  Zn  Zn1       1.0  0.74484  0.80023  0.82300  1.0000
  Zn  Zn2       1.0  0.75517  0.30023  0.32300  1.0000
  Zn  Zn3       1.0  0.25517  0.19977  0.17700  1.0000
  Zn  Zn4       1.0  0.24483  0.69977  0.67700  1.0000
  H   H1        1.0  0.27295  0.57099  0.87892  1.0000
  H   H2        1.0  0.22706  0.07099  0.37892  1.0000
  H   H3        1.0  0.72706  0.42901  0.12108  1.0000
  H   H4        1.0  0.77294  0.92901  0.62108  1.0000
  H   H5        1.0  0.29058  0.53588  0.01600  1.0000
  H   H6        1.0  0.20942  0.03588  0.51600  1.0000
  H   H7        1.0  0.70942  0.46412  0.98400  1.0000
  H   H8        1.0  0.79058  0.96412  0.48400  1.0000
  H   H9        1.0  0.47252  0.65673  0.12318  1.0000
  H   H10       1.0  0.02748  0.15673  0.62318  1.0000
  H   H11       1.0  0.52748  0.34327  0.87682  1.0000
  H   H12       1.0  0.97252  0.84327  0.37682  1.0000
  H   H13       1.0  0.63789  0.80760  0.09194  1.0000
  H   H14       1.0  0.86211  0.30760  0.59194  1.0000
  H   H15       1.0  0.36211  0.19240  0.90806  1.0000
  H   H16       1.0  0.13788  0.69240  0.40806  1.0000
  H   H17       1.0  0.66513  0.98703  0.06671  1.0000
  H   H18       1.0  0.83487  0.48703  0.56671  1.0000
  H   H19       1.0  0.33487  0.01297  0.93329  1.0000
  H   H20       1.0  0.16513  0.51297  0.43328  1.0000
  H   H21       1.0  0.83761  0.16714  0.09041  1.0000
  H   H22       1.0  0.66239  0.66714  0.59041  1.0000
  H   H23       1.0  0.16239  0.83286  0.90959  1.0000
  H   H24       1.0  0.33761  0.33286  0.40959  1.0000
  H   H25       1.0  0.02245  0.27872  0.03248  1.0000
  H   H26       1.0  0.47755  0.77872  0.53248  1.0000
  H   H27       1.0  0.97755  0.72128  0.96752  1.0000
  H   H28       1.0  0.52245  0.22128  0.46752  1.0000
  H   H29       1.0  0.08985  0.18973  0.87856  1.0000
  H   H30       1.0  0.41015  0.68973  0.37856  1.0000
  H   H31       1.0  0.91015  0.81027  0.12144  1.0000
  H   H32       1.0  0.58985  0.31027  0.62144  1.0000
  H   H33       1.0  0.97613  0.99098  0.79236  1.0000
  H   H34       1.0  0.52387  0.49098  0.29236  1.0000
  H   H35       1.0  0.02387  0.00902  0.20764  1.0000
  H   H36       1.0  0.47613  0.50902  0.70764  1.0000
  C   C1        1.0  0.42705  0.72084  0.82244  1.0000
  C   C2        1.0  0.07295  0.22084  0.32244  1.0000
  C   C3        1.0  0.57296  0.27916  0.17756  1.0000
  C   C4        1.0  0.92705  0.77916  0.67756  1.0000
  C   C5        1.0  0.44830  0.70390  0.90594  1.0000
  C   C6        1.0  0.05171  0.20390  0.40594  1.0000
  C   C7        1.0  0.55171  0.29610  0.09406  1.0000
  C   C8        1.0  0.94829  0.79610  0.59406  1.0000
  C   C9        1.0  0.35455  0.62044  0.92548  1.0000
  C   C10       1.0  0.14545  0.12044  0.42548  1.0000
  C   C11       1.0  0.64545  0.37956  0.07452  1.0000
  C   C12       1.0  0.85454  0.87956  0.57452  1.0000
  C   C13       1.0  0.36333  0.60228  0.00251  1.0000
  C   C14       1.0  0.13667  0.10228  0.50252  1.0000
  C   C15       1.0  0.63667  0.39772  0.99748  1.0000
  C   C16       1.0  0.86333  0.89772  0.49749  1.0000
  C   C17       1.0  0.46518  0.66995  0.06257  1.0000
  C   C18       1.0  0.03482  0.16994  0.56257  1.0000
  C   C19       1.0  0.53482  0.33005  0.93743  1.0000
  C   C20       1.0  0.96518  0.83006  0.43743  1.0000
  C   C21       1.0  0.55833  0.75446  0.04523  1.0000
  C   C22       1.0  0.94167  0.25446  0.54523  1.0000
  C   C23       1.0  0.44167  0.24554  0.95477  1.0000
  C   C24       1.0  0.05833  0.74554  0.45477  1.0000
  C   C25       1.0  0.55166  0.77166  0.96698  1.0000
  C   C26       1.0  0.94834  0.27165  0.46698  1.0000
  C   C27       1.0  0.44834  0.22834  0.03302  1.0000
  C   C28       1.0  0.05166  0.72835  0.53302  1.0000
  C   C29       1.0  0.69919  0.95217  0.00057  1.0000
  C   C30       1.0  0.80081  0.45217  0.50057  1.0000
  C   C31       1.0  0.30080  0.04783  0.99943  1.0000
  C   C32       1.0  0.19920  0.54783  0.49943  1.0000
  C   C33       1.0  0.80827  0.02225  0.97106  1.0000
  C   C34       1.0  0.69173  0.52225  0.47105  1.0000
  C   C35       1.0  0.19173  0.97775  0.02894  1.0000
  C   C36       1.0  0.30827  0.47775  0.52895  1.0000
  C   C37       1.0  0.86924  0.13174  0.02439  1.0000
  C   C38       1.0  0.63076  0.63174  0.52439  1.0000
  C   C39       1.0  0.13076  0.86826  0.97561  1.0000
  C   C40       1.0  0.36924  0.36826  0.47561  1.0000
  C   C41       1.0  0.97200  0.19408  0.99151  1.0000
  C   C42       1.0  0.52800  0.69407  0.49151  1.0000
  C   C43       1.0  0.02800  0.80592  0.00849  1.0000
  C   C44       1.0  0.47200  0.30592  0.50849  1.0000
  C   C45       1.0  0.01003  0.14497  0.90710  1.0000
  C   C46       1.0  0.48997  0.64497  0.40711  1.0000
  C   C47       1.0  0.98997  0.85503  0.09290  1.0000
  C   C48       1.0  0.51003  0.35503  0.59290  1.0000
  C   C49       1.0  0.94582  0.03377  0.85798  1.0000
  C   C50       1.0  0.55418  0.53377  0.35798  1.0000
  C   C51       1.0  0.05418  0.96623  0.14202  1.0000
  C   C52       1.0  0.44582  0.46623  0.64202  1.0000
  C   C53       1.0  0.84088  0.54853  0.77673  1.0000
  C   C54       1.0  0.65912  0.04853  0.27674  1.0000
  C   C55       1.0  0.15912  0.45147  0.22326  1.0000
  C   C56       1.0  0.34088  0.95147  0.72327  1.0000
  C   C57       1.0  0.93485  0.44308  0.79357  1.0000
  C   C58       1.0  0.56515  0.94308  0.29358  1.0000
  C   C59       1.0  0.06515  0.55692  0.20642  1.0000
  C   C60       1.0  0.43484  0.05692  0.70643  1.0000
  N   N1        1.0  0.64912  0.85190  0.94701  1.0000
  N   N2        1.0  0.85088  0.35190  0.44701  1.0000
  N   N3        1.0  0.35088  0.14810  0.05299  1.0000
  N   N4        1.0  0.14912  0.64810  0.55299  1.0000
  N   N5        1.0  0.84741  0.97384  0.88900  1.0000
  N   N6        1.0  0.65259  0.47384  0.38900  1.0000
  N   N7        1.0  0.15259  0.02616  0.11100  1.0000
  N   N8        1.0  0.34741  0.52616  0.61100  1.0000
  Cl  Cl1       1.0  0.98539  0.47480  0.90066  1.0000
  Cl  Cl2       1.0  0.51462  0.97480  0.40066  1.0000
  Cl  Cl3       1.0  0.01461  0.52520  0.09934  1.0000
  Cl  Cl4       1.0  0.48539  0.02520  0.59934  1.0000
  Cl  Cl5       1.0  0.10123  0.42715  0.73356  1.0000
  Cl  Cl6       1.0  0.39877  0.92715  0.23356  1.0000
  Cl  Cl7       1.0  0.89877  0.57285  0.26644  1.0000
  Cl  Cl8       1.0  0.60123  0.07285  0.76644  1.0000
  Cl  Cl9       1.0  0.83099  0.30305  0.76115  1.0000
  Cl  Cl10      1.0  0.66901  0.80305  0.26116  1.0000
  Cl  Cl11      1.0  0.16901  0.69695  0.23885  1.0000
  Cl  Cl12      1.0  0.33099  0.19695  0.73885  1.0000
  O   O1        1.0  0.53013  0.75741  0.78525  1.0000
  O   O2        1.0  0.96987  0.25740  0.28524  1.0000
  O   O3        1.0  0.46987  0.24259  0.21476  1.0000
  O   O4        1.0  0.03013  0.74259  0.71476  1.0000
  O   O5        1.0  0.29742  0.69287  0.79085  1.0000
  O   O6        1.0  0.20258  0.19287  0.29084  1.0000
  O   O7        1.0  0.70258  0.30713  0.20915  1.0000
  O   O8        1.0  0.79742  0.80713  0.70916  1.0000
  O   O9        1.0  0.83899  0.64965  0.83801  1.0000
  O   O10       1.0  0.66101  0.14965  0.33801  1.0000
  O   O11       1.0  0.16101  0.35035  0.16199  1.0000
  O   O12       1.0  0.33899  0.85035  0.66199  1.0000
  O   O13       1.0  0.78370  0.52109  0.70632  1.0000
  O   O14       1.0  0.71630  0.02108  0.20632  1.0000
  O   O15       1.0  0.21630  0.47891  0.29368  1.0000
  O   O16       1.0  0.28370  0.97891  0.79368  1.0000
