data_image0
_chemical_formula_structural       Zn4H36C60N8O16F12
_chemical_formula_sum              "Zn4 H36 C60 N8 O16 F12"
_cell_length_a       8.91377
_cell_length_b       10.5106
_cell_length_c       16.389
_cell_angle_alpha    89.9993
_cell_angle_beta     90.0004
_cell_angle_gamma    106.395

_space_group_name_H-M_alt    "P 1"
_space_group_IT_number       1

loop_
  _space_group_symop_operation_xyz
  'x, y, z'

loop_
  _atom_site_type_symbol
  _atom_site_label
  _atom_site_symmetry_multiplicity
  _atom_site_fract_x
  _atom_site_fract_y
  _atom_site_fract_z
  _atom_site_occupancy
  Zn  Zn1       1.0  0.19131  0.41023  0.17094  1.0000
  Zn  Zn2       1.0  0.69131  0.41023  0.32906  1.0000
  Zn  Zn3       1.0  0.80869  0.58977  0.82905  1.0000
  Zn  Zn4       1.0  0.30869  0.58977  0.67094  1.0000
  H   H1        1.0  0.88314  0.77024  0.22663  1.0000
  H   H2        1.0  0.38314  0.77025  0.27337  1.0000
  H   H3        1.0  0.11686  0.22976  0.77337  1.0000
  H   H4        1.0  0.61686  0.22974  0.72663  1.0000
  H   H5        1.0  0.47032  0.12993  0.99320  1.0000
  H   H6        1.0  0.97032  0.12994  0.50680  1.0000
  H   H7        1.0  0.52968  0.87007  0.00680  1.0000
  H   H8        1.0  0.02968  0.87006  0.49320  1.0000
  H   H9        1.0  0.35587  0.45716  0.87293  1.0000
  H   H10       1.0  0.85587  0.45716  0.62707  1.0000
  H   H11       1.0  0.64412  0.54284  0.12707  1.0000
  H   H12       1.0  0.14412  0.54284  0.37293  1.0000
  H   H13       1.0  0.23275  0.77051  0.99184  1.0000
  H   H14       1.0  0.73275  0.77051  0.50816  1.0000
  H   H15       1.0  0.76725  0.22949  0.00816  1.0000
  H   H16       1.0  0.26726  0.22948  0.49184  1.0000
  H   H17       1.0  0.48157  0.27032  0.86786  1.0000
  H   H18       1.0  0.98157  0.27033  0.63214  1.0000
  H   H19       1.0  0.51843  0.72968  0.13214  1.0000
  H   H20       1.0  0.01843  0.72967  0.36786  1.0000
  H   H21       1.0  0.20502  0.58195  0.95144  1.0000
  H   H22       1.0  0.70501  0.58195  0.54856  1.0000
  H   H23       1.0  0.79498  0.41805  0.04856  1.0000
  H   H24       1.0  0.29498  0.41805  0.45144  1.0000
  H   H25       1.0  0.97147  0.97095  0.13962  1.0000
  H   H26       1.0  0.47147  0.97095  0.36038  1.0000
  H   H27       1.0  0.02853  0.02906  0.86038  1.0000
  H   H28       1.0  0.52853  0.02905  0.63962  1.0000
  H   H29       1.0  0.14349  0.96828  0.01948  1.0000
  H   H30       1.0  0.64349  0.96828  0.48052  1.0000
  H   H31       1.0  0.85651  0.03172  0.98052  1.0000
  H   H32       1.0  0.35652  0.03172  0.51948  1.0000
  H   H33       1.0  0.33770  0.18313  0.11898  1.0000
  H   H34       1.0  0.83770  0.18313  0.38103  1.0000
  H   H35       1.0  0.66230  0.81687  0.88102  1.0000
  H   H36       1.0  0.16230  0.81687  0.61898  1.0000
  C   C1        1.0  0.00886  0.65709  0.16091  1.0000
  C   C2        1.0  0.50886  0.65709  0.33909  1.0000
  C   C3        1.0  0.99114  0.34292  0.83909  1.0000
  C   C4        1.0  0.49114  0.34291  0.66091  1.0000
  C   C5        1.0  0.10789  0.65705  0.09310  1.0000
  C   C6        1.0  0.60789  0.65706  0.40690  1.0000
  C   C7        1.0  0.89211  0.34295  0.90690  1.0000
  C   C8        1.0  0.39211  0.34294  0.59310  1.0000
  C   C9        1.0  0.28386  0.41577  0.99812  1.0000
  C   C10       1.0  0.78386  0.41577  0.50188  1.0000
  C   C11       1.0  0.71614  0.58423  0.00188  1.0000
  C   C12       1.0  0.21614  0.58423  0.49812  1.0000
  C   C13       1.0  0.96091  0.77140  0.17530  1.0000
  C   C14       1.0  0.46090  0.77140  0.32469  1.0000
  C   C15       1.0  0.03910  0.22860  0.82470  1.0000
  C   C16       1.0  0.53910  0.22860  0.67531  1.0000
  C   C17       1.0  0.41833  0.21191  0.99265  1.0000
  C   C18       1.0  0.91833  0.21192  0.50736  1.0000
  C   C19       1.0  0.58168  0.78809  0.00735  1.0000
  C   C20       1.0  0.08167  0.78809  0.49265  1.0000
  C   C21       1.0  0.94348  0.54028  0.21636  1.0000
  C   C22       1.0  0.44347  0.54028  0.28364  1.0000
  C   C23       1.0  0.05652  0.45972  0.78364  1.0000
  C   C24       1.0  0.55653  0.45971  0.71636  1.0000
  C   C25       1.0  0.15964  0.21201  0.29881  1.0000
  C   C26       1.0  0.65963  0.21200  0.20119  1.0000
  C   C27       1.0  0.84036  0.78800  0.70120  1.0000
  C   C28       1.0  0.34036  0.78799  0.79881  1.0000
  C   C29       1.0  0.35447  0.39321  0.92552  1.0000
  C   C30       1.0  0.85447  0.39321  0.57447  1.0000
  C   C31       1.0  0.64552  0.60678  0.07447  1.0000
  C   C32       1.0  0.14553  0.60679  0.42553  1.0000
  C   C33       1.0  0.15487  0.77025  0.04309  1.0000
  C   C34       1.0  0.65487  0.77025  0.45691  1.0000
  C   C35       1.0  0.84513  0.22976  0.95691  1.0000
  C   C36       1.0  0.34514  0.22975  0.54309  1.0000
  C   C37       1.0  0.42377  0.28947  0.92323  1.0000
  C   C38       1.0  0.92377  0.28947  0.57677  1.0000
  C   C39       1.0  0.57623  0.71053  0.07677  1.0000
  C   C40       1.0  0.07623  0.71053  0.42323  1.0000
  C   C41       1.0  0.21178  0.52380  0.00617  1.0000
  C   C42       1.0  0.71178  0.52380  0.49383  1.0000
  C   C43       1.0  0.78821  0.47620  0.99383  1.0000
  C   C44       1.0  0.28822  0.47620  0.50617  1.0000
  C   C45       1.0  0.00831  0.88299  0.12573  1.0000
  C   C46       1.0  0.50831  0.88299  0.37427  1.0000
  C   C47       1.0  0.99169  0.11701  0.87427  1.0000
  C   C48       1.0  0.49170  0.11700  0.62573  1.0000
  C   C49       1.0  0.10520  0.88177  0.05898  1.0000
  C   C50       1.0  0.60520  0.88177  0.44102  1.0000
  C   C51       1.0  0.89480  0.11823  0.94102  1.0000
  C   C52       1.0  0.39480  0.11823  0.55898  1.0000
  C   C53       1.0  0.34555  0.24074  0.06312  1.0000
  C   C54       1.0  0.84555  0.24074  0.43688  1.0000
  C   C55       1.0  0.65445  0.75926  0.93688  1.0000
  C   C56       1.0  0.15445  0.75926  0.56312  1.0000
  C   C57       1.0  0.15314  0.06621  0.32159  1.0000
  C   C58       1.0  0.65313  0.06620  0.17841  1.0000
  C   C59       1.0  0.84686  0.93379  0.67841  1.0000
  C   C60       1.0  0.34687  0.93379  0.82159  1.0000
  N   N1        1.0  0.16355  0.54732  0.07741  1.0000
  N   N2        1.0  0.66355  0.54733  0.42259  1.0000
  N   N3        1.0  0.83645  0.45268  0.92259  1.0000
  N   N4        1.0  0.33645  0.45267  0.57741  1.0000
  N   N5        1.0  0.28098  0.34082  0.06573  1.0000
  N   N6        1.0  0.78098  0.34082  0.43427  1.0000
  N   N7        1.0  0.71902  0.65918  0.93427  1.0000
  N   N8        1.0  0.21902  0.65918  0.56573  1.0000
  O   O1        1.0  0.15571  0.22887  0.22186  1.0000
  O   O2        1.0  0.65571  0.22887  0.27815  1.0000
  O   O3        1.0  0.84428  0.77113  0.77815  1.0000
  O   O4        1.0  0.34429  0.77113  0.72185  1.0000
  O   O5        1.0  0.16349  0.28999  0.35603  1.0000
  O   O6        1.0  0.66347  0.28996  0.14398  1.0000
  O   O7        1.0  0.83651  0.71002  0.64397  1.0000
  O   O8        1.0  0.33651  0.71003  0.85602  1.0000
  O   O9        1.0  0.98750  0.43578  0.21473  1.0000
  O   O10       1.0  0.48750  0.43579  0.28527  1.0000
  O   O11       1.0  0.01249  0.56422  0.78527  1.0000
  O   O12       1.0  0.51250  0.56421  0.71473  1.0000
  O   O13       1.0  0.83756  0.55455  0.26560  1.0000
  O   O14       1.0  0.33755  0.55455  0.23440  1.0000
  O   O15       1.0  0.16244  0.44545  0.73440  1.0000
  O   O16       1.0  0.66245  0.44545  0.76560  1.0000
  F   F1        1.0  0.22637  0.00724  0.26693  1.0000
  F   F2        1.0  0.72633  0.00722  0.23308  1.0000
  F   F3        1.0  0.77366  0.99278  0.73308  1.0000
  F   F4        1.0  0.27367  0.99278  0.76692  1.0000
  F   F5        1.0  0.00040  0.98963  0.32737  1.0000
  F   F6        1.0  0.50040  0.98963  0.17261  1.0000
  F   F7        1.0  0.99960  0.01037  0.67262  1.0000
  F   F8        1.0  0.49960  0.01037  0.82739  1.0000
  F   F9        1.0  0.21990  0.05802  0.39579  1.0000
  F   F10       1.0  0.71993  0.05802  0.10422  1.0000
  F   F11       1.0  0.78007  0.94198  0.60422  1.0000
  F   F12       1.0  0.28007  0.94197  0.89578  1.0000
