data_image0
_chemical_formula_structural       Cu4H32C40S8N8Cl4
_chemical_formula_sum              "Cu4 H32 C40 S8 N8 Cl4"
_cell_length_a       7.84366
_cell_length_b       10.146
_cell_length_c       14.7844
_cell_angle_alpha    90.0003
_cell_angle_beta     89.9993
_cell_angle_gamma    111.186

_space_group_name_H-M_alt    "P 1"
_space_group_IT_number       1

loop_
  _space_group_symop_operation_xyz
  'x, y, z'

loop_
  _atom_site_type_symbol
  _atom_site_label
  _atom_site_symmetry_multiplicity
  _atom_site_fract_x
  _atom_site_fract_y
  _atom_site_fract_z
  _atom_site_occupancy
  Cu  Cu1       1.0  0.52692  0.64570  0.54102  1.0000
  Cu  Cu2       1.0  0.02693  0.14571  0.95897  1.0000
  Cu  Cu3       1.0  0.47307  0.35429  0.45898  1.0000
  Cu  Cu4       1.0  0.97309  0.85430  0.04103  1.0000
  H   H1        1.0  0.96993  0.98534  0.32003  1.0000
  H   H2        1.0  0.46994  0.48532  0.17998  1.0000
  H   H3        1.0  0.03007  0.01466  0.67997  1.0000
  H   H4        1.0  0.53007  0.51467  0.82003  1.0000
  H   H5        1.0  0.99584  0.20343  0.40707  1.0000
  H   H6        1.0  0.49585  0.70341  0.09295  1.0000
  H   H7        1.0  0.00416  0.79657  0.59294  1.0000
  H   H8        1.0  0.50417  0.29659  0.90707  1.0000
  H   H9        1.0  0.78503  0.18173  0.53859  1.0000
  H   H10       1.0  0.28506  0.68173  0.96143  1.0000
  H   H11       1.0  0.21495  0.81826  0.46141  1.0000
  H   H12       1.0  0.71498  0.31829  0.03859  1.0000
  H   H13       1.0  0.58468  0.94080  0.58934  1.0000
  H   H14       1.0  0.08469  0.44080  0.91066  1.0000
  H   H15       1.0  0.41531  0.05919  0.41066  1.0000
  H   H16       1.0  0.91533  0.55922  0.08934  1.0000
  H   H17       1.0  0.06945  0.67700  0.35011  1.0000
  H   H18       1.0  0.56944  0.17699  0.14988  1.0000
  H   H19       1.0  0.93055  0.32300  0.64988  1.0000
  H   H20       1.0  0.43054  0.82300  0.85011  1.0000
  H   H21       1.0  0.40928  0.75475  0.33912  1.0000
  H   H22       1.0  0.90927  0.25473  0.16087  1.0000
  H   H23       1.0  0.59072  0.24527  0.66087  1.0000
  H   H24       1.0  0.09070  0.74525  0.83913  1.0000
  H   H25       1.0  0.56789  0.90444  0.20369  1.0000
  H   H26       1.0  0.06788  0.40443  0.29630  1.0000
  H   H27       1.0  0.43212  0.09558  0.79631  1.0000
  H   H28       1.0  0.93211  0.59555  0.70369  1.0000
  H   H29       1.0  0.37260  0.94285  0.08055  1.0000
  H   H30       1.0  0.87259  0.44284  0.41944  1.0000
  H   H31       1.0  0.62740  0.05718  0.91944  1.0000
  H   H32       1.0  0.12740  0.55715  0.58055  1.0000
  C   C1        1.0  0.76342  0.84927  0.40993  1.0000
  C   C2        1.0  0.26342  0.34926  0.09007  1.0000
  C   C3        1.0  0.23658  0.15073  0.59007  1.0000
  C   C4        1.0  0.73658  0.65074  0.90993  1.0000
  C   C5        1.0  0.88550  0.97957  0.37937  1.0000
  C   C6        1.0  0.38551  0.47954  0.12063  1.0000
  C   C7        1.0  0.11449  0.02044  0.62063  1.0000
  C   C8        1.0  0.61451  0.52045  0.87938  1.0000
  C   C9        1.0  0.89775  0.10069  0.42703  1.0000
  C   C10       1.0  0.39777  0.60068  0.07298  1.0000
  C   C11       1.0  0.10224  0.89930  0.57297  1.0000
  C   C12       1.0  0.60225  0.39932  0.92703  1.0000
  C   C13       1.0  0.78443  0.08878  0.50184  1.0000
  C   C14       1.0  0.28445  0.58878  0.99817  1.0000
  C   C15       1.0  0.21556  0.91122  0.49816  1.0000
  C   C16       1.0  0.71558  0.41123  0.00184  1.0000
  C   C17       1.0  0.67136  0.95525  0.52973  1.0000
  C   C18       1.0  0.17137  0.45525  0.97027  1.0000
  C   C19       1.0  0.32863  0.04474  0.47027  1.0000
  C   C20       1.0  0.82865  0.54476  0.02973  1.0000
  C   C21       1.0  0.04722  0.77571  0.22383  1.0000
  C   C22       1.0  0.54721  0.27570  0.27616  1.0000
  C   C23       1.0  0.95279  0.22430  0.77616  1.0000
  C   C24       1.0  0.45277  0.72428  0.72383  1.0000
  C   C25       1.0  0.14297  0.73923  0.29287  1.0000
  C   C26       1.0  0.64296  0.23922  0.20713  1.0000
  C   C27       1.0  0.85703  0.26078  0.70713  1.0000
  C   C28       1.0  0.35700  0.76077  0.79288  1.0000
  C   C29       1.0  0.33251  0.78451  0.28655  1.0000
  C   C30       1.0  0.83250  0.28449  0.21344  1.0000
  C   C31       1.0  0.66750  0.21551  0.71344  1.0000
  C   C32       1.0  0.16749  0.71549  0.78655  1.0000
  C   C33       1.0  0.41966  0.86436  0.21157  1.0000
  C   C34       1.0  0.91966  0.36434  0.28843  1.0000
  C   C35       1.0  0.58034  0.13566  0.78843  1.0000
  C   C36       1.0  0.08033  0.63564  0.71157  1.0000
  C   C37       1.0  0.31296  0.88778  0.14287  1.0000
  C   C38       1.0  0.81295  0.38777  0.35712  1.0000
  C   C39       1.0  0.68705  0.11224  0.85713  1.0000
  C   C40       1.0  0.18706  0.61222  0.64288  1.0000
  S   S1        1.0  0.72848  0.68451  0.35719  1.0000
  S   S2        1.0  0.22847  0.18449  0.14281  1.0000
  S   S3        1.0  0.27152  0.31550  0.64280  1.0000
  S   S4        1.0  0.77151  0.81551  0.85719  1.0000
  S   S5        1.0  0.80854  0.74076  0.22474  1.0000
  S   S6        1.0  0.30853  0.24075  0.27526  1.0000
  S   S7        1.0  0.19146  0.25924  0.77525  1.0000
  S   S8        1.0  0.69146  0.75924  0.72475  1.0000
  N   N1        1.0  0.66143  0.83577  0.48572  1.0000
  N   N2        1.0  0.16143  0.33576  0.01429  1.0000
  N   N3        1.0  0.33856  0.16423  0.51428  1.0000
  N   N4        1.0  0.83857  0.66424  0.98572  1.0000
  N   N5        1.0  0.12858  0.84361  0.14784  1.0000
  N   N6        1.0  0.62857  0.34361  0.35215  1.0000
  N   N7        1.0  0.87143  0.15640  0.85215  1.0000
  N   N8        1.0  0.37141  0.65638  0.64784  1.0000
  Cl  Cl1       1.0  0.71161  0.50888  0.55639  1.0000
  Cl  Cl2       1.0  0.21161  0.00889  0.94361  1.0000
  Cl  Cl3       1.0  0.28839  0.49111  0.44360  1.0000
  Cl  Cl4       1.0  0.78839  0.99111  0.05639  1.0000
