data_image0
_chemical_formula_structural       Cu2H16C20S2Br2N4
_chemical_formula_sum              "Cu2 H16 C20 S2 Br2 N4"
_cell_length_a       7.55709
_cell_length_b       8.66978
_cell_length_c       9.39518
_cell_angle_alpha    71.3186
_cell_angle_beta     72.1991
_cell_angle_gamma    66.4908

_space_group_name_H-M_alt    "P 1"
_space_group_IT_number       1

loop_
  _space_group_symop_operation_xyz
  'x, y, z'

loop_
  _atom_site_type_symbol
  _atom_site_label
  _atom_site_symmetry_multiplicity
  _atom_site_fract_x
  _atom_site_fract_y
  _atom_site_fract_z
  _atom_site_occupancy
  Cu  Cu1       1.0  0.99143  0.02302  0.67418  1.0000
  Cu  Cu2       1.0  0.00857  0.97698  0.32582  1.0000
  H   H1        1.0  0.11498  0.45520  0.12161  1.0000
  H   H2        1.0  0.88502  0.54480  0.87840  1.0000
  H   H3        1.0  0.84683  0.36210  0.32172  1.0000
  H   H4        1.0  0.15317  0.63789  0.67828  1.0000
  H   H5        1.0  0.63969  0.54697  0.51412  1.0000
  H   H6        1.0  0.36031  0.45303  0.48588  1.0000
  H   H7        1.0  0.72740  0.79740  0.50958  1.0000
  H   H8        1.0  0.27260  0.20260  0.49042  1.0000
  H   H9        1.0  0.35359  0.89844  0.73195  1.0000
  H   H10       1.0  0.64642  0.10155  0.26805  1.0000
  H   H11       1.0  0.64434  0.86444  0.82212  1.0000
  H   H12       1.0  0.35566  0.13556  0.17788  1.0000
  H   H13       1.0  0.65741  0.73898  0.10422  1.0000
  H   H14       1.0  0.34259  0.26102  0.89579  1.0000
  H   H15       1.0  0.37099  0.65111  0.28001  1.0000
  H   H16       1.0  0.62901  0.34889  0.71999  1.0000
  C   C1        1.0  0.06129  0.66934  0.21641  1.0000
  C   C2        1.0  0.93871  0.33066  0.78359  1.0000
  C   C3        1.0  0.02666  0.52575  0.21091  1.0000
  C   C4        1.0  0.97334  0.47425  0.78909  1.0000
  C   C5        1.0  0.87541  0.47624  0.32086  1.0000
  C   C6        1.0  0.12459  0.52376  0.67914  1.0000
  C   C7        1.0  0.76385  0.57589  0.42888  1.0000
  C   C8        1.0  0.23615  0.42411  0.57112  1.0000
  C   C9        1.0  0.81019  0.71618  0.42717  1.0000
  C   C10       1.0  0.18981  0.28382  0.57283  1.0000
  C   C11       1.0  0.20028  0.79697  0.95310  1.0000
  C   C12       1.0  0.79972  0.20303  0.04690  1.0000
  C   C13       1.0  0.36337  0.84274  0.85210  1.0000
  C   C14       1.0  0.63663  0.15726  0.14790  1.0000
  C   C15       1.0  0.52511  0.82248  0.90362  1.0000
  C   C16       1.0  0.47489  0.17752  0.09638  1.0000
  C   C17       1.0  0.53330  0.75246  0.06020  1.0000
  C   C18       1.0  0.46670  0.24754  0.93980  1.0000
  C   C19       1.0  0.37856  0.70357  0.15745  1.0000
  C   C20       1.0  0.62143  0.29643  0.84255  1.0000
  S   S1        1.0  0.98839  0.83394  0.90001  1.0000
  S   S2        1.0  0.01161  0.16606  0.09999  1.0000
  Br  Br1       1.0  0.72161  0.09306  0.54445  1.0000
  Br  Br2       1.0  0.27839  0.90695  0.45555  1.0000
  N   N1        1.0  0.95903  0.76355  0.32271  1.0000
  N   N2        1.0  0.04097  0.23645  0.67729  1.0000
  N   N3        1.0  0.21918  0.72175  0.10519  1.0000
  N   N4        1.0  0.78083  0.27825  0.89481  1.0000
