data_image0
_chemical_formula_structural       Cu4H40C44S8N8Cl8
_chemical_formula_sum              "Cu4 H40 C44 S8 N8 Cl8"
_cell_length_a       8.35936
_cell_length_b       12.2112
_cell_length_c       13.216
_cell_angle_alpha    98.9856
_cell_angle_beta     90.0003
_cell_angle_gamma    90.0001

_space_group_name_H-M_alt    "P 1"
_space_group_IT_number       1

loop_
  _space_group_symop_operation_xyz
  'x, y, z'

loop_
  _atom_site_type_symbol
  _atom_site_label
  _atom_site_symmetry_multiplicity
  _atom_site_fract_x
  _atom_site_fract_y
  _atom_site_fract_z
  _atom_site_occupancy
  Cu  Cu1       1.0  0.00375  0.87534  0.57688  1.0000
  Cu  Cu2       1.0  0.49625  0.37534  0.07688  1.0000
  Cu  Cu3       1.0  0.99625  0.12466  0.42312  1.0000
  Cu  Cu4       1.0  0.50375  0.62465  0.92312  1.0000
  H   H1        1.0  0.74580  0.00262  0.92989  1.0000
  H   H2        1.0  0.75420  0.50262  0.42989  1.0000
  H   H3        1.0  0.25420  0.99739  0.07011  1.0000
  H   H4        1.0  0.24580  0.49738  0.57011  1.0000
  H   H5        1.0  0.48701  0.05912  0.85887  1.0000
  H   H6        1.0  0.01299  0.55912  0.35887  1.0000
  H   H7        1.0  0.51299  0.94089  0.14113  1.0000
  H   H8        1.0  0.98701  0.44088  0.64113  1.0000
  H   H9        1.0  0.45604  0.03778  0.66631  1.0000
  H   H10       1.0  0.04397  0.53778  0.16631  1.0000
  H   H11       1.0  0.54396  0.96222  0.33369  1.0000
  H   H12       1.0  0.95603  0.46222  0.83369  1.0000
  H   H13       1.0  0.68813  0.96338  0.55634  1.0000
  H   H14       1.0  0.81189  0.46338  0.05634  1.0000
  H   H15       1.0  0.31187  0.03662  0.44367  1.0000
  H   H16       1.0  0.18812  0.53662  0.94366  1.0000
  H   H17       1.0  0.02405  0.73053  0.72995  1.0000
  H   H18       1.0  0.47594  0.23053  0.22995  1.0000
  H   H19       1.0  0.97595  0.26947  0.27004  1.0000
  H   H20       1.0  0.52405  0.76947  0.77005  1.0000
  H   H21       1.0  0.11364  0.73475  0.85332  1.0000
  H   H22       1.0  0.38636  0.23475  0.35332  1.0000
  H   H23       1.0  0.88636  0.26525  0.14668  1.0000
  H   H24       1.0  0.61363  0.76525  0.64668  1.0000
  H   H25       1.0  0.05376  0.80145  0.01067  1.0000
  H   H26       1.0  0.44624  0.30145  0.51067  1.0000
  H   H27       1.0  0.94625  0.19854  0.98933  1.0000
  H   H28       1.0  0.55376  0.69855  0.48933  1.0000
  H   H29       1.0  0.00238  0.84148  0.19813  1.0000
  H   H30       1.0  0.49762  0.34148  0.69812  1.0000
  H   H31       1.0  0.99762  0.15852  0.80187  1.0000
  H   H32       1.0  0.50238  0.65852  0.30187  1.0000
  H   H33       1.0  0.73789  0.79101  0.26706  1.0000
  H   H34       1.0  0.76210  0.29101  0.76706  1.0000
  H   H35       1.0  0.26211  0.20899  0.73294  1.0000
  H   H36       1.0  0.23789  0.70900  0.23294  1.0000
  H   H37       1.0  0.53419  0.69558  0.14175  1.0000
  H   H38       1.0  0.96582  0.19558  0.64176  1.0000
  H   H39       1.0  0.46582  0.30442  0.85825  1.0000
  H   H40       1.0  0.03417  0.80442  0.35825  1.0000
  C   C1        1.0  0.85093  0.95301  0.78119  1.0000
  C   C2        1.0  0.64907  0.45300  0.28119  1.0000
  C   C3        1.0  0.14907  0.04700  0.21881  1.0000
  C   C4        1.0  0.35093  0.54700  0.71881  1.0000
  C   C5        1.0  0.72782  0.99571  0.84756  1.0000
  C   C6        1.0  0.77218  0.49571  0.34755  1.0000
  C   C7        1.0  0.27217  0.00429  0.15245  1.0000
  C   C8        1.0  0.22783  0.50429  0.65245  1.0000
  C   C9        1.0  0.58398  0.02743  0.80749  1.0000
  C   C10       1.0  0.91602  0.52743  0.30750  1.0000
  C   C11       1.0  0.41601  0.97257  0.19251  1.0000
  C   C12       1.0  0.08398  0.47257  0.69250  1.0000
  C   C13       1.0  0.56709  0.01605  0.70155  1.0000
  C   C14       1.0  0.93291  0.51605  0.20155  1.0000
  C   C15       1.0  0.43291  0.98396  0.29845  1.0000
  C   C16       1.0  0.06709  0.48395  0.79845  1.0000
  C   C17       1.0  0.69438  0.97331  0.63969  1.0000
  C   C18       1.0  0.80563  0.47331  0.13969  1.0000
  C   C19       1.0  0.30562  0.02669  0.36032  1.0000
  C   C20       1.0  0.19438  0.52669  0.86031  1.0000
  C   C21       1.0  0.01154  0.76295  0.81183  1.0000
  C   C22       1.0  0.48846  0.26295  0.31183  1.0000
  C   C23       1.0  0.98846  0.23705  0.18817  1.0000
  C   C24       1.0  0.51154  0.73705  0.68817  1.0000
  C   C25       1.0  0.81769  0.73029  0.97719  1.0000
  C   C26       1.0  0.68231  0.23029  0.47719  1.0000
  C   C27       1.0  0.18231  0.26970  0.02281  1.0000
  C   C28       1.0  0.31769  0.76971  0.52281  1.0000
  C   C29       1.0  0.93957  0.77986  0.04190  1.0000
  C   C30       1.0  0.56043  0.27986  0.54190  1.0000
  C   C31       1.0  0.06043  0.22014  0.95810  1.0000
  C   C32       1.0  0.43957  0.72014  0.45810  1.0000
  C   C33       1.0  0.91069  0.80149  0.14659  1.0000
  C   C34       1.0  0.58932  0.30149  0.64659  1.0000
  C   C35       1.0  0.08932  0.19851  0.85341  1.0000
  C   C36       1.0  0.41068  0.69851  0.35341  1.0000
  C   C37       1.0  0.76362  0.77317  0.18546  1.0000
  C   C38       1.0  0.73638  0.27316  0.68546  1.0000
  C   C39       1.0  0.23638  0.22683  0.81453  1.0000
  C   C40       1.0  0.26361  0.72684  0.31454  1.0000
  C   C41       1.0  0.65052  0.72190  0.11732  1.0000
  C   C42       1.0  0.84949  0.22190  0.61732  1.0000
  C   C43       1.0  0.34948  0.27810  0.88268  1.0000
  C   C44       1.0  0.15050  0.77811  0.38268  1.0000
  S   S1        1.0  0.03202  0.91355  0.83448  1.0000
  S   S2        1.0  0.46798  0.41354  0.33447  1.0000
  S   S3        1.0  0.96798  0.08646  0.16552  1.0000
  S   S4        1.0  0.53202  0.58646  0.66552  1.0000
  S   S5        1.0  0.82631  0.70323  0.84400  1.0000
  S   S6        1.0  0.67369  0.20323  0.34400  1.0000
  S   S7        1.0  0.17370  0.29677  0.15600  1.0000
  S   S8        1.0  0.32630  0.79677  0.65600  1.0000
  N   N1        1.0  0.83388  0.94263  0.67809  1.0000
  N   N2        1.0  0.66612  0.44263  0.17809  1.0000
  N   N3        1.0  0.16611  0.05737  0.32191  1.0000
  N   N4        1.0  0.33389  0.55737  0.82191  1.0000
  N   N5        1.0  0.67711  0.70010  0.01576  1.0000
  N   N6        1.0  0.82289  0.20009  0.51576  1.0000
  N   N7        1.0  0.32289  0.29990  0.98424  1.0000
  N   N8        1.0  0.17711  0.79991  0.48425  1.0000
  Cl  Cl1       1.0  0.87425  0.70793  0.55735  1.0000
  Cl  Cl2       1.0  0.62575  0.20793  0.05735  1.0000
  Cl  Cl3       1.0  0.12574  0.29207  0.44266  1.0000
  Cl  Cl4       1.0  0.37425  0.79207  0.94266  1.0000
  Cl  Cl5       1.0  0.14858  0.03791  0.59699  1.0000
  Cl  Cl6       1.0  0.35142  0.53790  0.09699  1.0000
  Cl  Cl7       1.0  0.85142  0.96209  0.40301  1.0000
  Cl  Cl8       1.0  0.64858  0.46209  0.90300  1.0000
