data_image0
_chemical_formula_structural       Co2H48C42N8O8
_chemical_formula_sum              "Co2 H48 C42 N8 O8"
_cell_length_a       9.69621
_cell_length_b       10.1457
_cell_length_c       11.0315
_cell_angle_alpha    93.7644
_cell_angle_beta     97.8839
_cell_angle_gamma    101.286

_space_group_name_H-M_alt    "P 1"
_space_group_IT_number       1

loop_
  _space_group_symop_operation_xyz
  'x, y, z'

loop_
  _atom_site_type_symbol
  _atom_site_label
  _atom_site_symmetry_multiplicity
  _atom_site_fract_x
  _atom_site_fract_y
  _atom_site_fract_z
  _atom_site_occupancy
  Co  Co1       1.0  0.72328  0.61706  0.68723  1.0000
  Co  Co2       1.0  0.27672  0.38294  0.31277  1.0000
  H   H1        1.0  0.76117  0.10655  0.69323  1.0000
  H   H2        1.0  0.23883  0.89345  0.30678  1.0000
  H   H3        1.0  0.37758  0.26195  0.65663  1.0000
  H   H4        1.0  0.62242  0.73805  0.34337  1.0000
  H   H5        1.0  0.35445  0.83217  0.62624  1.0000
  H   H6        1.0  0.64555  0.16783  0.37376  1.0000
  H   H7        1.0  0.14592  0.10141  0.65936  1.0000
  H   H8        1.0  0.85408  0.89858  0.34064  1.0000
  H   H9        1.0  0.13746  0.92337  0.64433  1.0000
  H   H10       1.0  0.86255  0.07662  0.35567  1.0000
  H   H11       1.0  0.15119  0.01849  0.51478  1.0000
  H   H12       1.0  0.84882  0.98151  0.48522  1.0000
  H   H13       1.0  0.61720  0.43463  0.43419  1.0000
  H   H14       1.0  0.38280  0.56537  0.56581  1.0000
  H   H15       1.0  0.99821  0.72434  0.55023  1.0000
  H   H16       1.0  0.00178  0.27566  0.44977  1.0000
  H   H17       1.0  0.99915  0.61899  0.31207  1.0000
  H   H18       1.0  0.00085  0.38101  0.68793  1.0000
  H   H19       1.0  0.66157  0.34451  0.22722  1.0000
  H   H20       1.0  0.33843  0.65549  0.77278  1.0000
  H   H21       1.0  0.81949  0.41797  0.16942  1.0000
  H   H22       1.0  0.18051  0.58203  0.83058  1.0000
  H   H23       1.0  0.71847  0.61774  0.11934  1.0000
  H   H24       1.0  0.28152  0.38226  0.88066  1.0000
  H   H25       1.0  0.57976  0.56656  0.20658  1.0000
  H   H26       1.0  0.42024  0.43344  0.79342  1.0000
  H   H27       1.0  0.60777  0.41866  0.96250  1.0000
  H   H28       1.0  0.39222  0.58134  0.03751  1.0000
  H   H29       1.0  0.47881  0.36474  0.05725  1.0000
  H   H30       1.0  0.52119  0.63526  0.94275  1.0000
  H   H31       1.0  0.96195  0.88117  0.78468  1.0000
  H   H32       1.0  0.03806  0.11883  0.21532  1.0000
  H   H33       1.0  0.84856  0.51899  0.94655  1.0000
  H   H34       1.0  0.15144  0.48101  0.05345  1.0000
  H   H35       1.0  0.07077  0.69170  0.10572  1.0000
  H   H36       1.0  0.92922  0.30830  0.89427  1.0000
  H   H37       1.0  0.16780  0.96284  0.09844  1.0000
  H   H38       1.0  0.83220  0.03716  0.90156  1.0000
  H   H39       1.0  0.14548  0.01956  0.94961  1.0000
  H   H40       1.0  0.85453  0.98044  0.05039  1.0000
  H   H41       1.0  0.29589  0.85637  0.88207  1.0000
  H   H42       1.0  0.70410  0.14362  0.11793  1.0000
  H   H43       1.0  0.32799  0.81828  0.03662  1.0000
  H   H44       1.0  0.67201  0.18171  0.96338  1.0000
  H   H45       1.0  0.43283  0.06920  0.09767  1.0000
  H   H46       1.0  0.56717  0.93080  0.90233  1.0000
  H   H47       1.0  0.41188  0.09507  0.93963  1.0000
  H   H48       1.0  0.58812  0.90492  0.06037  1.0000
  C   C1        1.0  0.56479  0.95734  0.65933  1.0000
  C   C2        1.0  0.43521  0.04267  0.34068  1.0000
  C   C3        1.0  0.64544  0.08912  0.67915  1.0000
  C   C4        1.0  0.35456  0.91088  0.32086  1.0000
  C   C5        1.0  0.57814  0.19878  0.68101  1.0000
  C   C6        1.0  0.42186  0.80122  0.31900  1.0000
  C   C7        1.0  0.42907  0.17566  0.65910  1.0000
  C   C8        1.0  0.57093  0.82434  0.34091  1.0000
  C   C9        1.0  0.34619  0.04428  0.63999  1.0000
  C   C10       1.0  0.65381  0.95572  0.36002  1.0000
  C   C11       1.0  0.41597  0.93568  0.64144  1.0000
  C   C12       1.0  0.58403  0.06432  0.35856  1.0000
  C   C13       1.0  0.64059  0.84291  0.66086  1.0000
  C   C14       1.0  0.35941  0.15709  0.33914  1.0000
  C   C15       1.0  0.66827  0.33857  0.70796  1.0000
  C   C16       1.0  0.33173  0.66143  0.29204  1.0000
  C   C17       1.0  0.18648  0.02029  0.61423  1.0000
  C   C18       1.0  0.81352  0.97971  0.38577  1.0000
  C   C19       1.0  0.72102  0.49951  0.43642  1.0000
  C   C20       1.0  0.27897  0.50049  0.56358  1.0000
  C   C21       1.0  0.91863  0.64913  0.49082  1.0000
  C   C22       1.0  0.08137  0.35087  0.50919  1.0000
  C   C23       1.0  0.91872  0.59989  0.37185  1.0000
  C   C24       1.0  0.08128  0.40011  0.62815  1.0000
  C   C25       1.0  0.73206  0.44029  0.21571  1.0000
  C   C26       1.0  0.26794  0.55971  0.78429  1.0000
  C   C27       1.0  0.64592  0.52936  0.14434  1.0000
  C   C28       1.0  0.35408  0.47063  0.85567  1.0000
  C   C29       1.0  0.54700  0.45519  0.03047  1.0000
  C   C30       1.0  0.45300  0.54481  0.96953  1.0000
  C   C31       1.0  0.96068  0.80524  0.84932  1.0000
  C   C32       1.0  0.03933  0.19476  0.15068  1.0000
  C   C33       1.0  0.90400  0.62055  0.93772  1.0000
  C   C34       1.0  0.09600  0.37945  0.06227  1.0000
  C   C35       1.0  0.01269  0.70418  0.01687  1.0000
  C   C36       1.0  0.98731  0.29583  0.98312  1.0000
  C   C37       1.0  0.16570  0.93385  0.00037  1.0000
  C   C38       1.0  0.83430  0.06615  0.99963  1.0000
  C   C39       1.0  0.30615  0.89816  0.97833  1.0000
  C   C40       1.0  0.69385  0.10184  0.02166  1.0000
  C   C41       1.0  0.42902  0.01989  0.00493  1.0000
  C   C42       1.0  0.57098  0.98010  0.99507  1.0000
  N   N1        1.0  0.79515  0.58602  0.53012  1.0000
  N   N2        1.0  0.20485  0.41398  0.46988  1.0000
  N   N3        1.0  0.79298  0.50523  0.33905  1.0000
  N   N4        1.0  0.20702  0.49477  0.66095  1.0000
  N   N5        1.0  0.87190  0.68463  0.83370  1.0000
  N   N6        1.0  0.12810  0.31537  0.16629  1.0000
  N   N7        1.0  0.04634  0.82073  0.95918  1.0000
  N   N8        1.0  0.95366  0.17928  0.04081  1.0000
  O   O1        1.0  0.56986  0.72350  0.67469  1.0000
  O   O2        1.0  0.43014  0.27650  0.32531  1.0000
  O   O3        1.0  0.77128  0.86282  0.65271  1.0000
  O   O4        1.0  0.22872  0.13718  0.34729  1.0000
  O   O5        1.0  0.79920  0.35478  0.74623  1.0000
  O   O6        1.0  0.20081  0.64523  0.25375  1.0000
  O   O7        1.0  0.60296  0.43738  0.69058  1.0000
  O   O8        1.0  0.39703  0.56262  0.30942  1.0000
