data_image0
_chemical_formula_structural       Cd2P4H24C14N4O20
_chemical_formula_sum              "Cd2 P4 H24 C14 N4 O20"
_cell_length_a       8.6861
_cell_length_b       9.34858
_cell_length_c       10.1476
_cell_angle_alpha    70.0273
_cell_angle_beta     66.6089
_cell_angle_gamma    65.1937

_space_group_name_H-M_alt    "P 1"
_space_group_IT_number       1

loop_
  _space_group_symop_operation_xyz
  'x, y, z'

loop_
  _atom_site_type_symbol
  _atom_site_label
  _atom_site_symmetry_multiplicity
  _atom_site_fract_x
  _atom_site_fract_y
  _atom_site_fract_z
  _atom_site_occupancy
  Cd  Cd1       1.0  0.17439  0.35790  0.58260  1.0000
  Cd  Cd2       1.0  0.82562  0.64209  0.41739  1.0000
  P   P1        1.0  0.99393  0.76387  0.60037  1.0000
  P   P2        1.0  0.00607  0.23614  0.39962  1.0000
  P   P3        1.0  0.24749  0.53550  0.79014  1.0000
  P   P4        1.0  0.75251  0.46451  0.20986  1.0000
  H   H1        1.0  0.42222  0.10086  0.44653  1.0000
  H   H2        1.0  0.57780  0.89912  0.55348  1.0000
  H   H3        1.0  0.53422  0.21382  0.41057  1.0000
  H   H4        1.0  0.46579  0.78618  0.58942  1.0000
  H   H5        1.0  0.28257  0.63455  0.39568  1.0000
  H   H6        1.0  0.71744  0.36544  0.60432  1.0000
  H   H7        1.0  0.22878  0.58348  0.28976  1.0000
  H   H8        1.0  0.77123  0.41652  0.71023  1.0000
  H   H9        1.0  0.83142  0.02727  0.57527  1.0000
  H   H10       1.0  0.16857  0.97273  0.42473  1.0000
  H   H11       1.0  0.50940  0.55734  0.70314  1.0000
  H   H12       1.0  0.49060  0.44267  0.29687  1.0000
  H   H13       1.0  0.76394  0.72832  0.02874  1.0000
  H   H14       1.0  0.23604  0.27168  0.97126  1.0000
  H   H15       1.0  0.10076  0.90061  0.76142  1.0000
  H   H16       1.0  0.89923  0.09939  0.23859  1.0000
  H   H17       1.0  0.52023  0.86176  0.19340  1.0000
  H   H18       1.0  0.47976  0.13825  0.80659  1.0000
  H   H19       1.0  0.45541  0.15114  0.19293  1.0000
  H   H20       1.0  0.54459  0.84887  0.80706  1.0000
  H   H21       1.0  0.67664  0.28859  0.00857  1.0000
  H   H22       1.0  0.32338  0.71141  0.99143  1.0000
  H   H23       1.0  0.93311  0.63909  0.85789  1.0000
  H   H24       1.0  0.06688  0.36091  0.14212  1.0000
  C   C1        1.0  0.60565  0.93158  0.11644  1.0000
  C   C2        1.0  0.39436  0.06842  0.88356  1.0000
  C   C3        1.0  0.57399  0.08879  0.11591  1.0000
  C   C4        1.0  0.42600  0.91122  0.88409  1.0000
  C   C5        1.0  0.69648  0.16419  0.01283  1.0000
  C   C6        1.0  0.30352  0.83579  0.98718  1.0000
  C   C7        1.0  0.84691  0.08224  0.91490  1.0000
  C   C8        1.0  0.15308  0.91777  0.08510  1.0000
  C   C9        1.0  0.87335  0.91904  0.91870  1.0000
  C   C10       1.0  0.12664  0.08096  0.08131  1.0000
  C   C11       1.0  0.97367  0.16573  0.80413  1.0000
  C   C12       1.0  0.02634  0.83426  0.19587  1.0000
  C   C13       1.0  0.03359  0.69584  0.78149  1.0000
  C   C14       1.0  0.96641  0.30416  0.21851  1.0000
  N   N1        1.0  0.74963  0.85161  0.01955  1.0000
  N   N2        1.0  0.25037  0.14840  0.98044  1.0000
  N   N3        1.0  0.01622  0.83445  0.82683  1.0000
  N   N4        1.0  0.98379  0.16555  0.17316  1.0000
  O   O1        1.0  0.44617  0.16606  0.48906  1.0000
  O   O2        1.0  0.55383  0.83394  0.51094  1.0000
  O   O3        1.0  0.12105  0.08726  0.72510  1.0000
  O   O4        1.0  0.87896  0.91271  0.27490  1.0000
  O   O5        1.0  0.30675  0.54143  0.35535  1.0000
  O   O6        1.0  0.69325  0.45857  0.64465  1.0000
  O   O7        1.0  0.92803  0.31867  0.79021  1.0000
  O   O8        1.0  0.07200  0.68131  0.20977  1.0000
  O   O9        1.0  0.95523  0.62881  0.58045  1.0000
  O   O10       1.0  0.04477  0.37119  0.41955  1.0000
  O   O11       1.0  0.81660  0.91369  0.61797  1.0000
  O   O12       1.0  0.18340  0.08631  0.38202  1.0000
  O   O13       1.0  0.15165  0.80927  0.48188  1.0000
  O   O14       1.0  0.84834  0.19073  0.51813  1.0000
  O   O15       1.0  0.37977  0.63637  0.73521  1.0000
  O   O16       1.0  0.62022  0.36363  0.26479  1.0000
  O   O17       1.0  0.30661  0.42995  0.68174  1.0000
  O   O18       1.0  0.69338  0.57006  0.31827  1.0000
  O   O19       1.0  0.23391  0.44558  0.94781  1.0000
  O   O20       1.0  0.76608  0.55443  0.05220  1.0000
