data_image0
_chemical_formula_structural       MnH28C26N6O6
_chemical_formula_sum              "Mn1 H28 C26 N6 O6"
_cell_length_a       8.83039
_cell_length_b       9.93932
_cell_length_c       11.7064
_cell_angle_alpha    62.4942
_cell_angle_beta     87.4666
_cell_angle_gamma    73.2803

_space_group_name_H-M_alt    "P 1"
_space_group_IT_number       1

loop_
  _space_group_symop_operation_xyz
  'x, y, z'

loop_
  _atom_site_type_symbol
  _atom_site_label
  _atom_site_symmetry_multiplicity
  _atom_site_fract_x
  _atom_site_fract_y
  _atom_site_fract_z
  _atom_site_occupancy
  Mn  Mn1       1.0  0.50000  0.50000  0.50000  1.0000
  H   H1        1.0  0.86030  0.42265  0.41467  1.0000
  H   H2        1.0  0.13971  0.57735  0.58534  1.0000
  H   H3        1.0  0.03059  0.24418  0.33690  1.0000
  H   H4        1.0  0.96942  0.75581  0.66310  1.0000
  H   H5        1.0  0.66697  0.01112  0.40574  1.0000
  H   H6        1.0  0.33303  0.98888  0.59426  1.0000
  H   H7        1.0  0.51017  0.19860  0.48391  1.0000
  H   H8        1.0  0.48982  0.80140  0.51609  1.0000
  H   H9        1.0  0.95339  0.88909  0.36130  1.0000
  H   H10       1.0  0.04661  0.11091  0.63870  1.0000
  H   H11       1.0  0.07533  0.01617  0.29535  1.0000
  H   H12       1.0  0.92467  0.98383  0.70465  1.0000
  H   H13       1.0  0.94230  0.99259  0.12519  1.0000
  H   H14       1.0  0.05770  0.00742  0.87481  1.0000
  H   H15       1.0  0.75371  0.05581  0.17246  1.0000
  H   H16       1.0  0.24629  0.94419  0.82754  1.0000
  H   H17       1.0  0.79544  0.31996  0.11308  1.0000
  H   H18       1.0  0.20456  0.68004  0.88692  1.0000
  H   H19       1.0  0.98171  0.25786  0.06100  1.0000
  H   H20       1.0  0.01829  0.74214  0.93900  1.0000
  H   H21       1.0  0.54233  0.32074  0.00129  1.0000
  H   H22       1.0  0.45767  0.67927  0.99870  1.0000
  H   H23       1.0  0.41554  0.40752  0.78200  1.0000
  H   H24       1.0  0.58446  0.59248  0.21800  1.0000
  H   H25       1.0  0.85013  0.38177  0.63053  1.0000
  H   H26       1.0  0.14987  0.61823  0.36947  1.0000
  H   H27       1.0  0.99340  0.29548  0.83958  1.0000
  H   H28       1.0  0.00660  0.70452  0.16042  1.0000
  C   C1        1.0  0.82076  0.32917  0.41303  1.0000
  C   C2        1.0  0.17924  0.67082  0.58697  1.0000
  C   C3        1.0  0.91498  0.23013  0.36668  1.0000
  C   C4        1.0  0.08502  0.76987  0.63332  1.0000
  C   C5        1.0  0.86136  0.11412  0.36008  1.0000
  C   C6        1.0  0.13864  0.88588  0.63991  1.0000
  C   C7        1.0  0.71364  0.10173  0.40507  1.0000
  C   C8        1.0  0.28636  0.89827  0.59492  1.0000
  C   C9        1.0  0.62684  0.20384  0.45104  1.0000
  C   C10       1.0  0.37316  0.79616  0.54895  1.0000
  C   C11       1.0  0.95148  0.01332  0.30076  1.0000
  C   C12       1.0  0.04852  0.98668  0.69924  1.0000
  C   C13       1.0  0.87356  0.07014  0.16468  1.0000
  C   C14       1.0  0.12644  0.92986  0.83532  1.0000
  C   C15       1.0  0.86167  0.24439  0.07096  1.0000
  C   C16       1.0  0.13833  0.75562  0.92904  1.0000
  C   C17       1.0  0.78026  0.30022  0.94020  1.0000
  C   C18       1.0  0.21974  0.69979  0.05980  1.0000
  C   C19       1.0  0.61509  0.33306  0.92125  1.0000
  C   C20       1.0  0.38491  0.66695  0.07875  1.0000
  C   C21       1.0  0.54333  0.38214  0.79962  1.0000
  C   C22       1.0  0.45667  0.61786  0.20038  1.0000
  C   C23       1.0  0.78422  0.36813  0.71401  1.0000
  C   C24       1.0  0.21578  0.63187  0.28599  1.0000
  C   C25       1.0  0.86489  0.31828  0.83288  1.0000
  C   C26       1.0  0.13511  0.68172  0.16712  1.0000
  N   N1        1.0  0.67774  0.31787  0.45444  1.0000
  N   N2        1.0  0.32226  0.68212  0.54556  1.0000
  N   N3        1.0  0.62587  0.40050  0.69645  1.0000
  N   N4        1.0  0.37413  0.59950  0.30355  1.0000
  N   N5        1.0  0.75936  0.68729  0.42934  1.0000
  N   N6        1.0  0.24063  0.31271  0.57066  1.0000
  O   O1        1.0  0.63338  0.66435  0.39711  1.0000
  O   O2        1.0  0.36662  0.33565  0.60289  1.0000
  O   O3        1.0  0.88066  0.66664  0.37187  1.0000
  O   O4        1.0  0.11933  0.33335  0.62813  1.0000
  O   O5        1.0  0.75586  0.73000  0.51533  1.0000
  O   O6        1.0  0.24414  0.27000  0.48467  1.0000
