data_image0
_chemical_formula_structural       Ag4H36C40S4N20Cl4O12
_chemical_formula_sum              "Ag4 H36 C40 S4 N20 Cl4 O12"
_cell_length_a       8.65632
_cell_length_b       12.2497
_cell_length_c       13.6955
_cell_angle_alpha    89.9998
_cell_angle_beta     90.0002
_cell_angle_gamma    102.701

_space_group_name_H-M_alt    "P 1"
_space_group_IT_number       1

loop_
  _space_group_symop_operation_xyz
  'x, y, z'

loop_
  _atom_site_type_symbol
  _atom_site_label
  _atom_site_symmetry_multiplicity
  _atom_site_fract_x
  _atom_site_fract_y
  _atom_site_fract_z
  _atom_site_occupancy
  Ag  Ag1       1.0  0.77778  0.92931  0.78610  1.0000
  Ag  Ag2       1.0  0.72223  0.07069  0.28610  1.0000
  Ag  Ag3       1.0  0.22223  0.07069  0.21390  1.0000
  Ag  Ag4       1.0  0.27778  0.92931  0.71390  1.0000
  H   H1        1.0  0.80174  0.80494  0.21943  1.0000
  H   H2        1.0  0.69826  0.19506  0.71943  1.0000
  H   H3        1.0  0.19826  0.19506  0.78057  1.0000
  H   H4        1.0  0.30174  0.80494  0.28057  1.0000
  H   H5        1.0  0.80089  0.70427  0.37787  1.0000
  H   H6        1.0  0.69911  0.29573  0.87787  1.0000
  H   H7        1.0  0.19911  0.29573  0.62213  1.0000
  H   H8        1.0  0.30089  0.70427  0.12213  1.0000
  H   H9        1.0  0.55495  0.39798  0.23997  1.0000
  H   H10       1.0  0.94506  0.60202  0.73997  1.0000
  H   H11       1.0  0.44505  0.60202  0.76003  1.0000
  H   H12       1.0  0.05495  0.39798  0.26003  1.0000
  H   H13       1.0  0.56610  0.49631  0.08128  1.0000
  H   H14       1.0  0.93390  0.50369  0.58128  1.0000
  H   H15       1.0  0.43390  0.50369  0.91873  1.0000
  H   H16       1.0  0.06611  0.49631  0.41873  1.0000
  H   H17       1.0  0.04220  0.95618  0.91176  1.0000
  H   H18       1.0  0.45780  0.04382  0.41176  1.0000
  H   H19       1.0  0.95780  0.04382  0.08824  1.0000
  H   H20       1.0  0.54220  0.95618  0.58824  1.0000
  H   H21       1.0  0.21472  0.92413  0.96427  1.0000
  H   H22       1.0  0.28528  0.07587  0.46427  1.0000
  H   H23       1.0  0.78528  0.07587  0.03573  1.0000
  H   H24       1.0  0.71473  0.92413  0.53573  1.0000
  H   H25       1.0  0.98653  0.77250  0.81975  1.0000
  H   H26       1.0  0.51347  0.22751  0.31975  1.0000
  H   H27       1.0  0.01347  0.22751  0.18025  1.0000
  H   H28       1.0  0.48653  0.77250  0.68025  1.0000
  H   H29       1.0  0.33690  0.78518  0.87655  1.0000
  H   H30       1.0  0.16310  0.21482  0.37655  1.0000
  H   H31       1.0  0.66310  0.21482  0.12345  1.0000
  H   H32       1.0  0.83690  0.78518  0.62345  1.0000
  H   H33       1.0  0.21715  0.69593  0.78168  1.0000
  H   H34       1.0  0.28285  0.30407  0.28168  1.0000
  H   H35       1.0  0.78285  0.30407  0.21832  1.0000
  H   H36       1.0  0.71715  0.69593  0.71832  1.0000
  C   C1        1.0  0.68660  0.65571  0.14144  1.0000
  C   C2        1.0  0.81339  0.34429  0.64143  1.0000
  C   C3        1.0  0.31339  0.34428  0.85856  1.0000
  C   C4        1.0  0.18661  0.65572  0.35856  1.0000
  C   C5        1.0  0.75324  0.71513  0.22382  1.0000
  C   C6        1.0  0.74676  0.28487  0.72382  1.0000
  C   C7        1.0  0.24676  0.28487  0.77618  1.0000
  C   C8        1.0  0.25324  0.71513  0.27618  1.0000
  C   C9        1.0  0.75061  0.65928  0.31266  1.0000
  C   C10       1.0  0.74939  0.34072  0.81266  1.0000
  C   C11       1.0  0.24939  0.34071  0.68734  1.0000
  C   C12       1.0  0.25061  0.65928  0.18734  1.0000
  C   C13       1.0  0.67865  0.54559  0.31762  1.0000
  C   C14       1.0  0.82135  0.45441  0.81762  1.0000
  C   C15       1.0  0.32135  0.45441  0.68238  1.0000
  C   C16       1.0  0.17865  0.54559  0.18238  1.0000
  C   C17       1.0  0.61109  0.48646  0.23524  1.0000
  C   C18       1.0  0.88891  0.51354  0.73524  1.0000
  C   C19       1.0  0.38891  0.51354  0.76476  1.0000
  C   C20       1.0  0.11109  0.48646  0.26476  1.0000
  C   C21       1.0  0.61609  0.54173  0.14627  1.0000
  C   C22       1.0  0.88391  0.45827  0.64627  1.0000
  C   C23       1.0  0.38391  0.45826  0.85373  1.0000
  C   C24       1.0  0.11609  0.54173  0.35373  1.0000
  C   C25       1.0  0.80047  0.78657  0.00364  1.0000
  C   C26       1.0  0.69953  0.21342  0.50364  1.0000
  C   C27       1.0  0.19953  0.21343  0.99636  1.0000
  C   C28       1.0  0.30047  0.78658  0.49636  1.0000
  C   C29       1.0  0.09579  0.88767  0.93650  1.0000
  C   C30       1.0  0.40420  0.11234  0.43650  1.0000
  C   C31       1.0  0.90421  0.11234  0.06350  1.0000
  C   C32       1.0  0.59580  0.88766  0.56350  1.0000
  C   C33       1.0  0.09783  0.80278  0.85871  1.0000
  C   C34       1.0  0.40217  0.19722  0.35871  1.0000
  C   C35       1.0  0.90217  0.19722  0.14129  1.0000
  C   C36       1.0  0.59783  0.80278  0.64129  1.0000
  C   C37       1.0  0.22542  0.76140  0.83667  1.0000
  C   C38       1.0  0.27458  0.23860  0.33667  1.0000
  C   C39       1.0  0.77457  0.23860  0.16333  1.0000
  C   C40       1.0  0.72542  0.76140  0.66333  1.0000
  S   S1        1.0  0.99143  0.82774  0.04725  1.0000
  S   S2        1.0  0.50856  0.17225  0.54725  1.0000
  S   S3        1.0  0.00856  0.17225  0.95275  1.0000
  S   S4        1.0  0.49144  0.82775  0.45275  1.0000
  N   N1        1.0  0.68482  0.71143  0.05063  1.0000
  N   N2        1.0  0.81517  0.28857  0.55062  1.0000
  N   N3        1.0  0.31517  0.28857  0.94938  1.0000
  N   N4        1.0  0.18483  0.71143  0.44937  1.0000
  N   N5        1.0  0.55156  0.69180  0.99451  1.0000
  N   N6        1.0  0.94844  0.30820  0.49451  1.0000
  N   N7        1.0  0.44844  0.30820  0.00549  1.0000
  N   N8        1.0  0.05156  0.69180  0.50549  1.0000
  N   N9        1.0  0.58533  0.75186  0.91690  1.0000
  N   N10       1.0  0.91467  0.24814  0.41691  1.0000
  N   N11       1.0  0.41467  0.24814  0.08310  1.0000
  N   N12       1.0  0.08533  0.75186  0.58310  1.0000
  N   N13       1.0  0.73732  0.81265  0.91966  1.0000
  N   N14       1.0  0.76268  0.18735  0.41966  1.0000
  N   N15       1.0  0.26268  0.18735  0.08034  1.0000
  N   N16       1.0  0.23732  0.81265  0.58034  1.0000
  N   N17       1.0  0.51925  0.05732  0.85343  1.0000
  N   N18       1.0  0.98074  0.94268  0.35343  1.0000
  N   N19       1.0  0.48075  0.94268  0.14657  1.0000
  N   N20       1.0  0.01925  0.05732  0.64657  1.0000
  Cl  Cl1       1.0  0.66983  0.47716  0.42852  1.0000
  Cl  Cl2       1.0  0.83017  0.52283  0.92852  1.0000
  Cl  Cl3       1.0  0.33017  0.52284  0.57148  1.0000
  Cl  Cl4       1.0  0.16983  0.47717  0.07148  1.0000
  O   O1        1.0  0.38599  0.07746  0.87038  1.0000
  O   O2        1.0  0.11401  0.92254  0.37037  1.0000
  O   O3        1.0  0.61401  0.92254  0.12962  1.0000
  O   O4        1.0  0.88599  0.07746  0.62963  1.0000
  O   O5        1.0  0.63797  0.09206  0.90611  1.0000
  O   O6        1.0  0.86203  0.90793  0.40611  1.0000
  O   O7        1.0  0.36203  0.90793  0.09388  1.0000
  O   O8        1.0  0.13797  0.09206  0.59389  1.0000
  O   O9        1.0  0.53490  0.99724  0.77647  1.0000
  O   O10       1.0  0.96510  0.00276  0.27647  1.0000
  O   O11       1.0  0.46510  0.00276  0.22353  1.0000
  O   O12       1.0  0.03490  0.99724  0.72353  1.0000
