data_image0
_chemical_formula_structural       Sn4H56C52S4N12Cl4
_chemical_formula_sum              "Sn4 H56 C52 S4 N12 Cl4"
_cell_length_a       8.42524
_cell_length_b       10.3654
_cell_length_c       17.105
_cell_angle_alpha    90.0001
_cell_angle_beta     91.5984
_cell_angle_gamma    90.0001

_space_group_name_H-M_alt    "P 1"
_space_group_IT_number       1

loop_
  _space_group_symop_operation_xyz
  'x, y, z'

loop_
  _atom_site_type_symbol
  _atom_site_label
  _atom_site_symmetry_multiplicity
  _atom_site_fract_x
  _atom_site_fract_y
  _atom_site_fract_z
  _atom_site_occupancy
  Sn  Sn1       1.0  0.33885  0.26938  0.92867  1.0000
  Sn  Sn2       1.0  0.66115  0.76937  0.57134  1.0000
  Sn  Sn3       1.0  0.66115  0.73063  0.07134  1.0000
  Sn  Sn4       1.0  0.33885  0.23062  0.42866  1.0000
  H   H1        1.0  0.52157  0.48522  0.92846  1.0000
  H   H2        1.0  0.47843  0.98522  0.57154  1.0000
  H   H3        1.0  0.47843  0.51478  0.07154  1.0000
  H   H4        1.0  0.52157  0.01478  0.42846  1.0000
  H   H5        1.0  0.35322  0.50274  0.86198  1.0000
  H   H6        1.0  0.64678  0.00274  0.63802  1.0000
  H   H7        1.0  0.64678  0.49726  0.13802  1.0000
  H   H8        1.0  0.35323  0.99726  0.36198  1.0000
  H   H9        1.0  0.52192  0.41015  0.83374  1.0000
  H   H10       1.0  0.47808  0.91015  0.66627  1.0000
  H   H11       1.0  0.47808  0.58985  0.16627  1.0000
  H   H12       1.0  0.52192  0.08985  0.33373  1.0000
  H   H13       1.0  0.27052  0.01861  0.93111  1.0000
  H   H14       1.0  0.72949  0.51861  0.56889  1.0000
  H   H15       1.0  0.72949  0.98139  0.06889  1.0000
  H   H16       1.0  0.27051  0.48139  0.43111  1.0000
  H   H17       1.0  0.09321  0.10735  0.95142  1.0000
  H   H18       1.0  0.90680  0.60735  0.54858  1.0000
  H   H19       1.0  0.90680  0.89265  0.04858  1.0000
  H   H20       1.0  0.09320  0.39265  0.45142  1.0000
  H   H21       1.0  0.23981  0.08000  0.02772  1.0000
  H   H22       1.0  0.76019  0.58000  0.47228  1.0000
  H   H23       1.0  0.76019  0.92000  0.97228  1.0000
  H   H24       1.0  0.23981  0.42000  0.52772  1.0000
  H   H25       1.0  0.26641  0.16114  0.75770  1.0000
  H   H26       1.0  0.73359  0.66114  0.74230  1.0000
  H   H27       1.0  0.73359  0.83886  0.24230  1.0000
  H   H28       1.0  0.26641  0.33886  0.25770  1.0000
  H   H29       1.0  0.06444  0.15569  0.64861  1.0000
  H   H30       1.0  0.93556  0.65569  0.85139  1.0000
  H   H31       1.0  0.93556  0.84431  0.35139  1.0000
  H   H32       1.0  0.06444  0.34432  0.14861  1.0000
  H   H33       1.0  0.77919  0.41518  0.78517  1.0000
  H   H34       1.0  0.22082  0.91517  0.71483  1.0000
  H   H35       1.0  0.22081  0.58483  0.21483  1.0000
  H   H36       1.0  0.77919  0.08483  0.28517  1.0000
  H   H37       1.0  0.99388  0.40876  0.88828  1.0000
  H   H38       1.0  0.00612  0.90876  0.61172  1.0000
  H   H39       1.0  0.00611  0.59124  0.11172  1.0000
  H   H40       1.0  0.99389  0.09124  0.38828  1.0000
  H   H41       1.0  0.93886  0.23938  0.55082  1.0000
  H   H42       1.0  0.06113  0.73938  0.94918  1.0000
  H   H43       1.0  0.06114  0.76063  0.44918  1.0000
  H   H44       1.0  0.93887  0.26062  0.05082  1.0000
  H   H45       1.0  0.72306  0.22469  0.44982  1.0000
  H   H46       1.0  0.27694  0.72469  0.05018  1.0000
  H   H47       1.0  0.27694  0.77531  0.55018  1.0000
  H   H48       1.0  0.72306  0.27531  0.94982  1.0000
  H   H49       1.0  0.37669  0.29109  0.61267  1.0000
  H   H50       1.0  0.62331  0.79109  0.88733  1.0000
  H   H51       1.0  0.62331  0.70891  0.38733  1.0000
  H   H52       1.0  0.37669  0.20891  0.11267  1.0000
  H   H53       1.0  0.57645  0.30801  0.72107  1.0000
  H   H54       1.0  0.42355  0.80801  0.77893  1.0000
  H   H55       1.0  0.42355  0.69198  0.27893  1.0000
  H   H56       1.0  0.57645  0.19199  0.22107  1.0000
  C   C1        1.0  0.44861  0.43854  0.88267  1.0000
  C   C2        1.0  0.55139  0.93854  0.61733  1.0000
  C   C3        1.0  0.55140  0.56146  0.11733  1.0000
  C   C4        1.0  0.44861  0.06146  0.38267  1.0000
  C   C5        1.0  0.22049  0.09753  0.96503  1.0000
  C   C6        1.0  0.77951  0.59753  0.53497  1.0000
  C   C7        1.0  0.77951  0.90247  0.03497  1.0000
  C   C8        1.0  0.22049  0.40247  0.46503  1.0000
  C   C9        1.0  0.15568  0.21529  0.76082  1.0000
  C   C10       1.0  0.84432  0.71529  0.73918  1.0000
  C   C11       1.0  0.84432  0.78470  0.23918  1.0000
  C   C12       1.0  0.15568  0.28471  0.26082  1.0000
  C   C13       1.0  0.04224  0.21302  0.70056  1.0000
  C   C14       1.0  0.95776  0.71302  0.79944  1.0000
  C   C15       1.0  0.95776  0.78698  0.29944  1.0000
  C   C16       1.0  0.04224  0.28698  0.20056  1.0000
  C   C17       1.0  0.90163  0.28379  0.70772  1.0000
  C   C18       1.0  0.09837  0.78379  0.79228  1.0000
  C   C19       1.0  0.09838  0.71621  0.29228  1.0000
  C   C20       1.0  0.90163  0.21621  0.20772  1.0000
  C   C21       1.0  0.88440  0.35648  0.77620  1.0000
  C   C22       1.0  0.11560  0.85648  0.72380  1.0000
  C   C23       1.0  0.11560  0.64352  0.22380  1.0000
  C   C24       1.0  0.88440  0.14352  0.27620  1.0000
  C   C25       1.0  0.00373  0.35402  0.83400  1.0000
  C   C26       1.0  0.99627  0.85402  0.66600  1.0000
  C   C27       1.0  0.99626  0.64597  0.16600  1.0000
  C   C28       1.0  0.00374  0.14598  0.33400  1.0000
  C   C29       1.0  0.77708  0.27767  0.64541  1.0000
  C   C30       1.0  0.22292  0.77767  0.85459  1.0000
  C   C31       1.0  0.22292  0.72233  0.35459  1.0000
  C   C32       1.0  0.77708  0.22233  0.14541  1.0000
  C   C33       1.0  0.81625  0.25301  0.56759  1.0000
  C   C34       1.0  0.18375  0.75301  0.93241  1.0000
  C   C35       1.0  0.18375  0.74699  0.43241  1.0000
  C   C36       1.0  0.81625  0.24699  0.06759  1.0000
  C   C37       1.0  0.69624  0.24399  0.51064  1.0000
  C   C38       1.0  0.30376  0.74399  0.98935  1.0000
  C   C39       1.0  0.30376  0.75602  0.48936  1.0000
  C   C40       1.0  0.69624  0.25601  0.01064  1.0000
  C   C41       1.0  0.50281  0.28170  0.60148  1.0000
  C   C42       1.0  0.49719  0.78170  0.89852  1.0000
  C   C43       1.0  0.49718  0.71830  0.39852  1.0000
  C   C44       1.0  0.50282  0.21830  0.10148  1.0000
  C   C45       1.0  0.61580  0.29271  0.66171  1.0000
  C   C46       1.0  0.38420  0.79271  0.83829  1.0000
  C   C47       1.0  0.38420  0.70729  0.33829  1.0000
  C   C48       1.0  0.61581  0.20729  0.16171  1.0000
  C   C49       1.0  0.60982  0.09384  0.83702  1.0000
  C   C50       1.0  0.39015  0.59382  0.66297  1.0000
  C   C51       1.0  0.39017  0.90616  0.16298  1.0000
  C   C52       1.0  0.60983  0.40617  0.33703  1.0000
  S   S1        1.0  0.77493  0.02095  0.82396  1.0000
  S   S2        1.0  0.22505  0.52094  0.67604  1.0000
  S   S3        1.0  0.22507  0.97905  0.17604  1.0000
  S   S4        1.0  0.77493  0.47905  0.32396  1.0000
  N   N1        1.0  0.13696  0.28391  0.82663  1.0000
  N   N2        1.0  0.86304  0.78391  0.67338  1.0000
  N   N3        1.0  0.86304  0.71609  0.17338  1.0000
  N   N4        1.0  0.13696  0.21609  0.32662  1.0000
  N   N5        1.0  0.54205  0.25801  0.52710  1.0000
  N   N6        1.0  0.45794  0.75801  0.97290  1.0000
  N   N7        1.0  0.45795  0.74199  0.47290  1.0000
  N   N8        1.0  0.54206  0.24199  0.02710  1.0000
  N   N9        1.0  0.48588  0.14793  0.84509  1.0000
  N   N10       1.0  0.51411  0.64792  0.65491  1.0000
  N   N11       1.0  0.51413  0.85208  0.15491  1.0000
  N   N12       1.0  0.48588  0.35208  0.34509  1.0000
  Cl  Cl1       1.0  0.18591  0.41324  0.02293  1.0000
  Cl  Cl2       1.0  0.81409  0.91324  0.47707  1.0000
  Cl  Cl3       1.0  0.81410  0.58676  0.97707  1.0000
  Cl  Cl4       1.0  0.18591  0.08676  0.52293  1.0000
