data_image0
_chemical_formula_structural       Cd2H48C66N16O12
_chemical_formula_sum              "Cd2 H48 C66 N16 O12"
_cell_length_a       10.7707
_cell_length_b       13.4539
_cell_length_c       15.9124
_cell_angle_alpha    88.6088
_cell_angle_beta     89.0629
_cell_angle_gamma    64.7512

_space_group_name_H-M_alt    "P 1"
_space_group_IT_number       1

loop_
  _space_group_symop_operation_xyz
  'x, y, z'

loop_
  _atom_site_type_symbol
  _atom_site_label
  _atom_site_symmetry_multiplicity
  _atom_site_fract_x
  _atom_site_fract_y
  _atom_site_fract_z
  _atom_site_occupancy
  Cd  Cd1       1.0  0.62322  0.98009  0.74190  1.0000
  Cd  Cd2       1.0  0.37678  0.01991  0.25810  1.0000
  H   H1        1.0  0.50941  0.22583  0.66948  1.0000
  H   H2        1.0  0.49060  0.77417  0.33052  1.0000
  H   H3        1.0  0.48542  0.33116  0.53391  1.0000
  H   H4        1.0  0.51459  0.66884  0.46609  1.0000
  H   H5        1.0  0.65369  0.02110  0.40649  1.0000
  H   H6        1.0  0.34630  0.97891  0.59351  1.0000
  H   H7        1.0  0.67268  0.92753  0.54788  1.0000
  H   H8        1.0  0.32732  0.07247  0.45212  1.0000
  H   H9        1.0  0.58299  0.18746  0.32222  1.0000
  H   H10       1.0  0.41702  0.81253  0.67778  1.0000
  H   H11       1.0  0.67418  0.43867  0.40731  1.0000
  H   H12       1.0  0.32582  0.56133  0.59269  1.0000
  H   H13       1.0  0.78672  0.56499  0.38479  1.0000
  H   H14       1.0  0.21329  0.43501  0.61520  1.0000
  H   H15       1.0  0.76135  0.66553  0.24896  1.0000
  H   H16       1.0  0.23865  0.33448  0.75104  1.0000
  H   H17       1.0  0.49589  0.54070  0.07690  1.0000
  H   H18       1.0  0.50411  0.45930  0.92310  1.0000
  H   H19       1.0  0.37166  0.42427  0.10326  1.0000
  H   H20       1.0  0.62834  0.57573  0.89674  1.0000
  H   H21       1.0  0.39027  0.32843  0.24254  1.0000
  H   H22       1.0  0.60974  0.67156  0.75746  1.0000
  H   H23       1.0  0.80331  0.67272  0.12353  1.0000
  H   H24       1.0  0.19668  0.32728  0.87647  1.0000
  H   H25       1.0  0.49671  0.74640  0.97763  1.0000
  H   H26       1.0  0.50328  0.25360  0.02237  1.0000
  H   H27       1.0  0.46475  0.86765  0.84947  1.0000
  H   H28       1.0  0.53525  0.13235  0.15053  1.0000
  H   H29       1.0  0.81432  0.91011  0.90167  1.0000
  H   H30       1.0  0.18568  0.08989  0.09833  1.0000
  H   H31       1.0  0.85872  0.79349  0.03285  1.0000
  H   H32       1.0  0.14127  0.20651  0.96714  1.0000
  H   H33       1.0  0.59205  0.16070  0.88327  1.0000
  H   H34       1.0  0.40795  0.83930  0.11673  1.0000
  H   H35       1.0  0.68957  0.29320  0.92001  1.0000
  H   H36       1.0  0.31043  0.70680  0.07999  1.0000
  H   H37       1.0  0.99167  0.15132  0.72390  1.0000
  H   H38       1.0  0.00833  0.84867  0.27610  1.0000
  H   H39       1.0  0.88496  0.02167  0.69694  1.0000
  H   H40       1.0  0.11504  0.97833  0.30306  1.0000
  H   H41       1.0  0.98898  0.30767  0.79564  1.0000
  H   H42       1.0  0.01102  0.69233  0.20436  1.0000
  H   H43       1.0  0.91108  0.50229  0.78200  1.0000
  H   H44       1.0  0.08892  0.49771  0.21800  1.0000
  H   H45       1.0  0.89660  0.35262  0.05672  1.0000
  H   H46       1.0  0.10340  0.64738  0.94328  1.0000
  H   H47       1.0  0.02283  0.62688  0.80126  1.0000
  H   H48       1.0  0.97717  0.37312  0.19874  1.0000
  C   C1        1.0  0.54147  0.18360  0.60985  1.0000
  C   C2        1.0  0.45854  0.81640  0.39015  1.0000
  C   C3        1.0  0.52789  0.24176  0.53482  1.0000
  C   C4        1.0  0.47212  0.75824  0.46518  1.0000
  C   C5        1.0  0.56936  0.18371  0.45958  1.0000
  C   C6        1.0  0.43065  0.81629  0.54042  1.0000
  C   C7        1.0  0.62221  0.06873  0.46379  1.0000
  C   C8        1.0  0.37779  0.93127  0.53621  1.0000
  C   C9        1.0  0.63288  0.01671  0.54165  1.0000
  C   C10       1.0  0.36712  0.98329  0.45835  1.0000
  C   C11       1.0  0.56097  0.23917  0.37811  1.0000
  C   C12       1.0  0.43903  0.76083  0.62189  1.0000
  C   C13       1.0  0.52326  0.39236  0.29452  1.0000
  C   C14       1.0  0.47675  0.60764  0.70548  1.0000
  C   C15       1.0  0.58942  0.46436  0.28234  1.0000
  C   C16       1.0  0.41057  0.53564  0.71766  1.0000
  C   C17       1.0  0.66661  0.48108  0.34712  1.0000
  C   C18       1.0  0.33339  0.51892  0.65288  1.0000
  C   C19       1.0  0.72894  0.55130  0.33426  1.0000
  C   C20       1.0  0.27106  0.44870  0.66574  1.0000
  C   C21       1.0  0.71715  0.60658  0.25674  1.0000
  C   C22       1.0  0.28285  0.39342  0.74326  1.0000
  C   C23       1.0  0.64472  0.59053  0.19044  1.0000
  C   C24       1.0  0.35528  0.40947  0.80956  1.0000
  C   C25       1.0  0.57850  0.51837  0.20228  1.0000
  C   C26       1.0  0.42150  0.48163  0.79772  1.0000
  C   C27       1.0  0.50219  0.49997  0.13768  1.0000
  C   C28       1.0  0.49781  0.50003  0.86232  1.0000
  C   C29       1.0  0.43509  0.43360  0.15233  1.0000
  C   C30       1.0  0.56491  0.56640  0.84767  1.0000
  C   C31       1.0  0.44567  0.37895  0.23036  1.0000
  C   C32       1.0  0.55434  0.62105  0.76964  1.0000
  C   C33       1.0  0.70847  0.68820  0.08968  1.0000
  C   C34       1.0  0.29153  0.31180  0.91032  1.0000
  C   C35       1.0  0.68143  0.75936  0.01518  1.0000
  C   C36       1.0  0.31858  0.24064  0.98481  1.0000
  C   C37       1.0  0.56794  0.78251  0.96306  1.0000
  C   C38       1.0  0.43206  0.21749  0.03694  1.0000
  C   C39       1.0  0.55030  0.84894  0.89223  1.0000
  C   C40       1.0  0.44970  0.15107  0.10777  1.0000
  C   C41       1.0  0.74571  0.87314  0.92146  1.0000
  C   C42       1.0  0.25429  0.12686  0.07854  1.0000
  C   C43       1.0  0.77040  0.80778  0.99372  1.0000
  C   C44       1.0  0.22959  0.19223  0.00628  1.0000
  C   C45       1.0  0.68199  0.16016  0.85052  1.0000
  C   C46       1.0  0.31801  0.83984  0.14948  1.0000
  C   C47       1.0  0.73523  0.23406  0.87038  1.0000
  C   C48       1.0  0.26477  0.76594  0.12962  1.0000
  C   C49       1.0  0.84736  0.23358  0.82388  1.0000
  C   C50       1.0  0.15264  0.76642  0.17612  1.0000
  C   C51       1.0  0.90242  0.15626  0.75998  1.0000
  C   C52       1.0  0.09758  0.84374  0.24002  1.0000
  C   C53       1.0  0.84418  0.08402  0.74515  1.0000
  C   C54       1.0  0.15582  0.91598  0.25485  1.0000
  C   C55       1.0  0.90762  0.31038  0.83963  1.0000
  C   C56       1.0  0.09238  0.68962  0.16037  1.0000
  C   C57       1.0  0.92858  0.44934  0.91191  1.0000
  C   C58       1.0  0.07142  0.55066  0.08809  1.0000
  C   C59       1.0  0.94672  0.50977  0.84426  1.0000
  C   C60       1.0  0.05328  0.49024  0.15574  1.0000
  C   C61       1.0  0.96741  0.46396  0.99498  1.0000
  C   C62       1.0  0.03259  0.53604  0.00502  1.0000
  C   C63       1.0  0.94734  0.40634  0.06576  1.0000
  C   C64       1.0  0.05265  0.59367  0.93424  1.0000
  C   C65       1.0  0.00880  0.58171  0.85561  1.0000
  C   C66       1.0  0.99120  0.41829  0.14439  1.0000
  N   N1        1.0  0.59336  0.07272  0.61355  1.0000
  N   N2        1.0  0.40664  0.92728  0.38645  1.0000
  N   N3        1.0  0.53452  0.34166  0.37333  1.0000
  N   N4        1.0  0.46548  0.65834  0.62667  1.0000
  N   N5        1.0  0.62483  0.64751  0.11376  1.0000
  N   N6        1.0  0.37517  0.35249  0.88624  1.0000
  N   N7        1.0  0.63822  0.89309  0.87111  1.0000
  N   N8        1.0  0.36178  0.10692  0.12889  1.0000
  N   N9        1.0  0.73517  0.08616  0.78906  1.0000
  N   N10       1.0  0.26483  0.91384  0.21094  1.0000
  N   N11       1.0  0.87093  0.37485  0.90282  1.0000
  N   N12       1.0  0.12907  0.62515  0.09718  1.0000
  N   N13       1.0  0.32639  0.09451  0.76624  1.0000
  N   N14       1.0  0.67361  0.90549  0.23377  1.0000
  N   N15       1.0  0.81507  0.77005  0.68194  1.0000
  N   N16       1.0  0.18492  0.22995  0.31807  1.0000
  O   O1        1.0  0.40830  0.13392  0.79130  1.0000
  O   O2        1.0  0.59170  0.86608  0.20870  1.0000
  O   O3        1.0  0.37866  0.99903  0.73343  1.0000
  O   O4        1.0  0.62134  0.00097  0.26657  1.0000
  O   O5        1.0  0.19954  0.14789  0.77344  1.0000
  O   O6        1.0  0.80046  0.85211  0.22657  1.0000
  O   O7        1.0  0.86187  0.83577  0.71020  1.0000
  O   O8        1.0  0.13812  0.16423  0.28980  1.0000
  O   O9        1.0  0.68253  0.80731  0.67572  1.0000
  O   O10       1.0  0.31746  0.19267  0.32429  1.0000
  O   O11       1.0  0.89139  0.67493  0.66155  1.0000
  O   O12       1.0  0.10861  0.32507  0.33846  1.0000
