data_image0
_chemical_formula_structural       Zn4Mo2H16C24N4O18
_chemical_formula_sum              "Zn4 Mo2 H16 C24 N4 O18"
_cell_length_a       7.64115
_cell_length_b       9.65261
_cell_length_c       10.5507
_cell_angle_alpha    94.2341
_cell_angle_beta     105.22
_cell_angle_gamma    105.637

_space_group_name_H-M_alt    "P 1"
_space_group_IT_number       1

loop_
  _space_group_symop_operation_xyz
  'x, y, z'

loop_
  _atom_site_type_symbol
  _atom_site_label
  _atom_site_symmetry_multiplicity
  _atom_site_fract_x
  _atom_site_fract_y
  _atom_site_fract_z
  _atom_site_occupancy
  Zn  Zn1       1.0  0.78676  0.27366  0.83801  1.0000
  Zn  Zn2       1.0  0.21324  0.72634  0.16199  1.0000
  Zn  Zn3       1.0  0.18870  0.38960  0.37575  1.0000
  Zn  Zn4       1.0  0.81130  0.61040  0.62425  1.0000
  Mo  Mo1       1.0  0.16028  0.42438  0.70725  1.0000
  Mo  Mo2       1.0  0.83972  0.57562  0.29275  1.0000
  H   H1        1.0  0.90316  0.93376  0.18835  1.0000
  H   H2        1.0  0.09684  0.06624  0.81165  1.0000
  H   H3        1.0  0.64387  0.71500  0.04895  1.0000
  H   H4        1.0  0.35613  0.28500  0.95105  1.0000
  H   H5        1.0  0.43746  0.74073  0.83308  1.0000
  H   H6        1.0  0.56255  0.25927  0.16692  1.0000
  H   H7        1.0  0.25082  0.79439  0.66864  1.0000
  H   H8        1.0  0.74918  0.20561  0.33136  1.0000
  H   H9        1.0  0.08384  0.86097  0.45902  1.0000
  H   H10       1.0  0.91616  0.13903  0.54098  1.0000
  H   H11       1.0  0.22191  0.10566  0.39709  1.0000
  H   H12       1.0  0.77808  0.89433  0.60291  1.0000
  H   H13       1.0  0.59394  0.44716  0.87505  1.0000
  H   H14       1.0  0.40606  0.55284  0.12494  1.0000
  H   H15       1.0  0.81819  0.53169  0.92578  1.0000
  H   H16       1.0  0.18181  0.46831  0.07422  1.0000
  C   C1        1.0  0.99285  0.21226  0.11729  1.0000
  C   C2        1.0  0.00715  0.78774  0.88271  1.0000
  C   C3        1.0  0.84055  0.07356  0.04355  1.0000
  C   C4        1.0  0.15945  0.92644  0.95645  1.0000
  C   C5        1.0  0.81131  0.94194  0.09302  1.0000
  C   C6        1.0  0.18869  0.05806  0.90698  1.0000
  C   C7        1.0  0.66661  0.82063  0.01507  1.0000
  C   C8        1.0  0.33339  0.17938  0.98494  1.0000
  C   C9        1.0  0.55107  0.83495  0.89347  1.0000
  C   C10       1.0  0.44893  0.16505  0.10653  1.0000
  C   C11       1.0  0.58690  0.97126  0.85094  1.0000
  C   C12       1.0  0.41310  0.02874  0.14906  1.0000
  C   C13       1.0  0.47428  0.00190  0.72466  1.0000
  C   C14       1.0  0.52572  0.99809  0.27534  1.0000
  C   C15       1.0  0.30770  0.90092  0.64217  1.0000
  C   C16       1.0  0.69230  0.09908  0.35783  1.0000
  C   C17       1.0  0.21388  0.93871  0.52401  1.0000
  C   C18       1.0  0.78612  0.06129  0.47599  1.0000
  C   C19       1.0  0.28885  0.07413  0.49016  1.0000
  C   C20       1.0  0.71115  0.92587  0.50984  1.0000
  C   C21       1.0  0.45381  0.17114  0.57842  1.0000
  C   C22       1.0  0.54619  0.82886  0.42158  1.0000
  C   C23       1.0  0.54056  0.31917  0.54472  1.0000
  C   C24       1.0  0.45944  0.68083  0.45528  1.0000
  N   N1        1.0  0.73158  0.08537  0.92488  1.0000
  N   N2        1.0  0.26842  0.91463  0.07512  1.0000
  N   N3        1.0  0.54206  0.13533  0.69347  1.0000
  N   N4        1.0  0.45794  0.86467  0.30653  1.0000
  O   O1        1.0  0.39437  0.46846  0.81080  1.0000
  O   O2        1.0  0.60563  0.53155  0.18920  1.0000
  O   O3        1.0  0.14713  0.34235  0.54588  1.0000
  O   O4        1.0  0.85287  0.65765  0.45412  1.0000
  O   O5        1.0  0.00798  0.29192  0.77275  1.0000
  O   O6        1.0  0.99202  0.70808  0.22725  1.0000
  O   O7        1.0  0.08877  0.58406  0.69561  1.0000
  O   O8        1.0  0.91123  0.41594  0.30439  1.0000
  O   O9        1.0  0.01498  0.31882  0.05488  1.0000
  O   O10       1.0  0.98502  0.68118  0.94512  1.0000
  O   O11       1.0  0.72194  0.43575  0.92122  1.0000
  O   O12       1.0  0.27805  0.56425  0.07878  1.0000
  O   O13       1.0  0.69099  0.40074  0.63299  1.0000
  O   O14       1.0  0.30901  0.59926  0.36701  1.0000
  O   O15       1.0  0.46538  0.35068  0.43405  1.0000
  O   O16       1.0  0.53462  0.64932  0.56595  1.0000
  O   O17       1.0  0.08490  0.20976  0.23675  1.0000
  O   O18       1.0  0.91509  0.79024  0.76325  1.0000
