data_image0
_chemical_formula_structural       Ga2P2H8C2O8F2
_chemical_formula_sum              "Ga2 P2 H8 C2 O8 F2"
_cell_length_a       4.98805
_cell_length_b       7.1055
_cell_length_c       8.36661
_cell_angle_alpha    108.708
_cell_angle_beta     91.4356
_cell_angle_gamma    108.731

_space_group_name_H-M_alt    "P 1"
_space_group_IT_number       1

loop_
  _space_group_symop_operation_xyz
  'x, y, z'

loop_
  _atom_site_type_symbol
  _atom_site_label
  _atom_site_symmetry_multiplicity
  _atom_site_fract_x
  _atom_site_fract_y
  _atom_site_fract_z
  _atom_site_occupancy
  Ga  Ga1       1.0  0.00000  0.50000  0.00000  1.0000
  Ga  Ga2       1.0  0.50001  0.00000  1.00000  1.0000
  P   P1        1.0  0.47844  0.46521  0.22729  1.0000
  P   P2        1.0  0.52156  0.53479  0.77271  1.0000
  H   H1        1.0  0.81423  0.54547  0.46431  1.0000
  H   H2        1.0  0.18576  0.45453  0.53570  1.0000
  H   H3        1.0  0.63385  0.73042  0.50266  1.0000
  H   H4        1.0  0.36613  0.26958  0.49733  1.0000
  H   H5        1.0  0.76755  0.85341  0.17370  1.0000
  H   H6        1.0  0.23246  0.14658  0.82630  1.0000
  H   H7        1.0  0.98365  0.07452  0.17742  1.0000
  H   H8        1.0  0.01636  0.92548  0.82257  1.0000
  C   C1        1.0  0.60265  0.56049  0.45228  1.0000
  C   C2        1.0  0.39733  0.43951  0.54772  1.0000
  O   O1        1.0  0.71810  0.58341  0.14340  1.0000
  O   O2        1.0  0.28191  0.41659  0.85660  1.0000
  O   O3        1.0  0.40440  0.22163  0.16295  1.0000
  O   O4        1.0  0.59561  0.77837  0.83705  1.0000
  O   O5        1.0  0.20579  0.51682  0.20681  1.0000
  O   O6        1.0  0.79420  0.48318  0.79319  1.0000
  O   O7        1.0  0.78212  0.00128  0.18568  1.0000
  O   O8        1.0  0.21788  0.99872  0.81432  1.0000
  F   F1        1.0  0.80650  0.19327  0.93847  1.0000
  F   F2        1.0  0.19351  0.80673  0.06153  1.0000
