data_image0
_chemical_formula_structural       Zn2H52C68N4O8
_chemical_formula_sum              "Zn2 H52 C68 N4 O8"
_cell_length_a       7.2133
_cell_length_b       10.8915
_cell_length_c       19.5244
_cell_angle_alpha    92.5677
_cell_angle_beta     89.9604
_cell_angle_gamma    109.349

_space_group_name_H-M_alt    "P 1"
_space_group_IT_number       1

loop_
  _space_group_symop_operation_xyz
  'x, y, z'

loop_
  _atom_site_type_symbol
  _atom_site_label
  _atom_site_symmetry_multiplicity
  _atom_site_fract_x
  _atom_site_fract_y
  _atom_site_fract_z
  _atom_site_occupancy
  Zn  Zn1       1.0  0.90078  0.00004  0.75014  1.0000
  Zn  Zn2       1.0  0.09922  0.99996  0.24986  1.0000
  H   H1        1.0  0.57838  0.69661  0.88288  1.0000
  H   H2        1.0  0.88141  0.30327  0.61749  1.0000
  H   H3        1.0  0.42161  0.30339  0.11712  1.0000
  H   H4        1.0  0.11860  0.69674  0.38251  1.0000
  H   H5        1.0  0.43646  0.49556  0.94824  1.0000
  H   H6        1.0  0.94011  0.50414  0.55202  1.0000
  H   H7        1.0  0.56354  0.50443  0.05176  1.0000
  H   H8        1.0  0.05989  0.49587  0.44798  1.0000
  H   H9        1.0  0.38741  0.27815  0.89165  1.0000
  H   H10       1.0  0.10955  0.72165  0.60838  1.0000
  H   H11       1.0  0.61258  0.72184  0.10835  1.0000
  H   H12       1.0  0.89045  0.27835  0.39162  1.0000
  H   H13       1.0  0.48359  0.26183  0.76965  1.0000
  H   H14       1.0  0.22339  0.73815  0.73019  1.0000
  H   H15       1.0  0.51641  0.73816  0.23035  1.0000
  H   H16       1.0  0.77662  0.26186  0.26981  1.0000
  H   H17       1.0  0.62256  0.46089  0.70503  1.0000
  H   H18       1.0  0.16327  0.53918  0.79490  1.0000
  H   H19       1.0  0.37744  0.53911  0.29497  1.0000
  H   H20       1.0  0.83673  0.46083  0.20510  1.0000
  H   H21       1.0  0.56448  0.61481  0.65738  1.0000
  H   H22       1.0  0.94886  0.38534  0.84278  1.0000
  H   H23       1.0  0.43552  0.38519  0.34262  1.0000
  H   H24       1.0  0.05113  0.61466  0.15722  1.0000
  H   H25       1.0  0.42532  0.62927  0.56398  1.0000
  H   H26       1.0  0.79565  0.37091  0.93637  1.0000
  H   H27       1.0  0.57469  0.37072  0.43602  1.0000
  H   H28       1.0  0.20435  0.62909  0.06363  1.0000
  H   H29       1.0  0.39214  0.58203  0.43866  1.0000
  H   H30       1.0  0.80975  0.41818  0.06167  1.0000
  H   H31       1.0  0.60787  0.41797  0.56134  1.0000
  H   H32       1.0  0.19026  0.58183  0.93833  1.0000
  H   H33       1.0  0.66358  0.69808  0.36126  1.0000
  H   H34       1.0  0.96517  0.30226  0.13900  1.0000
  H   H35       1.0  0.33642  0.30192  0.63874  1.0000
  H   H36       1.0  0.03484  0.69774  0.86100  1.0000
  H   H37       1.0  0.96449  0.86372  0.40988  1.0000
  H   H38       1.0  0.10052  0.13664  0.09026  1.0000
  H   H39       1.0  0.03551  0.13629  0.59012  1.0000
  H   H40       1.0  0.89947  0.86336  0.90974  1.0000
  H   H41       1.0  0.99766  0.91195  0.53656  1.0000
  H   H42       1.0  0.08552  0.08843  0.96360  1.0000
  H   H43       1.0  0.00234  0.08805  0.46344  1.0000
  H   H44       1.0  0.91448  0.91157  0.03640  1.0000
  H   H45       1.0  0.20934  0.98043  0.85511  1.0000
  H   H46       1.0  0.22981  0.01987  0.64488  1.0000
  H   H47       1.0  0.79065  0.01957  0.14489  1.0000
  H   H48       1.0  0.77018  0.98012  0.35512  1.0000
  H   H49       1.0  0.56205  0.97569  0.85473  1.0000
  H   H50       1.0  0.58719  0.02437  0.64542  1.0000
  H   H51       1.0  0.43794  0.02431  0.14526  1.0000
  H   H52       1.0  0.41279  0.97563  0.35458  1.0000
  C   C1        1.0  0.55501  0.60073  0.85831  1.0000
  C   C2        1.0  0.95437  0.39920  0.64192  1.0000
  C   C3        1.0  0.44499  0.39927  0.14169  1.0000
  C   C4        1.0  0.04564  0.60080  0.35808  1.0000
  C   C5        1.0  0.47686  0.48828  0.89477  1.0000
  C   C6        1.0  0.98845  0.51154  0.60541  1.0000
  C   C7        1.0  0.52314  0.51171  0.10523  1.0000
  C   C8        1.0  0.01156  0.48846  0.39459  1.0000
  C   C9        1.0  0.44928  0.36579  0.86301  1.0000
  C   C10       1.0  0.08393  0.63406  0.63703  1.0000
  C   C11       1.0  0.55073  0.63420  0.13699  1.0000
  C   C12       1.0  0.91608  0.36594  0.36297  1.0000
  C   C13       1.0  0.50125  0.35658  0.79455  1.0000
  C   C14       1.0  0.14589  0.64339  0.70539  1.0000
  C   C15       1.0  0.49875  0.64342  0.20545  1.0000
  C   C16       1.0  0.85411  0.35661  0.29461  1.0000
  C   C17       1.0  0.57741  0.46871  0.75783  1.0000
  C   C18       1.0  0.11004  0.53135  0.74216  1.0000
  C   C19       1.0  0.42259  0.53128  0.24217  1.0000
  C   C20       1.0  0.88997  0.46866  0.25784  1.0000
  C   C21       1.0  0.60489  0.59211  0.78917  1.0000
  C   C22       1.0  0.01346  0.40793  0.71096  1.0000
  C   C23       1.0  0.39511  0.40789  0.21083  1.0000
  C   C24       1.0  0.98654  0.59207  0.28904  1.0000
  C   C25       1.0  0.69142  0.71383  0.75136  1.0000
  C   C26       1.0  0.97796  0.28631  0.74888  1.0000
  C   C27       1.0  0.30857  0.28617  0.24864  1.0000
  C   C28       1.0  0.02204  0.71369  0.25113  1.0000
  C   C29       1.0  0.65801  0.70767  0.67987  1.0000
  C   C30       1.0  0.95001  0.29254  0.82033  1.0000
  C   C31       1.0  0.34198  0.29233  0.32013  1.0000
  C   C32       1.0  0.04999  0.70747  0.17967  1.0000
  C   C33       1.0  0.74740  0.80537  0.63406  1.0000
  C   C34       1.0  0.94197  0.19494  0.86618  1.0000
  C   C35       1.0  0.25260  0.19462  0.36594  1.0000
  C   C36       1.0  0.05804  0.80506  0.13383  1.0000
  C   C37       1.0  0.71606  0.77328  0.55886  1.0000
  C   C38       1.0  0.94259  0.22705  0.94137  1.0000
  C   C39       1.0  0.28394  0.22672  0.44114  1.0000
  C   C40       1.0  0.05742  0.77296  0.05863  1.0000
  C   C41       1.0  0.54491  0.68045  0.53074  1.0000
  C   C42       1.0  0.86413  0.31978  0.96957  1.0000
  C   C43       1.0  0.45510  0.31955  0.46926  1.0000
  C   C44       1.0  0.13587  0.68023  0.03043  1.0000
  C   C45       1.0  0.52533  0.65457  0.45992  1.0000
  C   C46       1.0  0.87045  0.34567  0.04038  1.0000
  C   C47       1.0  0.47468  0.34542  0.54008  1.0000
  C   C48       1.0  0.12956  0.65434  0.95962  1.0000
  C   C49       1.0  0.67619  0.71986  0.41647  1.0000
  C   C50       1.0  0.95609  0.28047  0.08379  1.0000
  C   C51       1.0  0.32381  0.28014  0.58353  1.0000
  C   C52       1.0  0.04391  0.71954  0.91621  1.0000
  C   C53       1.0  0.84698  0.81287  0.44397  1.0000
  C   C54       1.0  0.03387  0.18748  0.05622  1.0000
  C   C55       1.0  0.15303  0.18713  0.55603  1.0000
  C   C56       1.0  0.96613  0.81252  0.94378  1.0000
  C   C57       1.0  0.86573  0.83945  0.51451  1.0000
  C   C58       1.0  0.02608  0.16091  0.98568  1.0000
  C   C59       1.0  0.13427  0.16055  0.48549  1.0000
  C   C60       1.0  0.97393  0.83909  0.01432  1.0000
  C   C61       1.0  0.29439  0.98858  0.80837  1.0000
  C   C62       1.0  0.30634  0.01167  0.69166  1.0000
  C   C63       1.0  0.70561  0.01142  0.19163  1.0000
  C   C64       1.0  0.69365  0.98833  0.30834  1.0000
  C   C65       1.0  0.48681  0.98705  0.80821  1.0000
  C   C66       1.0  0.50026  0.01313  0.69190  1.0000
  C   C67       1.0  0.51319  0.01295  0.19179  1.0000
  C   C68       1.0  0.49973  0.98687  0.30810  1.0000
  N   N1        1.0  0.20501  0.00012  0.75000  1.0000
  N   N2        1.0  0.79499  0.99988  0.25000  1.0000
  N   N3        1.0  0.58885  0.00006  0.75008  1.0000
  N   N4        1.0  0.41115  0.99993  0.24992  1.0000
  O   O1        1.0  0.79173  0.81520  0.78771  1.0000
  O   O2        1.0  0.97725  0.18492  0.71261  1.0000
  O   O3        1.0  0.20826  0.18480  0.21229  1.0000
  O   O4        1.0  0.02276  0.81508  0.28739  1.0000
  O   O5        1.0  0.86306  0.92105  0.65081  1.0000
  O   O6        1.0  0.94245  0.07938  0.84942  1.0000
  O   O7        1.0  0.13694  0.07895  0.34919  1.0000
  O   O8        1.0  0.05755  0.92063  0.15058  1.0000
