data_image0
_chemical_formula_structural       Cd2H36C44N8O8
_chemical_formula_sum              "Cd2 H36 C44 N8 O8"
_cell_length_a       7.55168
_cell_length_b       8.80831
_cell_length_c       16.1641
_cell_angle_alpha    104.782
_cell_angle_beta     102.351
_cell_angle_gamma    94.2587

_space_group_name_H-M_alt    "P 1"
_space_group_IT_number       1

loop_
  _space_group_symop_operation_xyz
  'x, y, z'

loop_
  _atom_site_type_symbol
  _atom_site_label
  _atom_site_symmetry_multiplicity
  _atom_site_fract_x
  _atom_site_fract_y
  _atom_site_fract_z
  _atom_site_occupancy
  Cd  Cd1       1.0  0.18715  0.87224  0.72143  1.0000
  Cd  Cd2       1.0  0.96613  0.15093  0.27862  1.0000
  H   H1        1.0  0.59819  0.98519  0.12601  1.0000
  H   H2        1.0  0.97225  0.85902  0.87421  1.0000
  H   H3        1.0  0.51159  0.79186  0.05314  1.0000
  H   H4        1.0  0.95882  0.73850  0.94702  1.0000
  H   H5        1.0  0.71668  0.89793  0.04726  1.0000
  H   H6        1.0  0.16983  0.85015  0.95277  1.0000
  H   H7        1.0  0.99654  0.82279  0.35005  1.0000
  H   H8        1.0  0.14653  0.47255  0.65010  1.0000
  H   H9        1.0  0.89485  0.51824  0.23609  1.0000
  H   H10       1.0  0.15951  0.28205  0.76417  1.0000
  H   H11       1.0  0.70950  0.62064  0.97751  1.0000
  H   H12       1.0  0.23264  0.64304  0.02245  1.0000
  H   H13       1.0  0.55417  0.38420  0.85501  1.0000
  H   H14       1.0  0.19961  0.52962  0.14511  1.0000
  H   H15       1.0  0.45677  0.13793  0.04157  1.0000
  H   H16       1.0  0.91527  0.09661  0.95875  1.0000
  H   H17       1.0  0.60456  0.37423  0.16519  1.0000
  H   H18       1.0  0.93936  0.20891  0.83496  1.0000
  H   H19       1.0  0.53768  0.76513  0.79917  1.0000
  H   H20       1.0  0.23801  0.96520  0.20070  1.0000
  H   H21       1.0  0.72181  0.77323  0.74720  1.0000
  H   H22       1.0  0.47435  0.02537  0.25250  1.0000
  H   H23       1.0  0.65354  0.59575  0.77261  1.0000
  H   H24       1.0  0.38056  0.82251  0.22727  1.0000
  H   H25       1.0  0.15136  0.67817  0.50509  1.0000
  H   H26       1.0  0.14717  0.17295  0.49480  1.0000
  H   H27       1.0  0.31220  0.40431  0.46432  1.0000
  H   H28       1.0  0.34879  0.93993  0.53571  1.0000
  H   H29       1.0  0.44622  0.33069  0.70831  1.0000
  H   H30       1.0  0.23754  0.62180  0.29166  1.0000
  H   H31       1.0  0.63082  0.11818  0.73199  1.0000
  H   H32       1.0  0.39833  0.38556  0.26793  1.0000
  H   H33       1.0  0.89140  0.17233  0.52718  1.0000
  H   H34       1.0  0.86444  0.64424  0.47267  1.0000
  H   H35       1.0  0.71635  0.39345  0.50743  1.0000
  H   H36       1.0  0.70941  0.88532  0.49250  1.0000
  C   C1        1.0  0.63595  0.87220  0.09233  1.0000
  C   C2        1.0  0.04377  0.77958  0.90776  1.0000
  C   C3        1.0  0.74293  0.80496  0.15935  1.0000
  C   C4        1.0  0.08339  0.64530  0.84066  1.0000
  C   C5        1.0  0.91365  0.78318  0.28291  1.0000
  C   C6        1.0  0.13074  0.50003  0.71719  1.0000
  C   C7        1.0  0.86011  0.63237  0.22924  1.0000
  C   C8        1.0  0.13124  0.40293  0.77091  1.0000
  C   C9        1.0  0.66388  0.51346  0.07892  1.0000
  C   C10       1.0  0.08516  0.43447  0.92116  1.0000
  C   C11       1.0  0.65050  0.51638  0.99166  1.0000
  C   C12       1.0  0.15915  0.52478  0.00840  1.0000
  C   C13       1.0  0.56494  0.38341  0.92311  1.0000
  C   C14       1.0  0.14217  0.46060  0.07703  1.0000
  C   C15       1.0  0.49583  0.24587  0.94058  1.0000
  C   C16       1.0  0.05557  0.30558  0.05959  1.0000
  C   C17       1.0  0.51220  0.24445  0.02829  1.0000
  C   C18       1.0  0.98409  0.21634  0.97190  1.0000
  C   C19       1.0  0.59404  0.37739  0.09736  1.0000
  C   C20       1.0  0.99674  0.28002  0.90277  1.0000
  C   C21       1.0  0.40421  0.10184  0.86737  1.0000
  C   C22       1.0  0.03728  0.23462  0.13273  1.0000
  C   C23       1.0  0.60349  0.69581  0.75043  1.0000
  C   C24       1.0  0.35284  0.94477  0.24941  1.0000
  C   C25       1.0  0.47354  0.64207  0.66245  1.0000
  C   C26       1.0  0.31132  0.97914  0.33745  1.0000
  C   C27       1.0  0.26144  0.63741  0.54509  1.0000
  C   C28       1.0  0.21736  0.09226  0.45487  1.0000
  C   C29       1.0  0.33944  0.50200  0.52364  1.0000
  C   C30       1.0  0.31665  0.97818  0.47633  1.0000
  C   C31       1.0  0.54806  0.29919  0.67060  1.0000
  C   C32       1.0  0.37724  0.62797  0.32935  1.0000
  C   C33       1.0  0.57516  0.37817  0.60859  1.0000
  C   C34       1.0  0.46667  0.76897  0.39130  1.0000
  C   C35       1.0  0.65059  0.17859  0.68309  1.0000
  C   C36       1.0  0.46715  0.49482  0.31687  1.0000
  C   C37       1.0  0.77741  0.13407  0.63264  1.0000
  C   C38       1.0  0.64456  0.50071  0.36726  1.0000
  C   C39       1.0  0.79479  0.20838  0.56723  1.0000
  C   C40       1.0  0.72763  0.64037  0.43271  1.0000
  C   C41       1.0  0.69590  0.33160  0.55557  1.0000
  C   C42       1.0  0.64053  0.77534  0.44436  1.0000
  C   C43       1.0  0.90460  0.01896  0.65396  1.0000
  C   C44       1.0  0.75001  0.36406  0.34576  1.0000
  N   N1        1.0  0.84110  0.88904  0.23921  1.0000
  N   N2        1.0  0.10156  0.64953  0.76082  1.0000
  N   N3        1.0  0.75227  0.64637  0.15092  1.0000
  N   N4        1.0  0.10163  0.49526  0.84917  1.0000
  N   N5        1.0  0.34562  0.72388  0.63082  1.0000
  N   N6        1.0  0.21541  0.09280  0.36910  1.0000
  N   N7        1.0  0.47289  0.50542  0.59837  1.0000
  N   N8        1.0  0.37485  0.90656  0.40153  1.0000
  O   O1        1.0  0.37826  0.97000  0.88369  1.0000
  O   O2        1.0  0.99577  0.08637  0.11639  1.0000
  O   O3        1.0  0.35252  0.11925  0.78933  1.0000
  O   O4        1.0  0.06300  0.33002  0.21074  1.0000
  O   O5        1.0  0.90807  0.97901  0.72517  1.0000
  O   O6        1.0  0.68194  0.25323  0.27445  1.0000
  O   O7        1.0  0.01153  0.97241  0.60427  1.0000
  O   O8        1.0  0.90673  0.36682  0.39539  1.0000
