data_image0
_chemical_formula_structural       FeH16PdC20S2N12
_chemical_formula_sum              "Fe1 H16 Pd1 C20 S2 N12"
_cell_length_a       7.12071
_cell_length_b       7.41151
_cell_length_c       12.3998
_cell_angle_alpha    103.814
_cell_angle_beta     100.052
_cell_angle_gamma    87.5487

_space_group_name_H-M_alt    "P 1"
_space_group_IT_number       1

loop_
  _space_group_symop_operation_xyz
  'x, y, z'

loop_
  _atom_site_type_symbol
  _atom_site_label
  _atom_site_symmetry_multiplicity
  _atom_site_fract_x
  _atom_site_fract_y
  _atom_site_fract_z
  _atom_site_occupancy
  Fe  Fe1       1.0  0.98941  0.49160  0.00068  1.0000
  H   H1        1.0  0.13076  0.59663  0.43067  1.0000
  H   H2        1.0  0.86585  0.40242  0.57196  1.0000
  H   H3        1.0  0.23016  0.85374  0.54422  1.0000
  H   H4        1.0  0.77072  0.14295  0.45422  1.0000
  H   H5        1.0  0.11382  0.89181  0.17500  1.0000
  H   H6        1.0  0.88137  0.09522  0.82153  1.0000
  H   H7        1.0  0.46089  0.39551  0.85304  1.0000
  H   H8        1.0  0.53056  0.60093  0.14601  1.0000
  H   H9        1.0  0.34902  0.05588  0.74947  1.0000
  H   H10       1.0  0.64827  0.93906  0.24787  1.0000
  H   H11       1.0  0.35277  0.74667  0.75991  1.0000
  H   H12       1.0  0.63685  0.24951  0.23769  1.0000
  H   H13       1.0  0.47782  0.71584  0.64323  1.0000
  H   H14       1.0  0.52330  0.28224  0.35899  1.0000
  H   H15       1.0  0.59936  0.69276  0.77678  1.0000
  H   H16       1.0  0.39099  0.30531  0.22800  1.0000
  Pd  Pd1       1.0  0.51658  0.01705  0.00270  1.0000
  C   C1        1.0  0.70977  0.81700  0.99726  1.0000
  C   C2        1.0  0.31022  0.20367  0.00610  1.0000
  C   C3        1.0  0.32803  0.82262  0.98663  1.0000
  C   C4        1.0  0.70624  0.21317  0.01706  1.0000
  C   C5        1.0  0.11430  0.62937  0.34904  1.0000
  C   C6        1.0  0.88061  0.36672  0.65272  1.0000
  C   C7        1.0  0.30627  0.14213  0.59018  1.0000
  C   C8        1.0  0.69332  0.85424  0.40767  1.0000
  C   C9        1.0  0.24150  0.97535  0.50969  1.0000
  C   C10       1.0  0.75924  0.02071  0.48814  1.0000
  C   C11       1.0  0.10457  0.78118  0.21717  1.0000
  C   C12       1.0  0.88974  0.20889  0.78160  1.0000
  C   C13       1.0  0.41787  0.34884  0.76227  1.0000
  C   C14       1.0  0.57660  0.64735  0.23658  1.0000
  C   C15       1.0  0.41586  0.46463  0.68948  1.0000
  C   C16       1.0  0.57943  0.53245  0.30999  1.0000
  C   C17       1.0  0.35644  0.16683  0.70646  1.0000
  C   C18       1.0  0.64065  0.82899  0.29153  1.0000
  C   C19       1.0  0.46393  0.66582  0.71786  1.0000
  C   C20       1.0  0.53015  0.33170  0.28320  1.0000
  S   S1        1.0  0.33851  0.34751  0.55153  1.0000
  S   S2        1.0  0.66007  0.65005  0.44740  1.0000
  N   N1        1.0  0.81005  0.68686  0.99327  1.0000
  N   N2        1.0  0.18691  0.31357  0.00805  1.0000
  N   N3        1.0  0.05798  0.60570  0.16945  1.0000
  N   N4        1.0  0.93102  0.38467  0.83174  1.0000
  N   N5        1.0  0.06314  0.50928  0.25216  1.0000
  N   N6        1.0  0.92636  0.48494  0.75094  1.0000
  N   N7        1.0  0.14257  0.80240  0.33125  1.0000
  N   N8        1.0  0.85545  0.19119  0.66783  1.0000
  N   N9        1.0  0.22026  0.70353  0.97815  1.0000
  N   N10       1.0  0.81396  0.32912  0.01804  1.0000
  N   N11       1.0  0.20001  0.97079  0.40275  1.0000
  N   N12       1.0  0.80044  0.02361  0.59485  1.0000
