data_image0
_chemical_formula_structural       FeH16PdC20S2N12
_chemical_formula_sum              "Fe1 H16 Pd1 C20 S2 N12"
_cell_length_a       7.02519
_cell_length_b       7.50913
_cell_length_c       12.3823
_cell_angle_alpha    100.88
_cell_angle_beta     100.55
_cell_angle_gamma    93.0113

_space_group_name_H-M_alt    "P 1"
_space_group_IT_number       1

loop_
  _space_group_symop_operation_xyz
  'x, y, z'

loop_
  _atom_site_type_symbol
  _atom_site_label
  _atom_site_symmetry_multiplicity
  _atom_site_fract_x
  _atom_site_fract_y
  _atom_site_fract_z
  _atom_site_occupancy
  Fe  Fe1       1.0  0.48627  0.50967  0.50008  1.0000
  H   H1        1.0  0.25814  0.16380  0.95949  1.0000
  H   H2        1.0  0.73745  0.83917  0.04086  1.0000
  H   H3        1.0  0.37906  0.11350  0.32769  1.0000
  H   H4        1.0  0.60890  0.89776  0.67361  1.0000
  H   H5        1.0  0.36526  0.41848  0.07143  1.0000
  H   H6        1.0  0.64296  0.58343  0.92615  1.0000
  H   H7        1.0  0.14344  0.96504  0.75542  1.0000
  H   H8        1.0  0.85110  0.03823  0.24588  1.0000
  H   H9        1.0  0.04852  0.62276  0.65353  1.0000
  H   H10       1.0  0.94368  0.38050  0.34795  1.0000
  H   H11       1.0  0.97760  0.30258  0.70763  1.0000
  H   H12       1.0  0.02005  0.70198  0.29285  1.0000
  H   H13       1.0  0.01415  0.29097  0.85198  1.0000
  H   H14       1.0  0.98654  0.71077  0.14824  1.0000
  H   H15       1.0  0.21601  0.29009  0.78162  1.0000
  H   H16       1.0  0.78273  0.71270  0.21706  1.0000
  Pd  Pd1       1.0  0.01329  0.98420  0.49854  1.0000
  C   C1        1.0  0.82291  0.16656  0.50629  1.0000
  C   C2        1.0  0.20480  0.79892  0.49172  1.0000
  C   C3        1.0  0.20636  0.19317  0.51467  1.0000
  C   C4        1.0  0.80703  0.78833  0.48398  1.0000
  C   C5        1.0  0.25682  0.04005  0.99441  1.0000
  C   C6        1.0  0.74387  0.96303  0.00630  1.0000
  C   C7        1.0  0.38642  0.22677  0.28548  1.0000
  C   C8        1.0  0.60388  0.78281  0.71463  1.0000
  C   C9        1.0  0.37811  0.38349  0.15312  1.0000
  C   C10       1.0  0.62169  0.62141  0.84504  1.0000
  C   C11       1.0  0.19833  0.87361  0.91478  1.0000
  C   C12       1.0  0.80320  0.12895  0.08624  1.0000
  C   C13       1.0  0.14482  0.85157  0.79885  1.0000
  C   C14       1.0  0.85243  0.15148  0.20236  1.0000
  C   C15       1.0  0.10663  0.54916  0.81708  1.0000
  C   C16       1.0  0.89300  0.45360  0.18397  1.0000
  C   C17       1.0  0.09310  0.66818  0.74393  1.0000
  C   C18       1.0  0.90291  0.33504  0.25737  1.0000
  C   C19       1.0  0.07630  0.34702  0.78897  1.0000
  C   C20       1.0  0.92287  0.65577  0.21110  1.0000
  S   S1        1.0  0.18085  0.66460  0.95468  1.0000
  S   S2        1.0  0.82352  0.33766  0.04622  1.0000
  N   N1        1.0  0.30626  0.32446  0.51719  1.0000
  N   N2        1.0  0.68379  0.67631  0.48277  1.0000
  N   N3        1.0  0.71893  0.28295  0.51275  1.0000
  N   N4        1.0  0.30782  0.68080  0.48931  1.0000
  N   N5        1.0  0.42625  0.40162  0.33223  1.0000
  N   N6        1.0  0.55808  0.60899  0.66643  1.0000
  N   N7        1.0  0.30305  0.04147  0.10105  1.0000
  N   N8        1.0  0.70073  0.96292  0.89971  1.0000
  N   N9        1.0  0.42223  0.50131  0.24916  1.0000
  N   N10       1.0  0.56847  0.50636  0.74833  1.0000
  N   N11       1.0  0.35370  0.20899  0.17173  1.0000
  N   N12       1.0  0.64573  0.79698  0.82811  1.0000
