data_image0
_chemical_formula_structural       Ni4H60C56N4O26
_chemical_formula_sum              "Ni4 H60 C56 N4 O26"
_cell_length_a       10.0733
_cell_length_b       13.1368
_cell_length_c       15.0883
_cell_angle_alpha    77.3409
_cell_angle_beta     77.7201
_cell_angle_gamma    67.629

_space_group_name_H-M_alt    "P 1"
_space_group_IT_number       1

loop_
  _space_group_symop_operation_xyz
  'x, y, z'

loop_
  _atom_site_type_symbol
  _atom_site_label
  _atom_site_symmetry_multiplicity
  _atom_site_fract_x
  _atom_site_fract_y
  _atom_site_fract_z
  _atom_site_occupancy
  Ni  Ni1       1.0  0.02147  0.57612  0.34447  1.0000
  Ni  Ni2       1.0  0.97854  0.42388  0.65553  1.0000
  Ni  Ni3       1.0  0.74013  0.79910  0.25826  1.0000
  Ni  Ni4       1.0  0.25985  0.20091  0.74174  1.0000
  H   H1        1.0  0.35286  0.68447  0.02995  1.0000
  H   H2        1.0  0.64715  0.31552  0.97005  1.0000
  H   H3        1.0  0.61120  0.63712  0.95659  1.0000
  H   H4        1.0  0.38881  0.36287  0.04342  1.0000
  H   H5        1.0  0.49166  0.50928  0.28884  1.0000
  H   H6        1.0  0.50835  0.49072  0.71116  1.0000
  H   H7        1.0  0.74970  0.46790  0.21765  1.0000
  H   H8        1.0  0.25030  0.53210  0.78235  1.0000
  H   H9        1.0  0.82763  0.46771  0.92409  1.0000
  H   H10       1.0  0.17239  0.53230  0.07592  1.0000
  H   H11       1.0  0.73469  0.41065  0.40841  1.0000
  H   H12       1.0  0.26530  0.58934  0.59159  1.0000
  H   H13       1.0  0.81043  0.23261  0.48966  1.0000
  H   H14       1.0  0.18956  0.76739  0.51034  1.0000
  H   H15       1.0  0.89715  0.04264  0.44529  1.0000
  H   H16       1.0  0.10285  0.95736  0.55471  1.0000
  H   H17       1.0  0.37886  0.28399  0.44593  1.0000
  H   H18       1.0  0.62115  0.71600  0.55407  1.0000
  H   H19       1.0  0.46852  0.09576  0.39967  1.0000
  H   H20       1.0  0.53148  0.90423  0.60032  1.0000
  H   H21       1.0  0.24472  0.39004  0.25811  1.0000
  H   H22       1.0  0.75527  0.60996  0.74189  1.0000
  H   H23       1.0  0.35228  0.25460  0.18032  1.0000
  H   H24       1.0  0.64771  0.74539  0.81968  1.0000
  H   H25       1.0  0.25066  0.16658  0.18838  1.0000
  H   H26       1.0  0.74933  0.83341  0.81162  1.0000
  H   H27       1.0  0.40673  0.11788  0.24573  1.0000
  H   H28       1.0  0.59327  0.88212  0.75427  1.0000
  H   H29       1.0  0.12206  0.19589  0.44019  1.0000
  H   H30       1.0  0.87794  0.80411  0.55981  1.0000
  H   H31       1.0  0.23910  0.08081  0.38468  1.0000
  H   H32       1.0  0.76090  0.91919  0.61532  1.0000
  H   H33       1.0  0.06501  0.16035  0.35025  1.0000
  H   H34       1.0  0.93499  0.83965  0.64975  1.0000
  H   H35       1.0  0.42495  0.85621  0.33164  1.0000
  H   H36       1.0  0.57503  0.14379  0.66836  1.0000
  H   H37       1.0  0.39193  0.91455  0.09136  1.0000
  H   H38       1.0  0.60807  0.08545  0.90865  1.0000
  H   H39       1.0  0.21361  0.01631  0.11312  1.0000
  H   H40       1.0  0.78640  0.98369  0.88688  1.0000
  H   H41       1.0  0.23496  0.87339  0.11782  1.0000
  H   H42       1.0  0.76504  0.12661  0.88218  1.0000
  H   H43       1.0  0.13052  0.84373  0.28507  1.0000
  H   H44       1.0  0.86945  0.15627  0.71493  1.0000
  H   H45       1.0  0.08228  0.98924  0.28384  1.0000
  H   H46       1.0  0.91770  0.01078  0.71616  1.0000
  H   H47       1.0  0.19461  0.89106  0.36412  1.0000
  H   H48       1.0  0.80537  0.10894  0.63589  1.0000
  H   H49       1.0  0.13116  0.54080  0.49353  1.0000
  H   H50       1.0  0.86883  0.45920  0.50647  1.0000
  H   H51       1.0  0.98556  0.63582  0.50279  1.0000
  H   H52       1.0  0.01444  0.36418  0.49720  1.0000
  H   H53       1.0  0.02419  0.74380  0.24115  1.0000
  H   H54       1.0  0.97580  0.25619  0.75886  1.0000
  H   H55       1.0  0.92529  0.79523  0.34283  1.0000
  H   H56       1.0  0.07471  0.20475  0.65716  1.0000
  H   H57       1.0  0.73648  0.92739  0.10618  1.0000
  H   H58       1.0  0.26352  0.07260  0.89383  1.0000
  H   H59       1.0  0.72937  0.98668  0.18629  1.0000
  H   H60       1.0  0.27062  0.01332  0.81370  1.0000
  C   C1        1.0  0.25262  0.62968  0.20881  1.0000
  C   C2        1.0  0.74739  0.37032  0.79119  1.0000
  C   C3        1.0  0.40686  0.60065  0.16400  1.0000
  C   C4        1.0  0.59316  0.39934  0.83600  1.0000
  C   C5        1.0  0.44079  0.63650  0.07029  1.0000
  C   C6        1.0  0.55923  0.36350  0.92970  1.0000
  C   C7        1.0  0.58501  0.61008  0.02973  1.0000
  C   C8        1.0  0.41500  0.38991  0.97027  1.0000
  C   C9        1.0  0.51917  0.53794  0.21623  1.0000
  C   C10       1.0  0.48084  0.46206  0.78377  1.0000
  C   C11       1.0  0.66302  0.51506  0.17605  1.0000
  C   C12       1.0  0.33698  0.48494  0.82396  1.0000
  C   C13       1.0  0.69841  0.55137  0.08220  1.0000
  C   C14       1.0  0.30159  0.44863  0.91780  1.0000
  C   C15       1.0  0.85158  0.52758  0.03990  1.0000
  C   C16       1.0  0.14842  0.47242  0.96010  1.0000
  C   C17       1.0  0.90213  0.48417  0.95721  1.0000
  C   C18       1.0  0.09788  0.51584  0.04279  1.0000
  C   C19       1.0  0.95232  0.54409  0.08217  1.0000
  C   C20       1.0  0.04768  0.45592  0.91783  1.0000
  C   C21       1.0  0.90894  0.59724  0.16749  1.0000
  C   C22       1.0  0.09107  0.40276  0.83251  1.0000
  C   C23       1.0  0.69525  0.61829  0.40909  1.0000
  C   C24       1.0  0.30474  0.38171  0.59091  1.0000
  C   C25       1.0  0.59245  0.56022  0.46024  1.0000
  C   C26       1.0  0.40756  0.43978  0.53976  1.0000
  C   C27       1.0  0.63197  0.44892  0.45030  1.0000
  C   C28       1.0  0.36802  0.55108  0.54970  1.0000
  C   C29       1.0  0.54189  0.38666  0.48875  1.0000
  C   C30       1.0  0.45811  0.61333  0.51125  1.0000
  C   C31       1.0  0.58903  0.27174  0.46981  1.0000
  C   C32       1.0  0.41096  0.72826  0.53019  1.0000
  C   C33       1.0  0.73541  0.20256  0.46974  1.0000
  C   C34       1.0  0.26458  0.79744  0.53027  1.0000
  C   C35       1.0  0.78400  0.09688  0.44522  1.0000
  C   C36       1.0  0.21601  0.90312  0.55478  1.0000
  C   C37       1.0  0.49256  0.23129  0.44617  1.0000
  C   C38       1.0  0.50743  0.76870  0.55382  1.0000
  C   C39       1.0  0.54213  0.12653  0.41993  1.0000
  C   C40       1.0  0.45787  0.87346  0.58006  1.0000
  C   C41       1.0  0.68853  0.05875  0.41809  1.0000
  C   C42       1.0  0.31147  0.94126  0.58191  1.0000
  C   C43       1.0  0.74611  0.94958  0.38306  1.0000
  C   C44       1.0  0.25390  0.05042  0.61694  1.0000
  C   C45       1.0  0.19314  0.34316  0.31511  1.0000
  C   C46       1.0  0.80686  0.65684  0.68488  1.0000
  C   C47       1.0  0.31314  0.19142  0.22590  1.0000
  C   C48       1.0  0.68686  0.80858  0.77410  1.0000
  C   C49       1.0  0.15806  0.16502  0.37433  1.0000
  C   C50       1.0  0.84194  0.83499  0.62566  1.0000
  C   C51       1.0  0.42656  0.87774  0.25671  1.0000
  C   C52       1.0  0.57345  0.12226  0.74330  1.0000
  C   C53       1.0  0.28389  0.92929  0.13141  1.0000
  C   C54       1.0  0.71611  0.07070  0.86860  1.0000
  C   C55       1.0  0.16922  0.90770  0.29412  1.0000
  C   C56       1.0  0.83076  0.09230  0.70588  1.0000
  N   N1        1.0  0.22247  0.23708  0.30687  1.0000
  N   N2        1.0  0.77752  0.76293  0.69313  1.0000
  N   N3        1.0  0.29836  0.90643  0.22847  1.0000
  N   N4        1.0  0.70164  0.09357  0.77153  1.0000
  O   O1        1.0  0.15893  0.71937  0.17532  1.0000
  O   O2        1.0  0.84107  0.28061  0.82469  1.0000
  O   O3        1.0  0.22605  0.56173  0.27896  1.0000
  O   O4        1.0  0.77393  0.43828  0.72104  1.0000
  O   O5        1.0  0.81424  0.69467  0.16349  1.0000
  O   O6        1.0  0.18577  0.30533  0.83652  1.0000
  O   O7        1.0  0.97625  0.53795  0.23415  1.0000
  O   O8        1.0  0.02374  0.46206  0.76585  1.0000
  O   O9        1.0  0.82711  0.56955  0.42330  1.0000
  O   O10       1.0  0.17288  0.43046  0.57669  1.0000
  O   O11       1.0  0.64464  0.70674  0.35460  1.0000
  O   O12       1.0  0.35537  0.29326  0.64540  1.0000
  O   O13       1.0  0.86919  0.88158  0.40289  1.0000
  O   O14       1.0  0.13082  0.11842  0.59710  1.0000
  O   O15       1.0  0.66927  0.93435  0.33281  1.0000
  O   O16       1.0  0.33077  0.06562  0.66719  1.0000
  O   O17       1.0  0.11467  0.38934  0.38216  1.0000
  O   O18       1.0  0.88534  0.61067  0.61783  1.0000
  O   O19       1.0  0.54238  0.87372  0.20345  1.0000
  O   O20       1.0  0.45763  0.12628  0.79656  1.0000
  O   O21       1.0  0.07370  0.61208  0.45775  1.0000
  O   O22       1.0  0.92629  0.38791  0.54225  1.0000
  O   O23       1.0  0.93998  0.74282  0.29598  1.0000
  O   O24       1.0  0.06005  0.25720  0.70401  1.0000
  O   O25       1.0  0.79464  0.92947  0.14940  1.0000
  O   O26       1.0  0.20534  0.07052  0.85061  1.0000
