data_image0
_chemical_formula_structural       Co2H30C46N4O10
_chemical_formula_sum              "Co2 H30 C46 N4 O10"
_cell_length_a       9.4635
_cell_length_b       10.348
_cell_length_c       10.9534
_cell_angle_alpha    103.819
_cell_angle_beta     112.793
_cell_angle_gamma    107.57

_space_group_name_H-M_alt    "P 1"
_space_group_IT_number       1

loop_
  _space_group_symop_operation_xyz
  'x, y, z'

loop_
  _atom_site_type_symbol
  _atom_site_label
  _atom_site_symmetry_multiplicity
  _atom_site_fract_x
  _atom_site_fract_y
  _atom_site_fract_z
  _atom_site_occupancy
  Co  Co1       1.0  0.15188  0.04171  0.18151  1.0000
  Co  Co2       1.0  0.84767  0.95824  0.81684  1.0000
  H   H1        1.0  0.65489  0.85010  0.05351  1.0000
  H   H2        1.0  0.34586  0.15074  0.94692  1.0000
  H   H3        1.0  0.88940  0.30546  0.03288  1.0000
  H   H4        1.0  0.10933  0.69516  0.96437  1.0000
  H   H5        1.0  0.03633  0.57501  0.10492  1.0000
  H   H6        1.0  0.96082  0.42539  0.89061  1.0000
  H   H7        1.0  0.49454  0.36428  0.10764  1.0000
  H   H8        1.0  0.50897  0.63659  0.89761  1.0000
  H   H9        1.0  0.64349  0.63294  0.18067  1.0000
  H   H10       1.0  0.35979  0.36826  0.82494  1.0000
  H   H11       1.0  0.27974  0.80729  0.22834  1.0000
  H   H12       1.0  0.71777  0.19252  0.77278  1.0000
  H   H13       1.0  0.57632  0.82983  0.36447  1.0000
  H   H14       1.0  0.42042  0.16924  0.63925  1.0000
  H   H15       1.0  0.82744  0.07601  0.48593  1.0000
  H   H16       1.0  0.17034  0.92209  0.51596  1.0000
  H   H17       1.0  0.93337  0.35981  0.55807  1.0000
  H   H18       1.0  0.06595  0.63827  0.44299  1.0000
  H   H19       1.0  0.86517  0.56768  0.53818  1.0000
  H   H20       1.0  0.13533  0.43118  0.46382  1.0000
  H   H21       1.0  0.63587  0.65680  0.42137  1.0000
  H   H22       1.0  0.36533  0.34295  0.58005  1.0000
  H   H23       1.0  0.32871  0.57913  0.24312  1.0000
  H   H24       1.0  0.67358  0.42111  0.75605  1.0000
  H   H25       1.0  0.11937  0.31313  0.12321  1.0000
  H   H26       1.0  0.88242  0.68722  0.87417  1.0000
  H   H27       1.0  0.10552  0.18544  0.36499  1.0000
  H   H28       1.0  0.89547  0.81554  0.63370  1.0000
  H   H29       1.0  0.07512  0.03203  0.37161  1.0000
  H   H30       1.0  0.92452  0.96872  0.62693  1.0000
  C   C1        1.0  0.86913  0.11883  0.14276  1.0000
  C   C2        1.0  0.13140  0.88172  0.85561  1.0000
  C   C3        1.0  0.67867  0.06303  0.06013  1.0000
  C   C4        1.0  0.32183  0.93740  0.93919  1.0000
  C   C5        1.0  0.58399  0.91390  0.02540  1.0000
  C   C6        1.0  0.41663  0.08672  0.97452  1.0000
  C   C7        1.0  0.59478  0.15412  0.03517  1.0000
  C   C8        1.0  0.40583  0.84647  0.96476  1.0000
  C   C9        1.0  0.68272  0.31343  0.06937  1.0000
  C   C10       1.0  0.31802  0.68727  0.93114  1.0000
  C   C11       1.0  0.83545  0.37655  0.06726  1.0000
  C   C12       1.0  0.16386  0.62410  0.93115  1.0000
  C   C13       1.0  0.91726  0.52826  0.10560  1.0000
  C   C14       1.0  0.08133  0.47235  0.89218  1.0000
  C   C15       1.0  0.61383  0.40899  0.10696  1.0000
  C   C16       1.0  0.38827  0.59192  0.89615  1.0000
  C   C17       1.0  0.69669  0.56056  0.14770  1.0000
  C   C18       1.0  0.30513  0.44040  0.85540  1.0000
  C   C19       1.0  0.85000  0.62275  0.14767  1.0000
  C   C20       1.0  0.14975  0.37801  0.85223  1.0000
  C   C21       1.0  0.93821  0.78739  0.19718  1.0000
  C   C22       1.0  0.06096  0.21323  0.80165  1.0000
  C   C23       1.0  0.39216  0.91315  0.28174  1.0000
  C   C24       1.0  0.60581  0.08620  0.71889  1.0000
  C   C25       1.0  0.55781  0.92717  0.35813  1.0000
  C   C26       1.0  0.43968  0.07172  0.64368  1.0000
  C   C27       1.0  0.69825  0.06423  0.42735  1.0000
  C   C28       1.0  0.29982  0.93421  0.57379  1.0000
  C   C29       1.0  0.67098  0.18962  0.42090  1.0000
  C   C30       1.0  0.32805  0.80899  0.57923  1.0000
  C   C31       1.0  0.80175  0.33925  0.49199  1.0000
  C   C32       1.0  0.19780  0.65923  0.50869  1.0000
  C   C33       1.0  0.76374  0.45475  0.47963  1.0000
  C   C34       1.0  0.23648  0.54416  0.52156  1.0000
  C   C35       1.0  0.59195  0.42997  0.39084  1.0000
  C   C36       1.0  0.40857  0.56941  0.60978  1.0000
  C   C37       1.0  0.54155  0.54079  0.36600  1.0000
  C   C38       1.0  0.45952  0.45892  0.63480  1.0000
  C   C39       1.0  0.37228  0.49806  0.26890  1.0000
  C   C40       1.0  0.62933  0.50198  0.73060  1.0000
  C   C41       1.0  0.25162  0.34874  0.20115  1.0000
  C   C42       1.0  0.74968  0.65137  0.79730  1.0000
  C   C43       1.0  0.46236  0.28302  0.31986  1.0000
  C   C44       1.0  0.53785  0.71641  0.67959  1.0000
  C   C45       1.0  0.50074  0.16505  0.33831  1.0000
  C   C46       1.0  0.49867  0.83404  0.66107  1.0000
  N   N1        1.0  0.36257  0.02942  0.26931  1.0000
  N   N2        1.0  0.63643  0.97001  0.72998  1.0000
  N   N3        1.0  0.29375  0.24223  0.22854  1.0000
  N   N4        1.0  0.70686  0.75767  0.77013  1.0000
  O   O1        1.0  0.93263  0.04796  0.08146  1.0000
  O   O2        1.0  0.06737  0.95223  0.91658  1.0000
  O   O3        1.0  0.95134  0.22121  0.26705  1.0000
  O   O4        1.0  0.04990  0.77984  0.73102  1.0000
  O   O5        1.0  0.02940  0.83498  0.14026  1.0000
  O   O6        1.0  0.96945  0.16508  0.85811  1.0000
  O   O7        1.0  0.91876  0.86711  0.29029  1.0000
  O   O8        1.0  0.08038  0.13405  0.70813  1.0000
  O   O9        1.0  0.17057  0.12782  0.39555  1.0000
  O   O10       1.0  0.82967  0.87266  0.60318  1.0000
