data_image0
_chemical_formula_structural       Cu4H32C24I4N8O4
_chemical_formula_sum              "Cu4 H32 C24 I4 N8 O4"
_cell_length_a       7.61432
_cell_length_b       8.03966
_cell_length_c       15.3619
_cell_angle_alpha    89.9999
_cell_angle_beta     90.0001
_cell_angle_gamma    112.191

_space_group_name_H-M_alt    "P 1"
_space_group_IT_number       1

loop_
  _space_group_symop_operation_xyz
  'x, y, z'

loop_
  _atom_site_type_symbol
  _atom_site_label
  _atom_site_symmetry_multiplicity
  _atom_site_fract_x
  _atom_site_fract_y
  _atom_site_fract_z
  _atom_site_occupancy
  Cu  Cu1       1.0  0.66253  0.48642  0.53775  1.0000
  Cu  Cu2       1.0  0.66255  0.98642  0.96225  1.0000
  Cu  Cu3       1.0  0.33745  0.51357  0.46225  1.0000
  Cu  Cu4       1.0  0.33746  0.01358  0.03775  1.0000
  H   H1        1.0  0.22893  0.04603  0.48398  1.0000
  H   H2        1.0  0.22894  0.54603  0.01602  1.0000
  H   H3        1.0  0.77106  0.95396  0.51602  1.0000
  H   H4        1.0  0.77107  0.45397  0.98398  1.0000
  H   H5        1.0  0.34754  0.92367  0.53958  1.0000
  H   H6        1.0  0.34754  0.42367  0.96042  1.0000
  H   H7        1.0  0.65245  0.07633  0.46042  1.0000
  H   H8        1.0  0.65246  0.57633  0.03958  1.0000
  H   H9        1.0  0.27237  0.00290  0.68094  1.0000
  H   H10       1.0  0.27236  0.50291  0.81906  1.0000
  H   H11       1.0  0.72764  0.99710  0.31906  1.0000
  H   H12       1.0  0.72763  0.49710  0.18094  1.0000
  H   H13       1.0  0.32282  0.20365  0.61844  1.0000
  H   H14       1.0  0.32282  0.70365  0.88156  1.0000
  H   H15       1.0  0.67718  0.79635  0.38156  1.0000
  H   H16       1.0  0.67718  0.29635  0.11844  1.0000
  H   H17       1.0  0.11709  0.30037  0.70450  1.0000
  H   H18       1.0  0.11709  0.80037  0.79549  1.0000
  H   H19       1.0  0.88292  0.69964  0.29549  1.0000
  H   H20       1.0  0.88291  0.19963  0.20450  1.0000
  H   H21       1.0  0.07337  0.11045  0.77416  1.0000
  H   H22       1.0  0.07338  0.61044  0.72584  1.0000
  H   H23       1.0  0.92663  0.88956  0.22584  1.0000
  H   H24       1.0  0.92662  0.38954  0.27416  1.0000
  H   H25       1.0  0.72664  0.99006  0.72394  1.0000
  H   H26       1.0  0.72665  0.49006  0.77606  1.0000
  H   H27       1.0  0.27336  0.00996  0.27606  1.0000
  H   H28       1.0  0.27335  0.50994  0.22394  1.0000
  H   H29       1.0  0.79816  0.18243  0.79138  1.0000
  H   H30       1.0  0.79816  0.68242  0.70861  1.0000
  H   H31       1.0  0.20185  0.81759  0.20862  1.0000
  H   H32       1.0  0.20184  0.31758  0.29138  1.0000
  C   C1        1.0  0.05386  0.80002  0.53437  1.0000
  C   C2        1.0  0.05386  0.30001  0.96563  1.0000
  C   C3        1.0  0.94613  0.19998  0.46563  1.0000
  C   C4        1.0  0.94614  0.69999  0.03437  1.0000
  C   C5        1.0  0.22306  0.96170  0.54123  1.0000
  C   C6        1.0  0.22307  0.46171  0.95877  1.0000
  C   C7        1.0  0.77693  0.03829  0.45877  1.0000
  C   C8        1.0  0.77693  0.53830  0.04123  1.0000
  C   C9        1.0  0.22402  0.06293  0.62579  1.0000
  C   C10       1.0  0.22402  0.56294  0.87421  1.0000
  C   C11       1.0  0.77598  0.93707  0.37421  1.0000
  C   C12       1.0  0.77597  0.43707  0.12579  1.0000
  C   C13       1.0  0.02527  0.15775  0.71453  1.0000
  C   C14       1.0  0.02528  0.65775  0.78547  1.0000
  C   C15       1.0  0.97473  0.84226  0.28547  1.0000
  C   C16       1.0  0.97472  0.34224  0.21453  1.0000
  C   C17       1.0  0.81837  0.13377  0.72651  1.0000
  C   C18       1.0  0.81837  0.63378  0.77349  1.0000
  C   C19       1.0  0.18164  0.86624  0.27349  1.0000
  C   C20       1.0  0.18163  0.36622  0.22651  1.0000
  C   C21       1.0  0.74930  0.22662  0.66253  1.0000
  C   C22       1.0  0.74930  0.72663  0.83747  1.0000
  C   C23       1.0  0.25070  0.77338  0.33747  1.0000
  C   C24       1.0  0.25069  0.27337  0.16254  1.0000
  I   I1        1.0  0.55190  0.36253  0.38031  1.0000
  I   I2        1.0  0.55191  0.86253  0.11969  1.0000
  I   I3        1.0  0.44810  0.63747  0.61969  1.0000
  I   I4        1.0  0.44810  0.13747  0.88031  1.0000
  N   N1        1.0  0.91117  0.67670  0.53014  1.0000
  N   N2        1.0  0.91118  0.17671  0.96986  1.0000
  N   N3        1.0  0.08882  0.32329  0.46986  1.0000
  N   N4        1.0  0.08882  0.82329  0.03014  1.0000
  N   N5        1.0  0.69285  0.30465  0.61301  1.0000
  N   N6        1.0  0.69287  0.80465  0.88698  1.0000
  N   N7        1.0  0.30714  0.69534  0.38698  1.0000
  N   N8        1.0  0.30714  0.19533  0.11302  1.0000
  O   O1        1.0  0.03555  0.05352  0.64126  1.0000
  O   O2        1.0  0.03555  0.55352  0.85874  1.0000
  O   O3        1.0  0.96445  0.94648  0.35874  1.0000
  O   O4        1.0  0.96445  0.44648  0.14126  1.0000
