data_image0
_chemical_formula_structural       Hg2H30C36I4N2O4
_chemical_formula_sum              "Hg2 H30 C36 I4 N2 O4"
_cell_length_a       4.47482
_cell_length_b       11.0697
_cell_length_c       19.4485
_cell_angle_alpha    105.888
_cell_angle_beta     89.4671
_cell_angle_gamma    89.9043

_space_group_name_H-M_alt    "P 1"
_space_group_IT_number       1

loop_
  _space_group_symop_operation_xyz
  'x, y, z'

loop_
  _atom_site_type_symbol
  _atom_site_label
  _atom_site_symmetry_multiplicity
  _atom_site_fract_x
  _atom_site_fract_y
  _atom_site_fract_z
  _atom_site_occupancy
  Hg  Hg1       1.0  0.33536  0.36113  0.78164  1.0000
  Hg  Hg2       1.0  0.66466  0.63887  0.21837  1.0000
  H   H1        1.0  0.59219  0.04338  0.78426  1.0000
  H   H2        1.0  0.40781  0.95663  0.21574  1.0000
  H   H3        1.0  0.04715  0.20661  0.65396  1.0000
  H   H4        1.0  0.95285  0.79339  0.34604  1.0000
  H   H5        1.0  0.77375  0.06167  0.55650  1.0000
  H   H6        1.0  0.22625  0.93833  0.44350  1.0000
  H   H7        1.0  0.61850  0.85121  0.49184  1.0000
  H   H8        1.0  0.38152  0.14879  0.50816  1.0000
  H   H9        1.0  0.61240  0.62104  0.47706  1.0000
  H   H10       1.0  0.38757  0.37897  0.52294  1.0000
  H   H11       1.0  0.90925  0.53252  0.56057  1.0000
  H   H12       1.0  0.09069  0.46748  0.43944  1.0000
  H   H13       1.0  0.20870  0.66682  0.65386  1.0000
  H   H14       1.0  0.79126  0.33318  0.34614  1.0000
  H   H15       1.0  0.49502  0.77587  0.71377  1.0000
  H   H16       1.0  0.50500  0.22414  0.28623  1.0000
  H   H17       1.0  0.81210  0.70705  0.76736  1.0000
  H   H18       1.0  0.18793  0.29296  0.23263  1.0000
  H   H19       1.0  0.16034  0.64727  0.84772  1.0000
  H   H20       1.0  0.83968  0.35273  0.15228  1.0000
  H   H21       1.0  0.27318  0.03672  0.96421  1.0000
  H   H22       1.0  0.72683  0.96328  0.03579  1.0000
  H   H23       1.0  0.91558  0.09843  0.88252  1.0000
  H   H24       1.0  0.08443  0.90157  0.11748  1.0000
  H   H25       1.0  0.30060  0.62945  0.95839  1.0000
  H   H26       1.0  0.69943  0.37055  0.04161  1.0000
  H   H27       1.0  0.65586  0.68433  0.99648  1.0000
  H   H28       1.0  0.34417  0.31567  0.00351  1.0000
  H   H29       1.0  0.61106  0.64224  0.90154  1.0000
  H   H30       1.0  0.38896  0.35776  0.09846  1.0000
  C   C1        1.0  0.24600  0.06001  0.69398  1.0000
  C   C2        1.0  0.75400  0.93999  0.30602  1.0000
  C   C3        1.0  0.06281  0.10530  0.64623  1.0000
  C   C4        1.0  0.93719  0.89470  0.35377  1.0000
  C   C5        1.0  0.90996  0.02444  0.59233  1.0000
  C   C6        1.0  0.09004  0.97556  0.40767  1.0000
  C   C7        1.0  0.91826  0.89166  0.58160  1.0000
  C   C8        1.0  0.08175  0.10834  0.41840  1.0000
  C   C9        1.0  0.74903  0.81053  0.52711  1.0000
  C   C10       1.0  0.25097  0.18948  0.47290  1.0000
  C   C11       1.0  0.74516  0.68257  0.51898  1.0000
  C   C12       1.0  0.25481  0.31743  0.48102  1.0000
  C   C13       1.0  0.91190  0.63322  0.56607  1.0000
  C   C14       1.0  0.08806  0.36679  0.43393  1.0000
  C   C15       1.0  0.08309  0.71043  0.61923  1.0000
  C   C16       1.0  0.91687  0.28957  0.38077  1.0000
  C   C17       1.0  0.09500  0.84150  0.62821  1.0000
  C   C18       1.0  0.90499  0.15849  0.37179  1.0000
  C   C19       1.0  0.27041  0.92624  0.68298  1.0000
  C   C20       1.0  0.72958  0.07376  0.31701  1.0000
  C   C21       1.0  0.46749  0.87705  0.72465  1.0000
  C   C22       1.0  0.53251  0.12295  0.27535  1.0000
  C   C23       1.0  0.83518  0.90746  0.82000  1.0000
  C   C24       1.0  0.16483  0.09254  0.18000  1.0000
  C   C25       1.0  0.90928  0.78098  0.81018  1.0000
  C   C26       1.0  0.09074  0.21902  0.18982  1.0000
  C   C27       1.0  0.10861  0.74644  0.85616  1.0000
  C   C28       1.0  0.89141  0.25356  0.14384  1.0000
  C   C29       1.0  0.23561  0.83860  0.91255  1.0000
  C   C30       1.0  0.76440  0.16140  0.08745  1.0000
  C   C31       1.0  0.16773  0.96587  0.92121  1.0000
  C   C32       1.0  0.83226  0.03413  0.07879  1.0000
  C   C33       1.0  0.96900  0.99957  0.87545  1.0000
  C   C34       1.0  0.03100  0.00044  0.12455  1.0000
  C   C35       1.0  0.50058  0.68435  0.95328  1.0000
  C   C36       1.0  0.49944  0.31565  0.04671  1.0000
  I   I1        1.0  0.61068  0.45378  0.68474  1.0000
  I   I2        1.0  0.38932  0.54622  0.31526  1.0000
  I   I3        1.0  0.91382  0.37185  0.88438  1.0000
  I   I4        1.0  0.08615  0.62815  0.11562  1.0000
  N   N1        1.0  0.63054  0.94768  0.77680  1.0000
  N   N2        1.0  0.36946  0.05232  0.22320  1.0000
  O   O1        1.0  0.38970  0.13680  0.74578  1.0000
  O   O2        1.0  0.61028  0.86320  0.25423  1.0000
  O   O3        1.0  0.42613  0.81328  0.96122  1.0000
  O   O4        1.0  0.57389  0.18672  0.03878  1.0000
