data_image0
_chemical_formula_structural       Cd4H32C40O24
_chemical_formula_sum              "Cd4 H32 C40 O24"
_cell_length_a       6.0381
_cell_length_b       8.17637
_cell_length_c       19.4289
_cell_angle_alpha    90.2422
_cell_angle_beta     89.9999
_cell_angle_gamma    90.0002

_space_group_name_H-M_alt    "P 1"
_space_group_IT_number       1

loop_
  _space_group_symop_operation_xyz
  'x, y, z'

loop_
  _atom_site_type_symbol
  _atom_site_label
  _atom_site_symmetry_multiplicity
  _atom_site_fract_x
  _atom_site_fract_y
  _atom_site_fract_z
  _atom_site_occupancy
  Cd  Cd1       1.0  0.43546  0.28860  0.74174  1.0000
  Cd  Cd2       1.0  0.06454  0.28861  0.24174  1.0000
  Cd  Cd3       1.0  0.56454  0.71140  0.25826  1.0000
  Cd  Cd4       1.0  0.93546  0.71140  0.75826  1.0000
  H   H1        1.0  0.35515  0.04560  0.91565  1.0000
  H   H2        1.0  0.14483  0.04561  0.41565  1.0000
  H   H3        1.0  0.64484  0.95440  0.08435  1.0000
  H   H4        1.0  0.85517  0.95439  0.58435  1.0000
  H   H5        1.0  0.56096  0.90448  0.88351  1.0000
  H   H6        1.0  0.93904  0.90449  0.38351  1.0000
  H   H7        1.0  0.43904  0.09552  0.11649  1.0000
  H   H8        1.0  0.06097  0.09551  0.61649  1.0000
  H   H9        1.0  0.64577  0.08658  0.98717  1.0000
  H   H10       1.0  0.85422  0.08659  0.48717  1.0000
  H   H11       1.0  0.35422  0.91342  0.01283  1.0000
  H   H12       1.0  0.14578  0.91341  0.51283  1.0000
  H   H13       1.0  0.95893  0.19965  0.05568  1.0000
  H   H14       1.0  0.54106  0.19966  0.55568  1.0000
  H   H15       1.0  0.04106  0.80035  0.94432  1.0000
  H   H16       1.0  0.45894  0.80034  0.44432  1.0000
  H   H17       1.0  0.24838  0.36454  0.00175  1.0000
  H   H18       1.0  0.25162  0.36454  0.50175  1.0000
  H   H19       1.0  0.75162  0.63546  0.99825  1.0000
  H   H20       1.0  0.74839  0.63546  0.49825  1.0000
  H   H21       1.0  0.93007  0.29786  0.80410  1.0000
  H   H22       1.0  0.56992  0.29786  0.30410  1.0000
  H   H23       1.0  0.06993  0.70214  0.19590  1.0000
  H   H24       1.0  0.43008  0.70214  0.69590  1.0000
  H   H25       1.0  0.52281  0.43433  0.93291  1.0000
  H   H26       1.0  0.97718  0.43434  0.43291  1.0000
  H   H27       1.0  0.47719  0.56567  0.06709  1.0000
  H   H28       1.0  0.02282  0.56566  0.56709  1.0000
  H   H29       1.0  0.36342  0.61803  0.92244  1.0000
  H   H30       1.0  0.13658  0.61803  0.42244  1.0000
  H   H31       1.0  0.63659  0.38197  0.07756  1.0000
  H   H32       1.0  0.86343  0.38197  0.57756  1.0000
  C   C1        1.0  0.29515  0.96273  0.81388  1.0000
  C   C2        1.0  0.20485  0.96274  0.31388  1.0000
  C   C3        1.0  0.70484  0.03727  0.18612  1.0000
  C   C4        1.0  0.79516  0.03727  0.68612  1.0000
  C   C5        1.0  0.45671  0.01011  0.87078  1.0000
  C   C6        1.0  0.04328  0.01011  0.37078  1.0000
  C   C7        1.0  0.54329  0.98989  0.12922  1.0000
  C   C8        1.0  0.95672  0.98989  0.62922  1.0000
  C   C9        1.0  0.76633  0.18911  0.89133  1.0000
  C   C10       1.0  0.73367  0.18912  0.39133  1.0000
  C   C11       1.0  0.23366  0.81089  0.10867  1.0000
  C   C12       1.0  0.26634  0.81088  0.60867  1.0000
  C   C13       1.0  0.77456  0.15769  0.96217  1.0000
  C   C14       1.0  0.72543  0.15770  0.46216  1.0000
  C   C15       1.0  0.22543  0.84231  0.03783  1.0000
  C   C16       1.0  0.27457  0.84230  0.53784  1.0000
  C   C17       1.0  0.95092  0.22110  0.00037  1.0000
  C   C18       1.0  0.54908  0.22111  0.50037  1.0000
  C   C19       1.0  0.04908  0.77890  0.99963  1.0000
  C   C20       1.0  0.45093  0.77889  0.49963  1.0000
  C   C21       1.0  0.11774  0.31409  0.96964  1.0000
  C   C22       1.0  0.38225  0.31409  0.46963  1.0000
  C   C23       1.0  0.88226  0.68591  0.03036  1.0000
  C   C24       1.0  0.61775  0.68590  0.53037  1.0000
  C   C25       1.0  0.10833  0.33991  0.89854  1.0000
  C   C26       1.0  0.39167  0.33991  0.39853  1.0000
  C   C27       1.0  0.89167  0.66009  0.10147  1.0000
  C   C28       1.0  0.60833  0.66008  0.60147  1.0000
  C   C29       1.0  0.93421  0.27708  0.85931  1.0000
  C   C30       1.0  0.56578  0.27708  0.35931  1.0000
  C   C31       1.0  0.06579  0.72292  0.14069  1.0000
  C   C32       1.0  0.43422  0.72292  0.64069  1.0000
  C   C33       1.0  0.43424  0.51171  0.89557  1.0000
  C   C34       1.0  0.06575  0.51171  0.39557  1.0000
  C   C35       1.0  0.56576  0.48829  0.10443  1.0000
  C   C36       1.0  0.93426  0.48829  0.60444  1.0000
  C   C37       1.0  0.60241  0.57156  0.84345  1.0000
  C   C38       1.0  0.89758  0.57157  0.34345  1.0000
  C   C39       1.0  0.39758  0.42843  0.15654  1.0000
  C   C40       1.0  0.10242  0.42843  0.65655  1.0000
  O   O1        1.0  0.24239  0.06259  0.76717  1.0000
  O   O2        1.0  0.25761  0.06260  0.26717  1.0000
  O   O3        1.0  0.75760  0.93741  0.23283  1.0000
  O   O4        1.0  0.74239  0.93740  0.73283  1.0000
  O   O5        1.0  0.21546  0.81955  0.82106  1.0000
  O   O6        1.0  0.28454  0.81956  0.32106  1.0000
  O   O7        1.0  0.78455  0.18044  0.17893  1.0000
  O   O8        1.0  0.71546  0.18044  0.67893  1.0000
  O   O9        1.0  0.59233  0.14430  0.84949  1.0000
  O   O10       1.0  0.90766  0.14430  0.34948  1.0000
  O   O11       1.0  0.40766  0.85571  0.15052  1.0000
  O   O12       1.0  0.09234  0.85570  0.65052  1.0000
  O   O13       1.0  0.26471  0.42289  0.86075  1.0000
  O   O14       1.0  0.23529  0.42290  0.36075  1.0000
  O   O15       1.0  0.73529  0.57710  0.13925  1.0000
  O   O16       1.0  0.76472  0.57710  0.63925  1.0000
  O   O17       1.0  0.60484  0.51633  0.78174  1.0000
  O   O18       1.0  0.89515  0.51634  0.28174  1.0000
  O   O19       1.0  0.39516  0.48366  0.21826  1.0000
  O   O20       1.0  0.10484  0.48366  0.71827  1.0000
  O   O21       1.0  0.74174  0.67649  0.86384  1.0000
  O   O22       1.0  0.75825  0.67650  0.36384  1.0000
  O   O23       1.0  0.25826  0.32351  0.13616  1.0000
  O   O24       1.0  0.24175  0.32351  0.63616  1.0000
