data_image0
_chemical_formula_structural       Cd2H32C32N8O12
_chemical_formula_sum              "Cd2 H32 C32 N8 O12"
_cell_length_a       9.42167
_cell_length_b       10.0557
_cell_length_c       11.0644
_cell_angle_alpha    109.05
_cell_angle_beta     111.093
_cell_angle_gamma    94.9955

_space_group_name_H-M_alt    "P 1"
_space_group_IT_number       1

loop_
  _space_group_symop_operation_xyz
  'x, y, z'

loop_
  _atom_site_type_symbol
  _atom_site_label
  _atom_site_symmetry_multiplicity
  _atom_site_fract_x
  _atom_site_fract_y
  _atom_site_fract_z
  _atom_site_occupancy
  Cd  Cd1       1.0  0.56326  0.39814  0.63321  1.0000
  Cd  Cd2       1.0  0.43673  0.60186  0.36679  1.0000
  H   H1        1.0  0.15134  0.47631  0.79103  1.0000
  H   H2        1.0  0.84866  0.52369  0.20897  1.0000
  H   H3        1.0  0.05562  0.42119  0.60645  1.0000
  H   H4        1.0  0.94437  0.57881  0.39355  1.0000
  H   H5        1.0  0.29592  0.39042  0.93129  1.0000
  H   H6        1.0  0.70409  0.60958  0.06871  1.0000
  H   H7        1.0  0.38020  0.27453  0.10101  1.0000
  H   H8        1.0  0.61980  0.72547  0.89899  1.0000
  H   H9        1.0  0.23785  0.02634  0.04859  1.0000
  H   H10       1.0  0.76214  0.97366  0.95141  1.0000
  H   H11       1.0  0.93058  0.00841  0.64116  1.0000
  H   H12       1.0  0.06942  0.99159  0.35884  1.0000
  H   H13       1.0  0.87311  0.78314  0.60408  1.0000
  H   H14       1.0  0.12688  0.21686  0.39592  1.0000
  H   H15       1.0  0.77213  0.87208  0.70214  1.0000
  H   H16       1.0  0.22787  0.12792  0.29787  1.0000
  H   H17       1.0  0.66706  0.07901  0.59855  1.0000
  H   H18       1.0  0.33294  0.92099  0.40145  1.0000
  H   H19       1.0  0.65823  0.02011  0.19923  1.0000
  H   H20       1.0  0.34177  0.97989  0.80077  1.0000
  H   H21       1.0  0.59650  0.28855  0.31473  1.0000
  H   H22       1.0  0.40350  0.71146  0.68527  1.0000
  H   H23       1.0  0.92331  0.38895  0.86062  1.0000
  H   H24       1.0  0.07669  0.61105  0.13938  1.0000
  H   H25       1.0  0.71847  0.23881  0.08868  1.0000
  H   H26       1.0  0.28153  0.76119  0.91132  1.0000
  H   H27       1.0  0.48583  0.27037  0.86557  1.0000
  H   H28       1.0  0.51417  0.72963  0.13442  1.0000
  H   H29       1.0  0.69480  0.90802  0.38400  1.0000
  H   H30       1.0  0.30520  0.09198  0.61600  1.0000
  H   H31       1.0  0.97427  0.32257  0.07724  1.0000
  H   H32       1.0  0.02573  0.67743  0.92276  1.0000
  C   C1        1.0  0.28746  0.38655  0.67719  1.0000
  C   C2        1.0  0.71253  0.61345  0.32281  1.0000
  C   C3        1.0  0.13196  0.39139  0.69048  1.0000
  C   C4        1.0  0.86803  0.60861  0.30952  1.0000
  C   C5        1.0  0.10605  0.20451  0.77507  1.0000
  C   C6        1.0  0.89395  0.79549  0.22493  1.0000
  C   C7        1.0  0.23312  0.28140  0.90404  1.0000
  C   C8        1.0  0.76688  0.71861  0.09596  1.0000
  C   C9        1.0  0.28014  0.21510  0.00101  1.0000
  C   C10       1.0  0.71987  0.78490  0.99898  1.0000
  C   C11       1.0  0.20208  0.07751  0.97301  1.0000
  C   C12       1.0  0.79791  0.92249  0.02700  1.0000
  C   C13       1.0  0.07255  0.00308  0.84388  1.0000
  C   C14       1.0  0.92745  0.99693  0.15612  1.0000
  C   C15       1.0  0.02559  0.06525  0.74434  1.0000
  C   C16       1.0  0.97441  0.93475  0.25566  1.0000
  C   C17       1.0  0.85577  0.80192  0.70103  1.0000
  C   C18       1.0  0.14422  0.19808  0.29897  1.0000
  C   C19       1.0  0.78284  0.65778  0.69469  1.0000
  C   C20       1.0  0.21716  0.34222  0.30531  1.0000
  C   C21       1.0  0.65478  0.10062  0.50594  1.0000
  C   C22       1.0  0.34522  0.89938  0.49405  1.0000
  C   C23       1.0  0.64971  0.07282  0.29796  1.0000
  C   C24       1.0  0.35030  0.92718  0.70204  1.0000
  C   C25       1.0  0.61787  0.20405  0.35527  1.0000
  C   C26       1.0  0.38213  0.79595  0.64473  1.0000
  C   C27       1.0  0.83447  0.35131  0.88996  1.0000
  C   C28       1.0  0.16553  0.64869  0.11004  1.0000
  C   C29       1.0  0.72441  0.27276  0.00701  1.0000
  C   C30       1.0  0.27559  0.72725  0.99299  1.0000
  C   C31       1.0  0.61092  0.28934  0.89645  1.0000
  C   C32       1.0  0.38909  0.71065  0.10356  1.0000
  N   N1        1.0  0.62098  0.21959  0.48527  1.0000
  N   N2        1.0  0.37902  0.78041  0.51473  1.0000
  N   N3        1.0  0.67292  0.00967  0.39478  1.0000
  N   N4        1.0  0.32708  0.99034  0.60521  1.0000
  N   N5        1.0  0.68115  0.33856  0.82390  1.0000
  N   N6        1.0  0.31885  0.66144  0.17610  1.0000
  N   N7        1.0  0.86444  0.31147  0.00035  1.0000
  N   N8        1.0  0.13556  0.68853  0.99965  1.0000
  O   O1        1.0  0.31419  0.26481  0.62023  1.0000
  O   O2        1.0  0.68580  0.73518  0.37977  1.0000
  O   O3        1.0  0.38100  0.50662  0.71873  1.0000
  O   O4        1.0  0.61899  0.49337  0.28127  1.0000
  O   O5        1.0  0.04787  0.25566  0.67050  1.0000
  O   O6        1.0  0.95213  0.74434  0.32950  1.0000
  O   O7        1.0  0.99944  0.86819  0.82246  1.0000
  O   O8        1.0  0.00056  0.13181  0.17755  1.0000
  O   O9        1.0  0.85689  0.59919  0.77428  1.0000
  O   O10       1.0  0.14311  0.40082  0.22573  1.0000
  O   O11       1.0  0.64173  0.60139  0.60190  1.0000
  O   O12       1.0  0.35827  0.39861  0.39811  1.0000
