data_image0
_chemical_formula_structural       Ag4H44C22N10O6
_chemical_formula_sum              "Ag4 H44 C22 N10 O6"
_cell_length_a       7.17032
_cell_length_b       10.8903
_cell_length_c       10.495
_cell_angle_alpha    100.109
_cell_angle_beta     97.3324
_cell_angle_gamma    98.7775

_space_group_name_H-M_alt    "P 1"
_space_group_IT_number       1

loop_
  _space_group_symop_operation_xyz
  'x, y, z'

loop_
  _atom_site_type_symbol
  _atom_site_label
  _atom_site_symmetry_multiplicity
  _atom_site_fract_x
  _atom_site_fract_y
  _atom_site_fract_z
  _atom_site_occupancy
  Ag  Ag1       1.0  0.11207  0.75472  0.57344  1.0000
  Ag  Ag2       1.0  0.88793  0.24529  0.42657  1.0000
  Ag  Ag3       1.0  0.99999  1.00000  0.99999  1.0000
  Ag  Ag4       1.0  0.49999  1.00000  0.49999  1.0000
  H   H1        1.0  0.41391  0.45315  0.57681  1.0000
  H   H2        1.0  0.58607  0.54684  0.42320  1.0000
  H   H3        1.0  0.22802  0.49066  0.66197  1.0000
  H   H4        1.0  0.77196  0.50934  0.33803  1.0000
  H   H5        1.0  0.54671  0.62212  0.76450  1.0000
  H   H6        1.0  0.45328  0.37787  0.23550  1.0000
  H   H7        1.0  0.56428  0.68193  0.61939  1.0000
  H   H8        1.0  0.43572  0.31806  0.38061  1.0000
  H   H9        1.0  0.80871  0.98880  0.41124  1.0000
  H   H10       1.0  0.19129  0.01121  0.58878  1.0000
  H   H11       1.0  0.00688  0.92223  0.36417  1.0000
  H   H12       1.0  0.99311  0.07778  0.63584  1.0000
  H   H13       1.0  0.12059  0.47807  0.43696  1.0000
  H   H14       1.0  0.87940  0.52193  0.56304  1.0000
  H   H15       1.0  0.30501  0.58523  0.42315  1.0000
  H   H16       1.0  0.69498  0.41477  0.57685  1.0000
  H   H17       1.0  0.45462  0.83231  0.74303  1.0000
  H   H18       1.0  0.54538  0.16768  0.25696  1.0000
  H   H19       1.0  0.29707  0.73802  0.80320  1.0000
  H   H20       1.0  0.70293  0.26198  0.19680  1.0000
  H   H21       1.0  0.76637  0.77603  0.43490  1.0000
  H   H22       1.0  0.23363  0.22399  0.56511  1.0000
  H   H23       1.0  0.80922  0.86308  0.58270  1.0000
  H   H24       1.0  0.19079  0.13692  0.41731  1.0000
  H   H25       1.0  0.16374  0.52783  0.03479  1.0000
  H   H26       1.0  0.83628  0.47217  0.96521  1.0000
  H   H27       1.0  0.28563  0.53108  0.19294  1.0000
  H   H28       1.0  0.71440  0.46892  0.80705  1.0000
  H   H29       1.0  0.93387  0.50408  0.18844  1.0000
  H   H30       1.0  0.06617  0.49590  0.81155  1.0000
  H   H31       1.0  0.92673  0.64888  0.13393  1.0000
  H   H32       1.0  0.07329  0.35109  0.86607  1.0000
  H   H33       1.0  0.04601  0.65114  0.29350  1.0000
  H   H34       1.0  0.95401  0.34885  0.70649  1.0000
  H   H35       1.0  0.57311  0.62051  0.11968  1.0000
  H   H36       1.0  0.42691  0.37951  0.88033  1.0000
  H   H37       1.0  0.44090  0.62246  0.96584  1.0000
  H   H38       1.0  0.55912  0.37755  0.03415  1.0000
  H   H39       1.0  0.75327  0.77041  0.99866  1.0000
  H   H40       1.0  0.24673  0.22962  0.00134  1.0000
  H   H41       1.0  0.70774  0.85287  0.14964  1.0000
  H   H42       1.0  0.29226  0.14716  0.85036  1.0000
  H   H43       1.0  0.56846  0.86065  0.00011  1.0000
  H   H44       1.0  0.43153  0.13936  0.99989  1.0000
  C   C1        1.0  0.32883  0.52728  0.60126  1.0000
  C   C2        1.0  0.67116  0.47272  0.39874  1.0000
  C   C3        1.0  0.46237  0.64613  0.67992  1.0000
  C   C4        1.0  0.53761  0.35386  0.32008  1.0000
  C   C5        1.0  0.93399  0.94924  0.44796  1.0000
  C   C6        1.0  0.06600  0.05076  0.55204  1.0000
  C   C7        1.0  0.28101  0.96300  0.22392  1.0000
  C   C8        1.0  0.71897  0.03700  0.77607  1.0000
  C   C9        1.0  0.20967  0.78311  0.04864  1.0000
  C   C10       1.0  0.79031  0.21688  0.95136  1.0000
  C   C11       1.0  0.32673  0.70973  0.13080  1.0000
  C   C12       1.0  0.67329  0.29027  0.86920  1.0000
  C   C13       1.0  0.40271  0.78063  0.27088  1.0000
  C   C14       1.0  0.59730  0.21937  0.72913  1.0000
  C   C15       1.0  0.19906  0.58328  0.13519  1.0000
  C   C16       1.0  0.80095  0.41672  0.86482  1.0000
  C   C17       1.0  0.01648  0.59837  0.19144  1.0000
  C   C18       1.0  0.98353  0.40161  0.80855  1.0000
  C   C19       1.0  0.49976  0.68044  0.06355  1.0000
  C   C20       1.0  0.50026  0.31957  0.93644  1.0000
  C   C21       1.0  0.63927  0.79723  0.05265  1.0000
  C   C22       1.0  0.36074  0.20280  0.94736  1.0000
  N   N1        1.0  0.21755  0.55593  0.48619  1.0000
  N   N2        1.0  0.78244  0.44406  0.51381  1.0000
  N   N3        1.0  0.35832  0.74896  0.72134  1.0000
  N   N4        1.0  0.64167  0.25104  0.27865  1.0000
  N   N5        1.0  0.87351  0.83583  0.50173  1.0000
  N   N6        1.0  0.12649  0.16418  0.49827  1.0000
  N   N7        1.0  0.38135  0.90224  0.30825  1.0000
  N   N8        1.0  0.61863  0.09775  0.69175  1.0000
  N   N9        1.0  0.18810  0.90238  0.10085  1.0000
  N   N10       1.0  0.81189  0.09762  0.89915  1.0000
  O   O1        1.0  0.27341  0.07796  0.26251  1.0000
  O   O2        1.0  0.72657  0.92204  0.73749  1.0000
  O   O3        1.0  0.13543  0.73129  0.93368  1.0000
  O   O4        1.0  0.86458  0.26870  0.06632  1.0000
  O   O5        1.0  0.48808  0.72498  0.34917  1.0000
  O   O6        1.0  0.51192  0.27503  0.65085  1.0000
