data_image0
_chemical_formula_structural       Ag2H28C20S4N2O6
_chemical_formula_sum              "Ag2 H28 C20 S4 N2 O6"
_cell_length_a       7.67052
_cell_length_b       9.28894
_cell_length_c       9.28891
_cell_angle_alpha    109.547
_cell_angle_beta     89.9993
_cell_angle_gamma    90.0003

_space_group_name_H-M_alt    "P 1"
_space_group_IT_number       1

loop_
  _space_group_symop_operation_xyz
  'x, y, z'

loop_
  _atom_site_type_symbol
  _atom_site_label
  _atom_site_symmetry_multiplicity
  _atom_site_fract_x
  _atom_site_fract_y
  _atom_site_fract_z
  _atom_site_occupancy
  Ag  Ag1       1.0  0.50046  0.41447  0.58553  1.0000
  Ag  Ag2       1.0  0.00045  0.58552  0.41448  1.0000
  H   H1        1.0  0.49262  0.91217  0.29875  1.0000
  H   H2        1.0  0.99263  0.08782  0.70124  1.0000
  H   H3        1.0  0.99263  0.29876  0.91217  1.0000
  H   H4        1.0  0.49262  0.70124  0.08783  1.0000
  H   H5        1.0  0.64385  0.02629  0.43601  1.0000
  H   H6        1.0  0.14385  0.97370  0.56399  1.0000
  H   H7        1.0  0.14385  0.43601  0.02630  1.0000
  H   H8        1.0  0.64385  0.56399  0.97371  1.0000
  H   H9        1.0  0.60743  0.06641  0.26264  1.0000
  H   H10       1.0  0.10743  0.93358  0.73735  1.0000
  H   H11       1.0  0.10743  0.26265  0.06641  1.0000
  H   H12       1.0  0.60743  0.73735  0.93359  1.0000
  H   H13       1.0  0.15299  0.26442  0.35003  1.0000
  H   H14       1.0  0.65299  0.73558  0.64998  1.0000
  H   H15       1.0  0.65299  0.35003  0.26443  1.0000
  H   H16       1.0  0.15300  0.64998  0.73557  1.0000
  H   H17       1.0  0.33391  0.22022  0.22195  1.0000
  H   H18       1.0  0.83391  0.77979  0.77806  1.0000
  H   H19       1.0  0.83391  0.22195  0.22021  1.0000
  H   H20       1.0  0.33392  0.77805  0.77978  1.0000
  H   H21       1.0  0.95895  0.04098  0.36110  1.0000
  H   H22       1.0  0.45895  0.95902  0.63890  1.0000
  H   H23       1.0  0.45895  0.36111  0.04098  1.0000
  H   H24       1.0  0.95896  0.63890  0.95902  1.0000
  H   H25       1.0  0.82507  0.79383  0.20617  1.0000
  H   H26       1.0  0.32507  0.20618  0.79382  1.0000
  H   H27       1.0  0.35413  0.98283  0.01718  1.0000
  H   H28       1.0  0.85411  0.01717  0.98283  1.0000
  C   C1        1.0  0.54663  0.02749  0.34981  1.0000
  C   C2        1.0  0.04663  0.97250  0.65019  1.0000
  C   C3        1.0  0.04663  0.34981  0.02749  1.0000
  C   C4        1.0  0.54663  0.65019  0.97251  1.0000
  C   C5        1.0  0.24878  0.17596  0.29236  1.0000
  C   C6        1.0  0.74877  0.82404  0.70764  1.0000
  C   C7        1.0  0.74877  0.29236  0.17596  1.0000
  C   C8        1.0  0.24879  0.70764  0.82404  1.0000
  C   C9        1.0  0.16522  0.02835  0.19933  1.0000
  C   C10       1.0  0.66521  0.97165  0.80067  1.0000
  C   C11       1.0  0.66521  0.19933  0.02835  1.0000
  C   C12       1.0  0.16522  0.80067  0.97165  1.0000
  C   C13       1.0  0.01592  0.97405  0.25148  1.0000
  C   C14       1.0  0.51591  0.02595  0.74852  1.0000
  C   C15       1.0  0.51591  0.25148  0.97405  1.0000
  C   C16       1.0  0.01592  0.74852  0.02595  1.0000
  C   C17       1.0  0.94140  0.83501  0.16499  1.0000
  C   C18       1.0  0.44140  0.16499  0.83501  1.0000
  C   C19       1.0  0.23858  0.94069  0.05931  1.0000
  C   C20       1.0  0.73856  0.05931  0.94069  1.0000
  S   S1        1.0  0.37746  0.15683  0.45040  1.0000
  S   S2        1.0  0.87746  0.84317  0.54960  1.0000
  S   S3        1.0  0.87746  0.45040  0.15683  1.0000
  S   S4        1.0  0.37746  0.54960  0.84317  1.0000
  N   N1        1.0  0.89413  0.37509  0.62491  1.0000
  N   N2        1.0  0.39413  0.62490  0.37510  1.0000
  O   O1        1.0  0.81605  0.30226  0.69774  1.0000
  O   O2        1.0  0.31605  0.69773  0.30227  1.0000
  O   O3        1.0  0.05781  0.38098  0.61902  1.0000
  O   O4        1.0  0.55781  0.61902  0.38098  1.0000
  O   O5        1.0  0.80312  0.44744  0.55256  1.0000
  O   O6        1.0  0.30313  0.55255  0.44745  1.0000
