data_image0
_chemical_formula_structural       Cu2H36C36N4Cl4O8
_chemical_formula_sum              "Cu2 H36 C36 N4 Cl4 O8"
_cell_length_a       4.9076
_cell_length_b       10.6871
_cell_length_c       16.7418
_cell_angle_alpha    89.9997
_cell_angle_beta     90.0002
_cell_angle_gamma    94.81

_space_group_name_H-M_alt    "P 1"
_space_group_IT_number       1

loop_
  _space_group_symop_operation_xyz
  'x, y, z'

loop_
  _atom_site_type_symbol
  _atom_site_label
  _atom_site_symmetry_multiplicity
  _atom_site_fract_x
  _atom_site_fract_y
  _atom_site_fract_z
  _atom_site_occupancy
  Cu  Cu1       1.0  0.50000  0.50000  0.50000  1.0000
  Cu  Cu2       1.0  0.00000  1.00000  0.00000  1.0000
  H   H1        1.0  0.02003  0.66685  0.51481  1.0000
  H   H2        1.0  0.47997  0.83315  0.01481  1.0000
  H   H3        1.0  0.97996  0.33315  0.48519  1.0000
  H   H4        1.0  0.52004  0.16685  0.98519  1.0000
  H   H5        1.0  0.89474  0.88752  0.48390  1.0000
  H   H6        1.0  0.60525  0.61249  0.98390  1.0000
  H   H7        1.0  0.10526  0.11249  0.51610  1.0000
  H   H8        1.0  0.39476  0.38751  0.01610  1.0000
  H   H9        1.0  0.68683  0.06577  0.41813  1.0000
  H   H10       1.0  0.81316  0.43423  0.91813  1.0000
  H   H11       1.0  0.31317  0.93423  0.58187  1.0000
  H   H12       1.0  0.18684  0.56576  0.08187  1.0000
  H   H13       1.0  0.12041  0.80413  0.29416  1.0000
  H   H14       1.0  0.37958  0.69588  0.79416  1.0000
  H   H15       1.0  0.87958  0.19588  0.70584  1.0000
  H   H16       1.0  0.62043  0.30412  0.20584  1.0000
  H   H17       1.0  0.16312  0.58797  0.29947  1.0000
  H   H18       1.0  0.33688  0.91203  0.79947  1.0000
  H   H19       1.0  0.83688  0.41203  0.70053  1.0000
  H   H20       1.0  0.66313  0.08797  0.20053  1.0000
  H   H21       1.0  0.31810  0.30045  0.38765  1.0000
  H   H22       1.0  0.18190  0.19955  0.88765  1.0000
  H   H23       1.0  0.68190  0.69955  0.61235  1.0000
  H   H24       1.0  0.81810  0.80045  0.11235  1.0000
  H   H25       1.0  0.25812  0.37475  0.29488  1.0000
  H   H26       1.0  0.24188  0.12525  0.79488  1.0000
  H   H27       1.0  0.74188  0.62525  0.70512  1.0000
  H   H28       1.0  0.75812  0.87475  0.20512  1.0000
  H   H29       1.0  0.19649  0.57109  0.65675  1.0000
  H   H30       1.0  0.30351  0.92890  0.15675  1.0000
  H   H31       1.0  0.80350  0.42890  0.34325  1.0000
  H   H32       1.0  0.69650  0.07110  0.84325  1.0000
  H   H33       1.0  0.15901  0.73485  0.66600  1.0000
  H   H34       1.0  0.34099  0.76515  0.16600  1.0000
  H   H35       1.0  0.84099  0.26515  0.33400  1.0000
  H   H36       1.0  0.65901  0.23485  0.83400  1.0000
  C   C1        1.0  0.62430  0.74338  0.42859  1.0000
  C   C2        1.0  0.87569  0.75662  0.92859  1.0000
  C   C3        1.0  0.37570  0.25662  0.57141  1.0000
  C   C4        1.0  0.12432  0.24338  0.07141  1.0000
  C   C5        1.0  0.72600  0.86986  0.44197  1.0000
  C   C6        1.0  0.77399  0.63014  0.94197  1.0000
  C   C7        1.0  0.27400  0.13014  0.55803  1.0000
  C   C8        1.0  0.22602  0.36985  0.05803  1.0000
  C   C9        1.0  0.61167  0.96907  0.40491  1.0000
  C   C10       1.0  0.88831  0.53093  0.90491  1.0000
  C   C11       1.0  0.38832  0.03093  0.59509  1.0000
  C   C12       1.0  0.11170  0.46906  0.09508  1.0000
  C   C13       1.0  0.39322  0.94460  0.35142  1.0000
  C   C14       1.0  0.10677  0.55540  0.85143  1.0000
  C   C15       1.0  0.60677  0.05540  0.64858  1.0000
  C   C16       1.0  0.89324  0.44460  0.14857  1.0000
  C   C17       1.0  0.29084  0.82262  0.33540  1.0000
  C   C18       1.0  0.20915  0.67738  0.83541  1.0000
  C   C19       1.0  0.70916  0.17738  0.66460  1.0000
  C   C20       1.0  0.79085  0.32262  0.16459  1.0000
  C   C21       1.0  0.40131  0.72101  0.37375  1.0000
  C   C22       1.0  0.09868  0.77900  0.87375  1.0000
  C   C23       1.0  0.59868  0.27900  0.62625  1.0000
  C   C24       1.0  0.90133  0.22100  0.12625  1.0000
  C   C25       1.0  0.28879  0.59631  0.35398  1.0000
  C   C26       1.0  0.21120  0.90370  0.85398  1.0000
  C   C27       1.0  0.71120  0.40370  0.64602  1.0000
  C   C28       1.0  0.78881  0.09630  0.14602  1.0000
  C   C29       1.0  0.21311  0.37544  0.35942  1.0000
  C   C30       1.0  0.28689  0.12456  0.85942  1.0000
  C   C31       1.0  0.78689  0.62456  0.64058  1.0000
  C   C32       1.0  0.71311  0.87544  0.14058  1.0000
  C   C33       1.0  0.90459  0.35001  0.36929  1.0000
  C   C34       1.0  0.59541  0.14999  0.86928  1.0000
  C   C35       1.0  0.09541  0.64999  0.63072  1.0000
  C   C36       1.0  0.40459  0.85001  0.13072  1.0000
  N   N1        1.0  0.32513  0.49522  0.39386  1.0000
  N   N2        1.0  0.17487  0.00479  0.89386  1.0000
  N   N3        1.0  0.67487  0.50479  0.60614  1.0000
  N   N4        1.0  0.82513  0.99521  0.10614  1.0000
  Cl  Cl1       1.0  0.24540  0.06880  0.30572  1.0000
  Cl  Cl2       1.0  0.25458  0.43120  0.80572  1.0000
  Cl  Cl3       1.0  0.75459  0.93120  0.69428  1.0000
  Cl  Cl4       1.0  0.74542  0.56880  0.19427  1.0000
  O   O1        1.0  0.18465  0.66814  0.55051  1.0000
  O   O2        1.0  0.31535  0.83186  0.05051  1.0000
  O   O3        1.0  0.81535  0.33186  0.44949  1.0000
  O   O4        1.0  0.68465  0.16814  0.94949  1.0000
  O   O5        1.0  0.73600  0.65094  0.46433  1.0000
  O   O6        1.0  0.76399  0.84906  0.96433  1.0000
  O   O7        1.0  0.26400  0.34906  0.53567  1.0000
  O   O8        1.0  0.23601  0.15093  0.03567  1.0000
