data_image0
_chemical_formula_structural       CdH10C16N10
_chemical_formula_sum              "Cd1 H10 C16 N10"
_cell_length_a       6.8927
_cell_length_b       8.56982
_cell_length_c       8.84878
_cell_angle_alpha    65.8819
_cell_angle_beta     67.1156
_cell_angle_gamma    66.2335

_space_group_name_H-M_alt    "P 1"
_space_group_IT_number       1

loop_
  _space_group_symop_operation_xyz
  'x, y, z'

loop_
  _atom_site_type_symbol
  _atom_site_label
  _atom_site_symmetry_multiplicity
  _atom_site_fract_x
  _atom_site_fract_y
  _atom_site_fract_z
  _atom_site_occupancy
  Cd  Cd1       1.0  0.88073  0.99981  0.00003  1.0000
  H   H1        1.0  0.89403  0.30026  0.63923  1.0000
  H   H2        1.0  0.83392  0.69968  0.36097  1.0000
  H   H3        1.0  0.01927  0.34076  0.32107  1.0000
  H   H4        1.0  0.68086  0.65942  0.67908  1.0000
  H   H5        1.0  0.20216  0.06922  0.21986  1.0000
  H   H6        1.0  0.49132  0.93115  0.78003  1.0000
  H   H7        1.0  0.12569  0.74901  0.75132  1.0000
  H   H8        1.0  0.62768  0.25091  0.24857  1.0000
  H   H9        1.0  0.34144  0.74051  0.28661  1.0000
  H   H10       1.0  0.36918  0.25972  0.71316  1.0000
  C   C1        1.0  0.97652  0.18646  0.58843  1.0000
  C   C2        1.0  0.75202  0.81353  0.41170  1.0000
  C   C3        1.0  0.04503  0.20777  0.41308  1.0000
  C   C4        1.0  0.66603  0.79236  0.58701  1.0000
  C   C5        1.0  0.14813  0.05636  0.35680  1.0000
  C   C6        1.0  0.56168  0.94386  0.64315  1.0000
  C   C7        1.0  0.17923  0.88654  0.47869  1.0000
  C   C8        1.0  0.54547  0.11359  0.52118  1.0000
  C   C9        1.0  0.10431  0.87841  0.65309  1.0000
  C   C10       1.0  0.63722  0.12157  0.34685  1.0000
  C   C11       1.0  0.28646  0.72514  0.42486  1.0000
  C   C12       1.0  0.43744  0.27502  0.57495  1.0000
  C   C13       1.0  0.24542  0.62374  0.03982  1.0000
  C   C14       1.0  0.90866  0.37609  0.96016  1.0000
  C   C15       1.0  0.42753  0.34976  0.98359  1.0000
  C   C16       1.0  0.76078  0.64995  0.01665  1.0000
  N   N1        1.0  0.00654  0.02389  0.70611  1.0000
  N   N2        1.0  0.73763  0.97601  0.29393  1.0000
  N   N3        1.0  0.31549  0.56859  0.53778  1.0000
  N   N4        1.0  0.42230  0.43157  0.46202  1.0000
  N   N5        1.0  0.20581  0.76890  0.04697  1.0000
  N   N6        1.0  0.02153  0.23099  0.95269  1.0000
  N   N7        1.0  0.25956  0.46839  0.04222  1.0000
  N   N8        1.0  0.76958  0.53138  0.95825  1.0000
  N   N9        1.0  0.56570  0.22955  0.93621  1.0000
  N   N10       1.0  0.73175  0.77011  0.06389  1.0000
