data_image0
_chemical_formula_structural       Co2H38C34N10O8
_chemical_formula_sum              "Co2 H38 C34 N10 O8"
_cell_length_a       8.33382
_cell_length_b       9.01175
_cell_length_c       11.3195
_cell_angle_alpha    82.8955
_cell_angle_beta     86.0109
_cell_angle_gamma    78.8353

_space_group_name_H-M_alt    "P 1"
_space_group_IT_number       1

loop_
  _space_group_symop_operation_xyz
  'x, y, z'

loop_
  _atom_site_type_symbol
  _atom_site_label
  _atom_site_symmetry_multiplicity
  _atom_site_fract_x
  _atom_site_fract_y
  _atom_site_fract_z
  _atom_site_occupancy
  Co  Co1       1.0  0.52327  0.91424  0.93005  1.0000
  Co  Co2       1.0  0.47673  0.08576  0.06996  1.0000
  H   H1        1.0  0.38469  0.46529  0.90720  1.0000
  H   H2        1.0  0.61531  0.53471  0.09280  1.0000
  H   H3        1.0  0.37813  0.65099  0.94668  1.0000
  H   H4        1.0  0.62187  0.34901  0.05331  1.0000
  H   H5        1.0  0.83089  0.86715  0.59331  1.0000
  H   H6        1.0  0.16910  0.13284  0.40669  1.0000
  H   H7        1.0  0.73526  0.94195  0.72288  1.0000
  H   H8        1.0  0.26473  0.05805  0.27712  1.0000
  H   H9        1.0  0.87964  0.50532  0.44567  1.0000
  H   H10       1.0  0.12036  0.49469  0.55433  1.0000
  H   H11       1.0  0.92779  0.32399  0.29103  1.0000
  H   H12       1.0  0.07222  0.67603  0.70896  1.0000
  H   H13       1.0  0.76799  0.11515  0.30518  1.0000
  H   H14       1.0  0.23202  0.88486  0.69481  1.0000
  H   H15       1.0  0.57830  0.07651  0.47977  1.0000
  H   H16       1.0  0.42172  0.92349  0.52022  1.0000
  H   H17       1.0  0.53211  0.25685  0.63385  1.0000
  H   H18       1.0  0.46790  0.74313  0.36615  1.0000
  H   H19       1.0  0.26004  0.36639  0.72983  1.0000
  H   H20       1.0  0.73996  0.63362  0.27018  1.0000
  H   H21       1.0  0.11099  0.44452  0.92003  1.0000
  H   H22       1.0  0.88900  0.55549  0.07997  1.0000
  H   H23       1.0  0.98179  0.47110  0.79877  1.0000
  H   H24       1.0  0.01820  0.52890  0.20124  1.0000
  H   H25       1.0  0.01565  0.20339  0.99754  1.0000
  H   H26       1.0  0.98434  0.79661  0.00246  1.0000
  H   H27       1.0  0.85074  0.35787  0.98199  1.0000
  H   H28       1.0  0.14925  0.64213  0.01801  1.0000
  H   H29       1.0  0.79086  0.28899  0.78668  1.0000
  H   H30       1.0  0.20914  0.71101  0.21332  1.0000
  H   H31       1.0  0.93793  0.05197  0.70929  1.0000
  H   H32       1.0  0.06207  0.94803  0.29071  1.0000
  H   H33       1.0  0.06718  0.01259  0.83073  1.0000
  H   H34       1.0  0.93281  0.98742  0.16927  1.0000
  H   H35       1.0  0.03874  0.28761  0.63821  1.0000
  H   H36       1.0  0.96125  0.71240  0.36179  1.0000
  H   H37       1.0  0.20473  0.13338  0.65113  1.0000
  H   H38       1.0  0.79527  0.86662  0.34888  1.0000
  C   C1        1.0  0.52112  0.59416  0.79903  1.0000
  C   C2        1.0  0.47888  0.40584  0.20096  1.0000
  C   C3        1.0  0.68430  0.73856  0.68780  1.0000
  C   C4        1.0  0.31570  0.26144  0.31220  1.0000
  C   C5        1.0  0.66237  0.50886  0.63354  1.0000
  C   C6        1.0  0.33763  0.49113  0.36646  1.0000
  C   C7        1.0  0.70126  0.39373  0.54803  1.0000
  C   C8        1.0  0.29874  0.60627  0.45196  1.0000
  C   C9        1.0  0.81499  0.41048  0.45216  1.0000
  C   C10       1.0  0.18502  0.58952  0.54784  1.0000
  C   C11       1.0  0.84146  0.30906  0.36634  1.0000
  C   C12       1.0  0.15855  0.69094  0.63366  1.0000
  C   C13       1.0  0.75434  0.19009  0.37505  1.0000
  C   C14       1.0  0.24567  0.80991  0.62494  1.0000
  C   C15       1.0  0.64528  0.16986  0.47239  1.0000
  C   C16       1.0  0.35474  0.83015  0.52760  1.0000
  C   C17       1.0  0.61905  0.27038  0.55879  1.0000
  C   C18       1.0  0.38095  0.72961  0.44120  1.0000
  C   C19       1.0  0.73925  0.11648  0.91091  1.0000
  C   C20       1.0  0.26074  0.88352  0.08909  1.0000
  C   C21       1.0  0.31338  0.18299  0.86295  1.0000
  C   C22       1.0  0.68662  0.81701  0.13705  1.0000
  C   C23       1.0  0.18900  0.28943  0.78480  1.0000
  C   C24       1.0  0.81100  0.71057  0.21521  1.0000
  C   C25       1.0  0.05612  0.38411  0.85983  1.0000
  C   C26       1.0  0.94388  0.61590  0.14018  1.0000
  C   C27       1.0  0.94481  0.28573  0.93130  1.0000
  C   C28       1.0  0.05519  0.71427  0.06870  1.0000
  C   C29       1.0  0.86578  0.20166  0.84799  1.0000
  C   C30       1.0  0.13421  0.79834  0.15201  1.0000
  C   C31       1.0  0.99595  0.10557  0.77239  1.0000
  C   C32       1.0  0.00405  0.89443  0.22762  1.0000
  C   C33       1.0  0.10990  0.20357  0.70297  1.0000
  C   C34       1.0  0.89010  0.79643  0.29704  1.0000
  N   N1        1.0  0.58100  0.72601  0.78551  1.0000
  N   N2        1.0  0.41899  0.27399  0.21449  1.0000
  N   N3        1.0  0.72986  0.63301  0.61052  1.0000
  N   N4        1.0  0.27013  0.36698  0.38948  1.0000
  N   N5        1.0  0.55997  0.48200  0.72673  1.0000
  N   N6        1.0  0.44003  0.51800  0.27327  1.0000
  N   N7        1.0  0.41385  0.57030  0.88964  1.0000
  N   N8        1.0  0.58614  0.42970  0.11037  1.0000
  N   N9        1.0  0.74552  0.86655  0.66132  1.0000
  N   N10       1.0  0.25447  0.13345  0.33868  1.0000
  O   O1        1.0  0.70713  0.00198  0.86710  1.0000
  O   O2        1.0  0.29286  0.99802  0.13290  1.0000
  O   O3        1.0  0.66185  0.16702  0.00372  1.0000
  O   O4        1.0  0.33815  0.83298  0.99629  1.0000
  O   O5        1.0  0.34141  0.22682  0.96200  1.0000
  O   O6        1.0  0.65860  0.77319  0.03800  1.0000
  O   O7        1.0  0.38342  0.05667  0.82633  1.0000
  O   O8        1.0  0.61658  0.94333  0.17367  1.0000
