data_image0
_chemical_formula_structural       Zn2H48C20N8Cl4
_chemical_formula_sum              "Zn2 H48 C20 N8 Cl4"
_cell_length_a       6.04048
_cell_length_b       7.52282
_cell_length_c       18.4123
_cell_angle_alpha    96.7429
_cell_angle_beta     89.994
_cell_angle_gamma    113.663

_space_group_name_H-M_alt    "P 1"
_space_group_IT_number       1

loop_
  _space_group_symop_operation_xyz
  'x, y, z'

loop_
  _atom_site_type_symbol
  _atom_site_label
  _atom_site_symmetry_multiplicity
  _atom_site_fract_x
  _atom_site_fract_y
  _atom_site_fract_z
  _atom_site_occupancy
  Zn  Zn1       1.0  0.83068  0.00011  0.75002  1.0000
  Zn  Zn2       1.0  0.16933  0.99989  0.24998  1.0000
  H   H1        1.0  0.81651  0.24619  0.44006  1.0000
  H   H2        1.0  0.56980  0.75364  0.06008  1.0000
  H   H3        1.0  0.18347  0.75382  0.55993  1.0000
  H   H4        1.0  0.43021  0.24635  0.93992  1.0000
  H   H5        1.0  0.13647  0.33532  0.71743  1.0000
  H   H6        1.0  0.80102  0.66479  0.78264  1.0000
  H   H7        1.0  0.86356  0.66469  0.28258  1.0000
  H   H8        1.0  0.19898  0.33522  0.21737  1.0000
  H   H9        1.0  0.28155  0.23714  0.76273  1.0000
  H   H10       1.0  0.04438  0.76285  0.73737  1.0000
  H   H11       1.0  0.71848  0.76283  0.23728  1.0000
  H   H12       1.0  0.95561  0.23713  0.26264  1.0000
  H   H13       1.0  0.69249  0.51511  0.47716  1.0000
  H   H14       1.0  0.17730  0.48440  0.02284  1.0000
  H   H15       1.0  0.30750  0.48492  0.52283  1.0000
  H   H16       1.0  0.82271  0.51558  0.97716  1.0000
  H   H17       1.0  0.46209  0.20579  0.52038  1.0000
  H   H18       1.0  0.25597  0.79415  0.97974  1.0000
  H   H19       1.0  0.53789  0.79424  0.47961  1.0000
  H   H20       1.0  0.74404  0.20583  0.02027  1.0000
  H   H21       1.0  0.26227  0.01017  0.65472  1.0000
  H   H22       1.0  0.25173  0.98986  0.84544  1.0000
  H   H23       1.0  0.73776  0.98984  0.34528  1.0000
  H   H24       1.0  0.74827  0.01013  0.15457  1.0000
  H   H25       1.0  0.61706  0.10109  0.57164  1.0000
  H   H26       1.0  0.51553  0.89902  0.92854  1.0000
  H   H27       1.0  0.38292  0.89893  0.42835  1.0000
  H   H28       1.0  0.48448  0.10097  0.07147  1.0000
  H   H29       1.0  0.49595  0.44506  0.63614  1.0000
  H   H30       1.0  0.05061  0.55493  0.86401  1.0000
  H   H31       1.0  0.50404  0.55495  0.36386  1.0000
  H   H32       1.0  0.94941  0.44506  0.13599  1.0000
  H   H33       1.0  0.12407  0.13304  0.60645  1.0000
  H   H34       1.0  0.99056  0.86689  0.89364  1.0000
  H   H35       1.0  0.87592  0.86695  0.39356  1.0000
  H   H36       1.0  0.00941  0.13307  0.10637  1.0000
  H   H37       1.0  0.74273  0.62529  0.57048  1.0000
  H   H38       1.0  0.11763  0.37465  0.92948  1.0000
  H   H39       1.0  0.25726  0.37474  0.42952  1.0000
  H   H40       1.0  0.88237  0.62533  0.07052  1.0000
  H   H41       1.0  0.63112  0.31834  0.68352  1.0000
  H   H42       1.0  0.31254  0.68163  0.81663  1.0000
  H   H43       1.0  0.36889  0.68166  0.31647  1.0000
  H   H44       1.0  0.68746  0.31836  0.18338  1.0000
  H   H45       1.0  0.95541  0.16763  0.50779  1.0000
  H   H46       1.0  0.78734  0.83259  0.99237  1.0000
  H   H47       1.0  0.04457  0.83240  0.49220  1.0000
  H   H48       1.0  0.21267  0.16739  0.00762  1.0000
  C   C1        1.0  0.59792  0.23857  0.56640  1.0000
  C   C2        1.0  0.35905  0.76149  0.93373  1.0000
  C   C3        1.0  0.40206  0.76147  0.43360  1.0000
  C   C4        1.0  0.64095  0.23851  0.06627  1.0000
  C   C5        1.0  0.81645  0.55642  0.52663  1.0000
  C   C6        1.0  0.26011  0.44341  0.97334  1.0000
  C   C7        1.0  0.18354  0.44360  0.47336  1.0000
  C   C8        1.0  0.73990  0.55657  0.02666  1.0000
  C   C9        1.0  0.25468  0.15244  0.65134  1.0000
  C   C10       1.0  0.10198  0.84752  0.84878  1.0000
  C   C11       1.0  0.74532  0.84756  0.34865  1.0000
  C   C12       1.0  0.89802  0.15248  0.15123  1.0000
  C   C13       1.0  0.50463  0.30214  0.63747  1.0000
  C   C14       1.0  0.20219  0.69783  0.86267  1.0000
  C   C15       1.0  0.49536  0.69787  0.36253  1.0000
  C   C16       1.0  0.79782  0.30216  0.13733  1.0000
  C   C17       1.0  0.93706  0.29653  0.49050  1.0000
  C   C18       1.0  0.64025  0.70356  0.00962  1.0000
  C   C19       1.0  0.06292  0.70350  0.50949  1.0000
  C   C20       1.0  0.35977  0.29643  0.99038  1.0000
  N   N1        1.0  0.15635  0.20726  0.72025  1.0000
  N   N2        1.0  0.94901  0.79278  0.77985  1.0000
  N   N3        1.0  0.84368  0.79273  0.27976  1.0000
  N   N4        1.0  0.05095  0.20719  0.22017  1.0000
  N   N5        1.0  0.83354  0.38191  0.54942  1.0000
  N   N6        1.0  0.45155  0.61821  0.95067  1.0000
  N   N7        1.0  0.16644  0.61812  0.45057  1.0000
  N   N8        1.0  0.54846  0.38178  0.04932  1.0000
  Cl  Cl1       1.0  0.52710  0.81023  0.66853  1.0000
  Cl  Cl2       1.0  0.71660  0.18987  0.83149  1.0000
  Cl  Cl3       1.0  0.47292  0.18978  0.33147  1.0000
  Cl  Cl4       1.0  0.28339  0.81013  0.16851  1.0000
