data_image0
_chemical_formula_structural       Sn2H20C12O12
_chemical_formula_sum              "Sn2 H20 C12 O12"
_cell_length_a       5.74759
_cell_length_b       7.75851
_cell_length_c       10.3261
_cell_angle_alpha    89.9997
_cell_angle_beta     89.9995
_cell_angle_gamma    105.748

_space_group_name_H-M_alt    "P 1"
_space_group_IT_number       1

loop_
  _space_group_symop_operation_xyz
  'x, y, z'

loop_
  _atom_site_type_symbol
  _atom_site_label
  _atom_site_symmetry_multiplicity
  _atom_site_fract_x
  _atom_site_fract_y
  _atom_site_fract_z
  _atom_site_occupancy
  Sn  Sn1       1.0  0.50001  0.49999  0.50000  1.0000
  Sn  Sn2       1.0  1.00000  0.00001  0.00000  1.0000
  H   H1        1.0  0.62387  0.39412  0.27092  1.0000
  H   H2        1.0  0.87615  0.10588  0.77092  1.0000
  H   H3        1.0  0.37614  0.60589  0.72908  1.0000
  H   H4        1.0  0.12387  0.89410  0.22908  1.0000
  H   H5        1.0  0.86545  0.40626  0.38414  1.0000
  H   H6        1.0  0.63457  0.09373  0.88413  1.0000
  H   H7        1.0  0.13457  0.59374  0.61585  1.0000
  H   H8        1.0  0.36543  0.90626  0.11586  1.0000
  H   H9        1.0  0.82758  0.60687  0.31100  1.0000
  H   H10       1.0  0.67244  0.89312  0.81101  1.0000
  H   H11       1.0  0.17243  0.39313  0.68899  1.0000
  H   H12       1.0  0.32757  0.10686  0.18900  1.0000
  H   H13       1.0  0.52828  0.20202  0.64966  1.0000
  H   H14       1.0  0.97172  0.29799  0.14967  1.0000
  H   H15       1.0  0.47172  0.79799  0.35033  1.0000
  H   H16       1.0  0.02828  0.70201  0.85033  1.0000
  H   H17       1.0  0.70884  0.37936  0.71590  1.0000
  H   H18       1.0  0.79116  0.12065  0.21590  1.0000
  H   H19       1.0  0.29116  0.62064  0.28410  1.0000
  H   H20       1.0  0.20884  0.87936  0.78410  1.0000
  C   C1        1.0  0.86376  0.99271  0.43128  1.0000
  C   C2        1.0  0.63622  0.50731  0.93128  1.0000
  C   C3        1.0  0.13623  0.00733  0.56873  1.0000
  C   C4        1.0  0.36375  0.49269  0.06872  1.0000
  C   C5        1.0  0.90519  0.87670  0.53703  1.0000
  C   C6        1.0  0.59479  0.62332  0.03703  1.0000
  C   C7        1.0  0.09480  0.12333  0.46297  1.0000
  C   C8        1.0  0.40519  0.37668  0.96297  1.0000
  C   C9        1.0  0.73455  0.47351  0.34748  1.0000
  C   C10       1.0  0.76547  0.02649  0.84748  1.0000
  C   C11       1.0  0.26546  0.52649  0.65252  1.0000
  C   C12       1.0  0.23454  0.97350  0.15252  1.0000
  O   O1        1.0  0.65558  0.31732  0.63117  1.0000
  O   O2        1.0  0.84443  0.18269  0.13117  1.0000
  O   O3        1.0  0.34443  0.68268  0.36883  1.0000
  O   O4        1.0  0.15558  0.81731  0.86883  1.0000
  O   O5        1.0  0.79533  0.72694  0.58549  1.0000
  O   O6        1.0  0.70467  0.77306  0.08549  1.0000
  O   O7        1.0  0.20468  0.27308  0.41451  1.0000
  O   O8        1.0  0.29531  0.22693  0.91451  1.0000
  O   O9        1.0  0.70127  0.98541  0.34769  1.0000
  O   O10       1.0  0.79871  0.51458  0.84769  1.0000
  O   O11       1.0  0.29872  0.01461  0.65231  1.0000
  O   O12       1.0  0.20127  0.48541  0.15231  1.0000
