data_image0
_chemical_formula_structural       Mn2H28C36N8O20
_chemical_formula_sum              "Mn2 H28 C36 N8 O20"
_cell_length_a       4.93352
_cell_length_b       11.7077
_cell_length_c       15.2332
_cell_angle_alpha    88.1395
_cell_angle_beta     90.4259
_cell_angle_gamma    83.7784

_space_group_name_H-M_alt    "P 1"
_space_group_IT_number       1

loop_
  _space_group_symop_operation_xyz
  'x, y, z'

loop_
  _atom_site_type_symbol
  _atom_site_label
  _atom_site_symmetry_multiplicity
  _atom_site_fract_x
  _atom_site_fract_y
  _atom_site_fract_z
  _atom_site_occupancy
  Mn  Mn1       1.0  0.53926  0.42509  0.33262  1.0000
  Mn  Mn2       1.0  0.46074  0.57494  0.66735  1.0000
  H   H1        1.0  0.89723  0.99062  0.24554  1.0000
  H   H2        1.0  0.10281  0.00944  0.75449  1.0000
  H   H3        1.0  0.68669  0.17547  0.30470  1.0000
  H   H4        1.0  0.31339  0.82454  0.69534  1.0000
  H   H5        1.0  0.14298  0.98924  0.45981  1.0000
  H   H6        1.0  0.85710  0.01077  0.54023  1.0000
  H   H7        1.0  0.44972  0.05151  0.15088  1.0000
  H   H8        1.0  0.55031  0.94846  0.84912  1.0000
  H   H9        1.0  0.05828  0.17126  0.21628  1.0000
  H   H10       1.0  0.94173  0.82870  0.78372  1.0000
  H   H11       1.0  0.04748  0.41372  0.99779  1.0000
  H   H12       1.0  0.95245  0.58622  0.00220  1.0000
  H   H13       1.0  0.16727  0.78511  0.44952  1.0000
  H   H14       1.0  0.83263  0.21491  0.55048  1.0000
  H   H15       1.0  0.90560  0.77979  0.24138  1.0000
  H   H16       1.0  0.09441  0.22022  0.75865  1.0000
  H   H17       1.0  0.79410  0.03388  0.03947  1.0000
  H   H18       1.0  0.20593  0.96612  0.96053  1.0000
  H   H19       1.0  0.41112  0.38598  0.89238  1.0000
  H   H20       1.0  0.58883  0.61398  0.10761  1.0000
  H   H21       1.0  0.02262  0.38292  0.42412  1.0000
  H   H22       1.0  0.97730  0.61709  0.57582  1.0000
  H   H23       1.0  0.36043  0.48146  0.17837  1.0000
  H   H24       1.0  0.63971  0.51847  0.82162  1.0000
  H   H25       1.0  0.79511  0.42203  0.49471  1.0000
  H   H26       1.0  0.20466  0.57798  0.50524  1.0000
  H   H27       1.0  0.10153  0.53761  0.23339  1.0000
  H   H28       1.0  0.89849  0.46236  0.76659  1.0000
  C   C1        1.0  0.43226  0.68165  0.37505  1.0000
  C   C2        1.0  0.56770  0.31836  0.62497  1.0000
  C   C3        1.0  0.65716  0.68116  0.30919  1.0000
  C   C4        1.0  0.34277  0.31886  0.69081  1.0000
  C   C5        1.0  0.63578  0.88763  0.31826  1.0000
  C   C6        1.0  0.36424  0.11239  0.68177  1.0000
  C   C7        1.0  0.73241  0.99192  0.29285  1.0000
  C   C8        1.0  0.26765  0.00812  0.70718  1.0000
  C   C9        1.0  0.61491  0.09454  0.32650  1.0000
  C   C10       1.0  0.38514  0.90548  0.67353  1.0000
  C   C11       1.0  0.40073  0.09457  0.38687  1.0000
  C   C12       1.0  0.59932  0.90546  0.61316  1.0000
  C   C13       1.0  0.30664  0.99052  0.41271  1.0000
  C   C14       1.0  0.69337  0.00949  0.58732  1.0000
  C   C15       1.0  0.42098  0.88759  0.37878  1.0000
  C   C16       1.0  0.57899  0.11244  0.62124  1.0000
  C   C17       1.0  0.26496  0.20192  0.42607  1.0000
  C   C18       1.0  0.73512  0.79812  0.57396  1.0000
  C   C19       1.0  0.82552  0.13807  0.93005  1.0000
  C   C20       1.0  0.17447  0.86192  0.06995  1.0000
  C   C21       1.0  0.70172  0.24651  0.88246  1.0000
  C   C22       1.0  0.29824  0.75347  0.11754  1.0000
  C   C23       1.0  0.47465  0.16802  0.03969  1.0000
  C   C24       1.0  0.52538  0.83196  0.96032  1.0000
  C   C25       1.0  0.36008  0.13059  0.11781  1.0000
  C   C26       1.0  0.63996  0.86940  0.88221  1.0000
  C   C27       1.0  0.14145  0.19652  0.15363  1.0000
  C   C28       1.0  0.85856  0.80345  0.84639  1.0000
  C   C29       1.0  0.02575  0.29887  0.11109  1.0000
  C   C30       1.0  0.97427  0.70110  0.88891  1.0000
  C   C31       1.0  0.13378  0.33466  0.03172  1.0000
  C   C32       1.0  0.86623  0.66529  0.96827  1.0000
  C   C33       1.0  0.36181  0.27083  0.99670  1.0000
  C   C34       1.0  0.63823  0.72914  0.00330  1.0000
  C   C35       1.0  0.79528  0.36972  0.15476  1.0000
  C   C36       1.0  0.20476  0.63027  0.84520  1.0000
  N   N1        1.0  0.32867  0.78376  0.40471  1.0000
  N   N2        1.0  0.67126  0.21626  0.59529  1.0000
  N   N3        1.0  0.74537  0.78344  0.28617  1.0000
  N   N4        1.0  0.25461  0.21658  0.71385  1.0000
  N   N5        1.0  0.70020  0.10598  0.00408  1.0000
  N   N6        1.0  0.29981  0.89401  0.99592  1.0000
  N   N7        1.0  0.48269  0.30574  0.91973  1.0000
  N   N8        1.0  0.51727  0.69423  0.08026  1.0000
  O   O1        1.0  0.34722  0.58818  0.39944  1.0000
  O   O2        1.0  0.65278  0.41183  0.60058  1.0000
  O   O3        1.0  0.75364  0.58818  0.27814  1.0000
  O   O4        1.0  0.24615  0.41186  0.72182  1.0000
  O   O5        1.0  0.10033  0.18954  0.48762  1.0000
  O   O6        1.0  0.89969  0.81051  0.51240  1.0000
  O   O7        1.0  0.31808  0.30120  0.39579  1.0000
  O   O8        1.0  0.68205  0.69882  0.60421  1.0000
  O   O9        1.0  0.03505  0.08286  0.90067  1.0000
  O   O10       1.0  0.96500  0.91715  0.09934  1.0000
  O   O11       1.0  0.80331  0.27892  0.81234  1.0000
  O   O12       1.0  0.19669  0.72108  0.18765  1.0000
  O   O13       1.0  0.74149  0.33546  0.23271  1.0000
  O   O14       1.0  0.25857  0.66456  0.76726  1.0000
  O   O15       1.0  0.66944  0.45572  0.11334  1.0000
  O   O16       1.0  0.33053  0.54424  0.88660  1.0000
  O   O17       1.0  0.84207  0.42854  0.43182  1.0000
  O   O18       1.0  0.15789  0.57152  0.56813  1.0000
  O   O19       1.0  0.24140  0.47155  0.22967  1.0000
  O   O20       1.0  0.75855  0.52840  0.77028  1.0000
