data_image0
_chemical_formula_structural       Ni2H12C12S4Br4N4
_chemical_formula_sum              "Ni2 H12 C12 S4 Br4 N4"
_cell_length_a       3.76712
_cell_length_b       11.5006
_cell_length_c       11.9472
_cell_angle_alpha    79.7211
_cell_angle_beta     80.9528
_cell_angle_gamma    80.4284

_space_group_name_H-M_alt    "P 1"
_space_group_IT_number       1

loop_
  _space_group_symop_operation_xyz
  'x, y, z'

loop_
  _atom_site_type_symbol
  _atom_site_label
  _atom_site_symmetry_multiplicity
  _atom_site_fract_x
  _atom_site_fract_y
  _atom_site_fract_z
  _atom_site_occupancy
  Ni  Ni1       1.0  0.57945  0.75011  0.74977  1.0000
  Ni  Ni2       1.0  0.42056  0.24989  0.25023  1.0000
  H   H1        1.0  0.63185  0.57836  0.98502  1.0000
  H   H2        1.0  0.70115  0.92155  0.51454  1.0000
  H   H3        1.0  0.36810  0.42164  0.01498  1.0000
  H   H4        1.0  0.29886  0.07845  0.48546  1.0000
  H   H5        1.0  0.21682  0.91639  0.13928  1.0000
  H   H6        1.0  0.77946  0.58379  0.36014  1.0000
  H   H7        1.0  0.78320  0.08361  0.86072  1.0000
  H   H8        1.0  0.22055  0.41622  0.63986  1.0000
  H   H9        1.0  0.32293  0.94889  0.90823  1.0000
  H   H10       1.0  0.67809  0.55166  0.59120  1.0000
  H   H11       1.0  0.67708  0.05111  0.09178  1.0000
  H   H12       1.0  0.32193  0.44834  0.40880  1.0000
  C   C1        1.0  0.52884  0.66814  0.00199  1.0000
  C   C2        1.0  0.70398  0.83190  0.49755  1.0000
  C   C3        1.0  0.47114  0.33186  0.99801  1.0000
  C   C4        1.0  0.29602  0.16810  0.50245  1.0000
  C   C5        1.0  0.30956  0.84954  0.08314  1.0000
  C   C6        1.0  0.74826  0.65061  0.41630  1.0000
  C   C7        1.0  0.69044  0.15045  0.91687  1.0000
  C   C8        1.0  0.25175  0.34939  0.58370  1.0000
  C   C9        1.0  0.36521  0.86510  0.96587  1.0000
  C   C10       1.0  0.69763  0.63524  0.53358  1.0000
  C   C11       1.0  0.63479  0.13490  0.03413  1.0000
  C   C12       1.0  0.30238  0.36476  0.46641  1.0000
  S   S1        1.0  0.41635  0.70153  0.13760  1.0000
  S   S2        1.0  0.76490  0.79836  0.36193  1.0000
  S   S3        1.0  0.58363  0.29846  0.86240  1.0000
  S   S4        1.0  0.23510  0.20165  0.63807  1.0000
  Br  Br1       1.0  0.14230  0.59042  0.78268  1.0000
  Br  Br2       1.0  0.01361  0.90973  0.71701  1.0000
  Br  Br3       1.0  0.85770  0.40958  0.21731  1.0000
  Br  Br4       1.0  0.98638  0.09027  0.28299  1.0000
  N   N1        1.0  0.48793  0.76143  0.92035  1.0000
  N   N2        1.0  0.67088  0.73884  0.57915  1.0000
  N   N3        1.0  0.51207  0.23857  0.07965  1.0000
  N   N4        1.0  0.32913  0.26116  0.42085  1.0000
