data_image0
_chemical_formula_structural       Cu2H20C18S2N6O8
_chemical_formula_sum              "Cu2 H20 C18 S2 N6 O8"
_cell_length_a       8.17886
_cell_length_b       8.17884
_cell_length_c       9.30033
_cell_angle_alpha    98.1545
_cell_angle_beta     98.1543
_cell_angle_gamma    112.974

_space_group_name_H-M_alt    "P 1"
_space_group_IT_number       1

loop_
  _space_group_symop_operation_xyz
  'x, y, z'

loop_
  _atom_site_type_symbol
  _atom_site_label
  _atom_site_symmetry_multiplicity
  _atom_site_fract_x
  _atom_site_fract_y
  _atom_site_fract_z
  _atom_site_occupancy
  Cu  Cu1       1.0  0.21996  0.77836  0.26968  1.0000
  Cu  Cu2       1.0  0.77836  0.21995  0.76968  1.0000
  H   H1        1.0  0.10177  0.08404  0.51737  1.0000
  H   H2        1.0  0.08405  0.10178  0.01737  1.0000
  H   H3        1.0  0.37617  0.22469  0.13810  1.0000
  H   H4        1.0  0.22469  0.37617  0.63810  1.0000
  H   H5        1.0  0.55821  0.56107  0.19266  1.0000
  H   H6        1.0  0.56106  0.55821  0.69266  1.0000
  H   H7        1.0  0.79318  0.72179  0.42112  1.0000
  H   H8        1.0  0.72179  0.79318  0.92112  1.0000
  H   H9        1.0  0.86090  0.55721  0.61179  1.0000
  H   H10       1.0  0.55721  0.86090  0.11179  1.0000
  H   H11       1.0  0.52357  0.87135  0.64935  1.0000
  H   H12       1.0  0.87135  0.52357  0.14936  1.0000
  H   H13       1.0  0.54648  0.77029  0.47575  1.0000
  H   H14       1.0  0.77030  0.54648  0.97575  1.0000
  H   H15       1.0  0.19084  0.78967  0.54320  1.0000
  H   H16       1.0  0.78967  0.19084  0.04320  1.0000
  H   H17       1.0  0.26867  0.50075  0.34169  1.0000
  H   H18       1.0  0.50075  0.26868  0.84170  1.0000
  H   H19       1.0  0.04472  0.48411  0.37220  1.0000
  H   H20       1.0  0.48410  0.04473  0.87221  1.0000
  C   C1        1.0  0.51672  0.20174  0.34678  1.0000
  C   C2        1.0  0.20173  0.51672  0.84678  1.0000
  C   C3        1.0  0.47973  0.29534  0.23981  1.0000
  C   C4        1.0  0.29534  0.47972  0.73980  1.0000
  C   C5        1.0  0.58164  0.48169  0.27157  1.0000
  C   C6        1.0  0.48168  0.58164  0.77157  1.0000
  C   C7        1.0  0.71808  0.57525  0.40400  1.0000
  C   C8        1.0  0.57524  0.71808  0.90399  1.0000
  C   C9        1.0  0.75816  0.48505  0.50923  1.0000
  C   C10       1.0  0.48505  0.75816  0.00923  1.0000
  C   C11       1.0  0.65467  0.29601  0.47840  1.0000
  C   C12       1.0  0.29601  0.65467  0.97839  1.0000
  C   C13       1.0  0.47381  0.84165  0.52859  1.0000
  C   C14       1.0  0.84165  0.47381  0.02859  1.0000
  C   C15       1.0  0.27039  0.73709  0.48103  1.0000
  C   C16       1.0  0.73710  0.27039  0.98104  1.0000
  C   C17       1.0  0.18916  0.56906  0.38495  1.0000
  C   C18       1.0  0.56906  0.18916  0.88495  1.0000
  S   S1        1.0  0.96703  0.02259  0.28308  1.0000
  S   S2        1.0  0.02260  0.96704  0.78308  1.0000
  N   N1        1.0  0.43746  0.02341  0.35471  1.0000
  N   N2        1.0  0.02341  0.43746  0.85471  1.0000
  N   N3        1.0  0.52537  0.01627  0.48422  1.0000
  N   N4        1.0  0.01627  0.52536  0.98422  1.0000
  N   N5        1.0  0.65581  0.17269  0.56253  1.0000
  N   N6        1.0  0.17269  0.65580  0.06253  1.0000
  O   O1        1.0  0.11547  0.14700  0.43043  1.0000
  O   O2        1.0  0.14701  0.11547  0.93043  1.0000
  O   O3        1.0  0.78808  0.98961  0.31270  1.0000
  O   O4        1.0  0.98962  0.78808  0.81270  1.0000
  O   O5        1.0  0.01639  0.13463  0.17196  1.0000
  O   O6        1.0  0.13463  0.01640  0.67196  1.0000
  O   O7        1.0  0.99182  0.85283  0.24992  1.0000
  O   O8        1.0  0.85284  0.99183  0.74993  1.0000
