data_image0
_chemical_formula_structural       Mo4H52C44N12O12
_chemical_formula_sum              "Mo4 H52 C44 N12 O12"
_cell_length_a       9.61164
_cell_length_b       12.2521
_cell_length_c       12.3585
_cell_angle_alpha    90
_cell_angle_beta     112.865
_cell_angle_gamma    90

_space_group_name_H-M_alt    "P 1"
_space_group_IT_number       1

loop_
  _space_group_symop_operation_xyz
  'x, y, z'

loop_
  _atom_site_type_symbol
  _atom_site_label
  _atom_site_symmetry_multiplicity
  _atom_site_fract_x
  _atom_site_fract_y
  _atom_site_fract_z
  _atom_site_occupancy
  Mo  Mo1       1.0  0.84815  0.85111  0.00070  1.0000
  Mo  Mo2       1.0  0.15185  0.35111  0.99930  1.0000
  Mo  Mo3       1.0  0.15257  0.64890  0.00067  1.0000
  Mo  Mo4       1.0  0.84743  0.14890  0.99933  1.0000
  H   H1        1.0  0.25151  0.82673  0.20014  1.0000
  H   H2        1.0  0.74849  0.32673  0.79986  1.0000
  H   H3        1.0  0.94845  0.67327  0.20016  1.0000
  H   H4        1.0  0.05155  0.17327  0.79984  1.0000
  H   H5        1.0  0.24865  0.17280  0.19324  1.0000
  H   H6        1.0  0.75135  0.67280  0.80676  1.0000
  H   H7        1.0  0.94445  0.32720  0.19318  1.0000
  H   H8        1.0  0.05555  0.82720  0.80682  1.0000
  H   H9        1.0  0.50699  0.92243  0.27054  1.0000
  H   H10       1.0  0.49301  0.42243  0.72946  1.0000
  H   H11       1.0  0.76346  0.57750  0.27069  1.0000
  H   H12       1.0  0.23654  0.07750  0.72931  1.0000
  H   H13       1.0  0.66203  0.09187  0.30827  1.0000
  H   H14       1.0  0.33797  0.59187  0.69173  1.0000
  H   H15       1.0  0.64629  0.40802  0.30849  1.0000
  H   H16       1.0  0.35371  0.90802  0.69151  1.0000
  H   H17       1.0  0.49890  0.17288  0.27016  1.0000
  H   H18       1.0  0.50110  0.67288  0.72984  1.0000
  H   H19       1.0  0.77130  0.32706  0.27027  1.0000
  H   H20       1.0  0.22870  0.82706  0.72973  1.0000
  H   H21       1.0  0.57304  0.15335  0.09894  1.0000
  H   H22       1.0  0.42696  0.65335  0.90106  1.0000
  H   H23       1.0  0.52589  0.34666  0.09911  1.0000
  H   H24       1.0  0.47411  0.84667  0.90089  1.0000
  H   H25       1.0  0.39716  0.08786  0.06524  1.0000
  H   H26       1.0  0.60284  0.58786  0.93476  1.0000
  H   H27       1.0  0.66812  0.41214  0.06540  1.0000
  H   H28       1.0  0.33188  0.91214  0.93460  1.0000
  H   H29       1.0  0.56584  0.00940  0.10651  1.0000
  H   H30       1.0  0.43416  0.50940  0.89349  1.0000
  H   H31       1.0  0.54080  0.49061  0.10678  1.0000
  H   H32       1.0  0.45920  0.99061  0.89322  1.0000
  H   H33       1.0  0.41595  0.16267  0.42777  1.0000
  H   H34       1.0  0.58405  0.66267  0.57223  1.0000
  H   H35       1.0  0.01178  0.33730  0.42777  1.0000
  H   H36       1.0  0.98823  0.83730  0.57223  1.0000
  H   H37       1.0  0.49409  0.16448  0.64501  1.0000
  H   H38       1.0  0.50591  0.66448  0.35499  1.0000
  H   H39       1.0  0.15102  0.33555  0.64500  1.0000
  H   H40       1.0  0.84898  0.83555  0.35500  1.0000
  H   H41       1.0  0.62588  0.00511  0.76393  1.0000
  H   H42       1.0  0.37412  0.50511  0.23607  1.0000
  H   H43       1.0  0.13817  0.49493  0.76394  1.0000
  H   H44       1.0  0.86183  0.99493  0.23606  1.0000
  H   H45       1.0  0.68225  0.84369  0.66792  1.0000
  H   H46       1.0  0.31775  0.34369  0.33208  1.0000
  H   H47       1.0  0.98576  0.65634  0.66795  1.0000
  H   H48       1.0  0.01423  0.15634  0.33205  1.0000
  H   H49       1.0  0.60799  0.84180  0.44989  1.0000
  H   H50       1.0  0.39201  0.34180  0.55011  1.0000
  H   H51       1.0  0.84203  0.65823  0.44994  1.0000
  H   H52       1.0  0.15797  0.15823  0.55006  1.0000
  C   C1        1.0  0.21175  0.91076  0.18812  1.0000
  C   C2        1.0  0.78825  0.41076  0.81188  1.0000
  C   C3        1.0  0.97620  0.58926  0.18810  1.0000
  C   C4        1.0  0.02380  0.08926  0.81190  1.0000
  C   C5        1.0  0.21084  0.08838  0.18542  1.0000
  C   C6        1.0  0.78915  0.58838  0.81459  1.0000
  C   C7        1.0  0.97443  0.41163  0.18537  1.0000
  C   C8        1.0  0.02557  0.91163  0.81463  1.0000
  C   C9        1.0  0.46815  0.00022  0.29360  1.0000
  C   C10       1.0  0.53185  0.50022  0.70640  1.0000
  C   C11       1.0  0.82540  0.49975  0.29369  1.0000
  C   C12       1.0  0.17460  0.99975  0.70631  1.0000
  C   C13       1.0  0.54094  0.09415  0.25232  1.0000
  C   C14       1.0  0.45906  0.59415  0.74768  1.0000
  C   C15       1.0  0.71141  0.40577  0.25248  1.0000
  C   C16       1.0  0.28859  0.90577  0.74751  1.0000
  C   C17       1.0  0.51725  0.08547  0.12352  1.0000
  C   C18       1.0  0.48275  0.58547  0.87648  1.0000
  C   C19       1.0  0.60631  0.41451  0.12372  1.0000
  C   C20       1.0  0.39369  0.91451  0.87628  1.0000
  C   C21       1.0  0.50657  0.00150  0.42455  1.0000
  C   C22       1.0  0.49343  0.50150  0.57544  1.0000
  C   C23       1.0  0.91796  0.49848  0.42463  1.0000
  C   C24       1.0  0.08204  0.99848  0.57537  1.0000
  C   C25       1.0  0.47392  0.09215  0.47980  1.0000
  C   C26       1.0  0.52608  0.59215  0.52020  1.0000
  C   C27       1.0  0.00583  0.40781  0.47981  1.0000
  C   C28       1.0  0.99417  0.90781  0.52019  1.0000
  C   C29       1.0  0.51700  0.09340  0.60138  1.0000
  C   C30       1.0  0.48300  0.59339  0.39862  1.0000
  C   C31       1.0  0.08444  0.40660  0.60138  1.0000
  C   C32       1.0  0.91556  0.90660  0.39862  1.0000
  C   C33       1.0  0.59208  0.00389  0.66902  1.0000
  C   C34       1.0  0.40792  0.50389  0.33098  1.0000
  C   C35       1.0  0.07705  0.49612  0.66903  1.0000
  C   C36       1.0  0.92295  0.99612  0.33097  1.0000
  C   C37       1.0  0.62407  0.91317  0.61437  1.0000
  C   C38       1.0  0.37593  0.41317  0.38563  1.0000
  C   C39       1.0  0.99038  0.58683  0.61442  1.0000
  C   C40       1.0  0.00962  0.08683  0.38558  1.0000
  C   C41       1.0  0.58169  0.91217  0.49281  1.0000
  C   C42       1.0  0.41831  0.41217  0.50718  1.0000
  C   C43       1.0  0.91120  0.58783  0.49288  1.0000
  C   C44       1.0  0.08880  0.08783  0.50712  1.0000
  N   N1        1.0  0.07189  0.94319  0.12701  1.0000
  N   N2        1.0  0.92811  0.44319  0.87299  1.0000
  N   N3        1.0  0.05508  0.55686  0.12703  1.0000
  N   N4        1.0  0.94492  0.05686  0.87297  1.0000
  N   N5        1.0  0.07160  0.05486  0.12524  1.0000
  N   N6        1.0  0.92840  0.55486  0.87476  1.0000
  N   N7        1.0  0.05354  0.44519  0.12520  1.0000
  N   N8        1.0  0.94647  0.94519  0.87480  1.0000
  N   N9        1.0  0.30236  0.99999  0.22608  1.0000
  N   N10       1.0  0.69764  0.49998  0.77392  1.0000
  N   N11       1.0  0.92351  0.50002  0.22601  1.0000
  N   N12       1.0  0.07650  0.00002  0.77399  1.0000
  O   O1        1.0  0.78637  0.00002  0.00001  1.0000
  O   O2        1.0  0.21363  0.50002  0.99999  1.0000
  O   O3        1.0  0.00216  0.75003  0.00431  1.0000
  O   O4        1.0  0.99784  0.25003  0.99569  1.0000
  O   O5        1.0  0.81002  0.80297  0.11788  1.0000
  O   O6        1.0  0.18998  0.30297  0.88212  1.0000
  O   O7        1.0  0.30779  0.69707  0.11783  1.0000
  O   O8        1.0  0.69221  0.19707  0.88217  1.0000
  O   O9        1.0  0.70260  0.80402  0.87563  1.0000
  O   O10       1.0  0.29740  0.30402  0.12436  1.0000
  O   O11       1.0  0.17313  0.69605  0.87562  1.0000
  O   O12       1.0  0.82687  0.19606  0.12438  1.0000
