data_image0
_chemical_formula_structural       Co3P4H30C14N4O20
_chemical_formula_sum              "Co3 P4 H30 C14 N4 O20"
_cell_length_a       9.58723
_cell_length_b       9.7119
_cell_length_c       9.3637
_cell_angle_alpha    74.4203
_cell_angle_beta     66.8961
_cell_angle_gamma    83.8663

_space_group_name_H-M_alt    "P 1"
_space_group_IT_number       1

loop_
  _space_group_symop_operation_xyz
  'x, y, z'

loop_
  _atom_site_type_symbol
  _atom_site_label
  _atom_site_symmetry_multiplicity
  _atom_site_fract_x
  _atom_site_fract_y
  _atom_site_fract_z
  _atom_site_occupancy
  Co  Co1       1.0  1.00000  0.50000  1.00000  1.0000
  Co  Co2       1.0  0.29621  0.45236  0.44270  1.0000
  Co  Co3       1.0  0.70379  0.54763  0.55731  1.0000
  P   P1        1.0  0.11178  0.28687  0.77280  1.0000
  P   P2        1.0  0.88822  0.71313  0.22721  1.0000
  P   P3        1.0  0.34643  0.49811  0.73641  1.0000
  P   P4        1.0  0.65357  0.50190  0.26360  1.0000
  H   H1        1.0  0.50667  0.33296  0.53504  1.0000
  H   H2        1.0  0.49332  0.66704  0.46496  1.0000
  H   H3        1.0  0.17552  0.75499  0.95251  1.0000
  H   H4        1.0  0.82449  0.24502  0.04749  1.0000
  H   H5        1.0  0.55664  0.10666  0.92629  1.0000
  H   H6        1.0  0.44336  0.89333  0.07371  1.0000
  H   H7        1.0  0.55475  0.30344  0.86065  1.0000
  H   H8        1.0  0.44525  0.69655  0.13934  1.0000
  H   H9        1.0  0.28701  0.11383  0.12859  1.0000
  H   H10       1.0  0.71299  0.88618  0.87141  1.0000
  H   H11       1.0  0.28548  0.30864  0.05437  1.0000
  H   H12       1.0  0.71453  0.69137  0.94562  1.0000
  H   H13       1.0  0.12358  0.98151  0.04422  1.0000
  H   H14       1.0  0.87642  0.01848  0.95579  1.0000
  H   H15       1.0  0.44058  0.75885  0.72057  1.0000
  H   H16       1.0  0.55942  0.24116  0.27943  1.0000
  H   H17       1.0  0.55143  0.03175  0.65380  1.0000
  H   H18       1.0  0.44857  0.96826  0.34620  1.0000
  H   H19       1.0  0.03200  0.55634  0.70455  1.0000
  H   H20       1.0  0.96801  0.44366  0.29545  1.0000
  H   H21       1.0  0.06275  0.70051  0.73531  1.0000
  H   H22       1.0  0.93725  0.29949  0.26469  1.0000
  H   H23       1.0  0.08262  0.60897  0.34887  1.0000
  H   H24       1.0  0.91739  0.39102  0.65112  1.0000
  H   H25       1.0  0.18952  0.70893  0.36860  1.0000
  H   H26       1.0  0.81048  0.29106  0.63140  1.0000
  H   H27       1.0  0.14922  0.30171  0.33668  1.0000
  H   H28       1.0  0.85079  0.69828  0.66332  1.0000
  H   H29       1.0  0.17186  0.21751  0.49901  1.0000
  H   H30       1.0  0.82815  0.78249  0.50100  1.0000
  C   C1        1.0  0.31532  0.30779  0.74236  1.0000
  C   C2        1.0  0.68468  0.69222  0.25765  1.0000
  C   C3        1.0  0.35971  0.19243  0.86340  1.0000
  C   C4        1.0  0.64029  0.80757  0.13660  1.0000
  C   C5        1.0  0.49121  0.20432  0.91077  1.0000
  C   C6        1.0  0.50879  0.79567  0.08922  1.0000
  C   C7        1.0  0.33090  0.20674  0.02861  1.0000
  C   C8        1.0  0.66911  0.79326  0.97138  1.0000
  C   C9        1.0  0.22449  0.96048  0.94646  1.0000
  C   C10       1.0  0.77551  0.03952  0.05355  1.0000
  C   C11       1.0  0.39077  0.84786  0.77275  1.0000
  C   C12       1.0  0.60923  0.15215  0.22725  1.0000
  C   C13       1.0  0.44709  0.98065  0.74217  1.0000
  C   C14       1.0  0.55291  0.01936  0.25782  1.0000
  N   N1        1.0  0.34287  0.04857  0.85302  1.0000
  N   N2        1.0  0.65712  0.95143  0.14698  1.0000
  N   N3        1.0  0.25300  0.83875  0.89967  1.0000
  N   N4        1.0  0.74701  0.16125  0.10033  1.0000
  O   O1        1.0  0.09009  0.14932  0.73760  1.0000
  O   O2        1.0  0.90991  0.85069  0.26240  1.0000
  O   O3        1.0  0.01545  0.30588  0.94225  1.0000
  O   O4        1.0  0.98455  0.69412  0.05774  1.0000
  O   O5        1.0  0.08769  0.41857  0.64264  1.0000
  O   O6        1.0  0.91232  0.58143  0.35736  1.0000
  O   O7        1.0  0.50432  0.51101  0.73715  1.0000
  O   O8        1.0  0.49567  0.48899  0.26286  1.0000
  O   O9        1.0  0.22308  0.53909  0.88120  1.0000
  O   O10       1.0  0.77690  0.46091  0.11880  1.0000
  O   O11       1.0  0.33851  0.58423  0.57254  1.0000
  O   O12       1.0  0.66148  0.41579  0.42746  1.0000
  O   O13       1.0  0.40039  0.28962  0.58170  1.0000
  O   O14       1.0  0.59960  0.71038  0.41830  1.0000
  O   O15       1.0  0.98096  0.63520  0.76120  1.0000
  O   O16       1.0  0.01904  0.36480  0.23879  1.0000
  O   O17       1.0  0.19125  0.62546  0.32934  1.0000
  O   O18       1.0  0.80875  0.37453  0.67067  1.0000
  O   O19       1.0  0.22357  0.27877  0.38973  1.0000
  O   O20       1.0  0.77644  0.72122  0.61027  1.0000
