data_image0
_chemical_formula_structural       Ca2CuH10C18O14
_chemical_formula_sum              "Ca2 Cu1 H10 C18 O14"
_cell_length_a       6.63136
_cell_length_b       8.81281
_cell_length_c       8.96485
_cell_angle_alpha    102.925
_cell_angle_beta     110.645
_cell_angle_gamma    92.294

_space_group_name_H-M_alt    "P 1"
_space_group_IT_number       1

loop_
  _space_group_symop_operation_xyz
  'x, y, z'

loop_
  _atom_site_type_symbol
  _atom_site_label
  _atom_site_symmetry_multiplicity
  _atom_site_fract_x
  _atom_site_fract_y
  _atom_site_fract_z
  _atom_site_occupancy
  Ca  Ca1       1.0  0.14821  0.78855  0.58811  1.0000
  Ca  Ca2       1.0  0.85178  0.21145  0.41189  1.0000
  Cu  Cu1       1.0  0.49999  1.00000  1.00000  1.0000
  H   H1        1.0  0.32514  0.67006  0.27153  1.0000
  H   H2        1.0  0.67486  0.32994  0.72848  1.0000
  H   H3        1.0  0.15839  0.16819  0.11736  1.0000
  H   H4        1.0  0.84161  0.83181  0.88263  1.0000
  H   H5        1.0  0.20713  0.42469  0.77131  1.0000
  H   H6        1.0  0.79287  0.57531  0.22869  1.0000
  H   H7        1.0  0.61824  0.83178  0.61126  1.0000
  H   H8        1.0  0.38177  0.16822  0.38874  1.0000
  H   H9        1.0  0.56406  0.00205  0.67940  1.0000
  H   H10       1.0  0.43594  0.99794  0.32059  1.0000
  C   C1        1.0  0.27288  0.56239  0.01748  1.0000
  C   C2        1.0  0.72712  0.43761  0.98253  1.0000
  C   C3        1.0  0.28528  0.56087  0.17568  1.0000
  C   C4        1.0  0.71473  0.43913  0.82433  1.0000
  C   C5        1.0  0.24129  0.41922  0.21165  1.0000
  C   C6        1.0  0.75872  0.58077  0.78835  1.0000
  C   C7        1.0  0.19440  0.27821  0.09012  1.0000
  C   C8        1.0  0.80560  0.72179  0.90988  1.0000
  C   C9        1.0  0.18084  0.27947  0.93097  1.0000
  C   C10       1.0  0.81916  0.72054  0.06903  1.0000
  C   C11       1.0  0.21624  0.42149  0.89430  1.0000
  C   C12       1.0  0.78376  0.57851  0.10570  1.0000
  C   C13       1.0  0.31938  0.70908  0.97126  1.0000
  C   C14       1.0  0.68063  0.29092  0.02874  1.0000
  C   C15       1.0  0.22241  0.42275  0.37438  1.0000
  C   C16       1.0  0.77759  0.57725  0.62562  1.0000
  C   C17       1.0  0.12815  0.13158  0.79851  1.0000
  C   C18       1.0  0.87185  0.86842  0.20149  1.0000
  O   O1        1.0  0.29890  0.69843  0.82435  1.0000
  O   O2        1.0  0.70108  0.30158  0.17565  1.0000
  O   O3        1.0  0.38619  0.84001  0.08506  1.0000
  O   O4        1.0  0.61381  0.16000  0.91495  1.0000
  O   O5        1.0  0.22159  0.55427  0.46507  1.0000
  O   O6        1.0  0.77839  0.44573  0.53492  1.0000
  O   O7        1.0  0.19639  0.29102  0.40947  1.0000
  O   O8        1.0  0.80362  0.70897  0.59053  1.0000
  O   O9        1.0  0.20564  0.00608  0.83610  1.0000
  O   O10       1.0  0.79434  0.99391  0.16389  1.0000
  O   O11       1.0  0.00962  0.12706  0.65257  1.0000
  O   O12       1.0  0.99037  0.87294  0.34743  1.0000
  O   O13       1.0  0.49819  0.89443  0.61946  1.0000
  O   O14       1.0  0.50182  0.10557  0.38055  1.0000
