data_image0
_chemical_formula_structural       Cd2H32C32N8O14
_chemical_formula_sum              "Cd2 H32 C32 N8 O14"
_cell_length_a       7.91937
_cell_length_b       8.32847
_cell_length_c       16.4532
_cell_angle_alpha    99.0301
_cell_angle_beta     90.1425
_cell_angle_gamma    120.887

_space_group_name_H-M_alt    "P 1"
_space_group_IT_number       1

loop_
  _space_group_symop_operation_xyz
  'x, y, z'

loop_
  _atom_site_type_symbol
  _atom_site_label
  _atom_site_symmetry_multiplicity
  _atom_site_fract_x
  _atom_site_fract_y
  _atom_site_fract_z
  _atom_site_occupancy
  Cd  Cd1       1.0  0.38082  0.97285  0.26433  1.0000
  Cd  Cd2       1.0  0.61917  0.02715  0.73567  1.0000
  H   H1        1.0  0.78956  0.93962  0.22141  1.0000
  H   H2        1.0  0.21044  0.06038  0.77859  1.0000
  H   H3        1.0  0.87731  0.15255  0.25346  1.0000
  H   H4        1.0  0.12269  0.84746  0.74654  1.0000
  H   H5        1.0  0.04965  0.20130  0.14821  1.0000
  H   H6        1.0  0.95037  0.79869  0.85179  1.0000
  H   H7        1.0  0.70851  0.74770  0.31676  1.0000
  H   H8        1.0  0.29149  0.25231  0.68324  1.0000
  H   H9        1.0  0.41905  0.76270  0.86754  1.0000
  H   H10       1.0  0.58095  0.23731  0.13246  1.0000
  H   H11       1.0  0.48167  0.72877  0.01020  1.0000
  H   H12       1.0  0.51833  0.27122  0.98979  1.0000
  H   H13       1.0  0.79669  0.98477  0.09509  1.0000
  H   H14       1.0  0.20332  0.01520  0.90490  1.0000
  H   H15       1.0  0.94975  0.27963  0.88903  1.0000
  H   H16       1.0  0.05026  0.72038  0.11097  1.0000
  H   H17       1.0  0.45057  0.48798  0.11772  1.0000
  H   H18       1.0  0.54945  0.51202  0.88228  1.0000
  H   H19       1.0  0.37187  0.38510  0.20768  1.0000
  H   H20       1.0  0.62813  0.61490  0.79232  1.0000
  H   H21       1.0  0.71339  0.28946  0.60341  1.0000
  H   H22       1.0  0.28659  0.71054  0.39658  1.0000
  H   H23       1.0  0.78220  0.29901  0.45606  1.0000
  H   H24       1.0  0.21779  0.70098  0.54393  1.0000
  H   H25       1.0  0.80877  0.03433  0.37385  1.0000
  H   H26       1.0  0.19123  0.96565  0.62615  1.0000
  H   H27       1.0  0.69081  0.77639  0.59128  1.0000
  H   H28       1.0  0.30918  0.22362  0.40872  1.0000
  H   H29       1.0  0.95291  0.58215  0.34210  1.0000
  H   H30       1.0  0.04708  0.41785  0.65790  1.0000
  H   H31       1.0  0.86516  0.59851  0.24737  1.0000
  H   H32       1.0  0.13484  0.40149  0.75263  1.0000
  C   C1        1.0  0.55469  0.87039  0.90598  1.0000
  C   C2        1.0  0.44532  0.12962  0.09402  1.0000
  C   C3        1.0  0.59039  0.85341  0.98601  1.0000
  C   C4        1.0  0.40961  0.14658  0.01399  1.0000
  C   C5        1.0  0.76560  0.99645  0.03242  1.0000
  C   C6        1.0  0.23441  0.00354  0.96758  1.0000
  C   C7        1.0  0.89930  0.15353  0.99812  1.0000
  C   C8        1.0  0.10071  0.84646  0.00189  1.0000
  C   C9        1.0  0.85072  0.15854  0.91723  1.0000
  C   C10       1.0  0.14928  0.84147  0.08277  1.0000
  C   C11       1.0  0.09578  0.31519  0.04038  1.0000
  C   C12       1.0  0.90424  0.68482  0.95962  1.0000
  C   C13       1.0  0.33607  0.44722  0.16100  1.0000
  C   C14       1.0  0.66394  0.55278  0.83900  1.0000
  C   C15       1.0  0.35278  0.62862  0.20698  1.0000
  C   C16       1.0  0.64723  0.37138  0.79302  1.0000
  C   C17       1.0  0.72358  0.17559  0.56535  1.0000
  C   C18       1.0  0.27641  0.82441  0.43464  1.0000
  C   C19       1.0  0.76029  0.17906  0.48300  1.0000
  C   C20       1.0  0.23970  0.82094  0.51700  1.0000
  C   C21       1.0  0.77256  0.02989  0.43761  1.0000
  C   C22       1.0  0.22744  0.97011  0.56239  1.0000
  C   C23       1.0  0.74561  0.88039  0.47569  1.0000
  C   C24       1.0  0.25439  0.11961  0.52431  1.0000
  C   C25       1.0  0.71101  0.88887  0.55910  1.0000
  C   C26       1.0  0.28899  0.11113  0.44090  1.0000
  C   C27       1.0  0.76673  0.71807  0.43461  1.0000
  C   C28       1.0  0.23326  0.28193  0.56539  1.0000
  C   C29       1.0  0.82321  0.56529  0.30891  1.0000
  C   C30       1.0  0.17678  0.43472  0.69109  1.0000
  C   C31       1.0  0.66012  0.35694  0.29706  1.0000
  C   C32       1.0  0.33987  0.64306  0.70294  1.0000
  N   N1        1.0  0.68328  0.01919  0.87181  1.0000
  N   N2        1.0  0.31672  0.98081  0.12819  1.0000
  N   N3        1.0  0.14537  0.30666  0.11753  1.0000
  N   N4        1.0  0.85465  0.69334  0.88247  1.0000
  N   N5        1.0  0.70100  0.03362  0.60287  1.0000
  N   N6        1.0  0.29900  0.96638  0.39712  1.0000
  N   N7        1.0  0.77287  0.69793  0.35131  1.0000
  N   N8        1.0  0.22712  0.30207  0.64869  1.0000
  O   O1        1.0  0.20755  0.44540  0.00332  1.0000
  O   O2        1.0  0.79246  0.55459  0.99668  1.0000
  O   O3        1.0  0.91712  0.06116  0.23036  1.0000
  O   O4        1.0  0.08287  0.93885  0.76964  1.0000
  O   O5        1.0  0.19947  0.63836  0.21627  1.0000
  O   O6        1.0  0.80053  0.36164  0.78373  1.0000
  O   O7        1.0  0.52691  0.76772  0.23628  1.0000
  O   O8        1.0  0.47310  0.23229  0.76372  1.0000
  O   O9        1.0  0.71124  0.23250  0.28227  1.0000
  O   O10       1.0  0.28874  0.76750  0.71772  1.0000
  O   O11       1.0  0.48159  0.31155  0.29867  1.0000
  O   O12       1.0  0.51840  0.68845  0.70134  1.0000
  O   O13       1.0  0.79002  0.61684  0.47596  1.0000
  O   O14       1.0  0.20996  0.38315  0.52405  1.0000
