data_image0
_chemical_formula_structural       Zn4H44C60N12Cl8O4
_chemical_formula_sum              "Zn4 H44 C60 N12 Cl8 O4"
_cell_length_a       7.33116
_cell_length_b       10.2257
_cell_length_c       19.87
_cell_angle_alpha    89.9999
_cell_angle_beta     89.9998
_cell_angle_gamma    92.0062

_space_group_name_H-M_alt    "P 1"
_space_group_IT_number       1

loop_
  _space_group_symop_operation_xyz
  'x, y, z'

loop_
  _atom_site_type_symbol
  _atom_site_label
  _atom_site_symmetry_multiplicity
  _atom_site_fract_x
  _atom_site_fract_y
  _atom_site_fract_z
  _atom_site_occupancy
  Zn  Zn1       1.0  0.75798  0.70909  0.73205  1.0000
  Zn  Zn2       1.0  0.74203  0.79092  0.23205  1.0000
  Zn  Zn3       1.0  0.24202  0.29091  0.26795  1.0000
  Zn  Zn4       1.0  0.25797  0.20908  0.76795  1.0000
  H   H1        1.0  0.37752  0.67472  0.78373  1.0000
  H   H2        1.0  0.12248  0.82527  0.28373  1.0000
  H   H3        1.0  0.62247  0.32528  0.21627  1.0000
  H   H4        1.0  0.87753  0.17472  0.71627  1.0000
  H   H5        1.0  0.21124  0.54456  0.86954  1.0000
  H   H6        1.0  0.28877  0.95543  0.36955  1.0000
  H   H7        1.0  0.78876  0.45544  0.13046  1.0000
  H   H8        1.0  0.71123  0.04457  0.63046  1.0000
  H   H9        1.0  0.72962  0.38251  0.92614  1.0000
  H   H10       1.0  0.77039  0.11750  0.42615  1.0000
  H   H11       1.0  0.27038  0.61750  0.07385  1.0000
  H   H12       1.0  0.22962  0.88250  0.57385  1.0000
  H   H13       1.0  0.87150  0.51950  0.83732  1.0000
  H   H14       1.0  0.62851  0.98051  0.33733  1.0000
  H   H15       1.0  0.12850  0.48051  0.16268  1.0000
  H   H16       1.0  0.37150  0.01949  0.66267  1.0000
  H   H17       1.0  0.09380  0.45397  0.94477  1.0000
  H   H18       1.0  0.40621  0.04603  0.44477  1.0000
  H   H19       1.0  0.90620  0.54603  0.05523  1.0000
  H   H20       1.0  0.59378  0.95397  0.55523  1.0000
  H   H21       1.0  0.08302  0.16643  0.08917  1.0000
  H   H22       1.0  0.41699  0.33358  0.58917  1.0000
  H   H23       1.0  0.91698  0.83357  0.91082  1.0000
  H   H24       1.0  0.58301  0.66642  0.41083  1.0000
  H   H25       1.0  0.59344  0.25303  0.98502  1.0000
  H   H26       1.0  0.90657  0.24697  0.48502  1.0000
  H   H27       1.0  0.40657  0.74698  0.01498  1.0000
  H   H28       1.0  0.09343  0.75303  0.51498  1.0000
  H   H29       1.0  0.19250  0.98589  0.11407  1.0000
  H   H30       1.0  0.30750  0.51411  0.61407  1.0000
  H   H31       1.0  0.80750  0.01411  0.88592  1.0000
  H   H32       1.0  0.69250  0.48589  0.38593  1.0000
  H   H33       1.0  0.35330  0.83568  0.18867  1.0000
  H   H34       1.0  0.14670  0.66433  0.68867  1.0000
  H   H35       1.0  0.64670  0.16432  0.81133  1.0000
  H   H36       1.0  0.85330  0.33567  0.31133  1.0000
  H   H37       1.0  0.85816  0.00105  0.13784  1.0000
  H   H38       1.0  0.64184  0.49895  0.63784  1.0000
  H   H39       1.0  0.14184  0.99895  0.86216  1.0000
  H   H40       1.0  0.35816  0.50105  0.36216  1.0000
  H   H41       1.0  0.72135  0.16809  0.06521  1.0000
  H   H42       1.0  0.77865  0.33191  0.56521  1.0000
  H   H43       1.0  0.27865  0.83191  0.93479  1.0000
  H   H44       1.0  0.22134  0.66809  0.43479  1.0000
  C   C1        1.0  0.71084  0.00278  0.13104  1.0000
  C   C2        1.0  0.78917  0.49722  0.63104  1.0000
  C   C3        1.0  0.28916  0.99722  0.86896  1.0000
  C   C4        1.0  0.21084  0.50278  0.36896  1.0000
  C   C5        1.0  0.44922  0.60835  0.81660  1.0000
  C   C6        1.0  0.05079  0.89165  0.31661  1.0000
  C   C7        1.0  0.55077  0.39165  0.18340  1.0000
  C   C8        1.0  0.94922  0.10835  0.68339  1.0000
  C   C9        1.0  0.35752  0.53398  0.86497  1.0000
  C   C10       1.0  0.14248  0.96601  0.36498  1.0000
  C   C11       1.0  0.64248  0.46602  0.13502  1.0000
  C   C12       1.0  0.85752  0.03398  0.63502  1.0000
  C   C13       1.0  0.45373  0.44792  0.90586  1.0000
  C   C14       1.0  0.04628  0.05208  0.40587  1.0000
  C   C15       1.0  0.54626  0.55208  0.09414  1.0000
  C   C16       1.0  0.95373  0.94792  0.59413  1.0000
  C   C17       1.0  0.64319  0.44422  0.89590  1.0000
  C   C18       1.0  0.85682  0.05578  0.39590  1.0000
  C   C19       1.0  0.35681  0.55579  0.10410  1.0000
  C   C20       1.0  0.14319  0.94421  0.60410  1.0000
  C   C21       1.0  0.72526  0.52238  0.84664  1.0000
  C   C22       1.0  0.77475  0.97762  0.34664  1.0000
  C   C23       1.0  0.27474  0.47762  0.15336  1.0000
  C   C24       1.0  0.22525  0.02238  0.65336  1.0000
  C   C25       1.0  0.35936  0.36407  0.95662  1.0000
  C   C26       1.0  0.14064  0.13593  0.45662  1.0000
  C   C27       1.0  0.64064  0.63593  0.04338  1.0000
  C   C28       1.0  0.85935  0.86408  0.54338  1.0000
  C   C29       1.0  0.17394  0.37971  0.96823  1.0000
  C   C30       1.0  0.32607  0.12029  0.46823  1.0000
  C   C31       1.0  0.82606  0.62029  0.03177  1.0000
  C   C32       1.0  0.67394  0.87970  0.53177  1.0000
  C   C33       1.0  0.16693  0.21298  0.05030  1.0000
  C   C34       1.0  0.33308  0.28702  0.55030  1.0000
  C   C35       1.0  0.83307  0.78702  0.94970  1.0000
  C   C36       1.0  0.66692  0.71298  0.44970  1.0000
  C   C37       1.0  0.35201  0.19210  0.04080  1.0000
  C   C38       1.0  0.14800  0.30790  0.54081  1.0000
  C   C39       1.0  0.64799  0.80790  0.95919  1.0000
  C   C40       1.0  0.85201  0.69210  0.45919  1.0000
  C   C41       1.0  0.44892  0.26801  0.99305  1.0000
  C   C42       1.0  0.05108  0.23198  0.49305  1.0000
  C   C43       1.0  0.55109  0.73199  0.00695  1.0000
  C   C44       1.0  0.94891  0.76802  0.50695  1.0000
  C   C45       1.0  0.44158  0.09331  0.08260  1.0000
  C   C46       1.0  0.05842  0.40669  0.58260  1.0000
  C   C47       1.0  0.55842  0.90669  0.91740  1.0000
  C   C48       1.0  0.94157  0.59331  0.41740  1.0000
  C   C49       1.0  0.34031  0.99617  0.11786  1.0000
  C   C50       1.0  0.15969  0.50383  0.61786  1.0000
  C   C51       1.0  0.65968  0.00382  0.88213  1.0000
  C   C52       1.0  0.84032  0.49617  0.38214  1.0000
  C   C53       1.0  0.42890  0.91028  0.15972  1.0000
  C   C54       1.0  0.07110  0.58973  0.65971  1.0000
  C   C55       1.0  0.57109  0.08972  0.84028  1.0000
  C   C56       1.0  0.92890  0.41027  0.34028  1.0000
  C   C57       1.0  0.63230  0.09455  0.08971  1.0000
  C   C58       1.0  0.86770  0.40545  0.58971  1.0000
  C   C59       1.0  0.36770  0.90544  0.91030  1.0000
  C   C60       1.0  0.13230  0.59456  0.41030  1.0000
  N   N1        1.0  0.61180  0.91362  0.16663  1.0000
  N   N2        1.0  0.88820  0.58639  0.66663  1.0000
  N   N3        1.0  0.38819  0.08638  0.83337  1.0000
  N   N4        1.0  0.11181  0.41362  0.33337  1.0000
  N   N5        1.0  0.07907  0.30405  0.01345  1.0000
  N   N6        1.0  0.42092  0.19596  0.51345  1.0000
  N   N7        1.0  0.92092  0.69595  0.98655  1.0000
  N   N8        1.0  0.57907  0.80405  0.48655  1.0000
  N   N9        1.0  0.63055  0.60254  0.80711  1.0000
  N   N10       1.0  0.86945  0.89747  0.30712  1.0000
  N   N11       1.0  0.36944  0.39747  0.19289  1.0000
  N   N12       1.0  0.13056  0.10253  0.69288  1.0000
  Cl  Cl1       1.0  0.52106  0.78253  0.67380  1.0000
  Cl  Cl2       1.0  0.97894  0.71748  0.17380  1.0000
  Cl  Cl3       1.0  0.47894  0.21747  0.32620  1.0000
  Cl  Cl4       1.0  0.02106  0.28253  0.82620  1.0000
  Cl  Cl5       1.0  0.98900  0.81950  0.78166  1.0000
  Cl  Cl6       1.0  0.51101  0.68051  0.28166  1.0000
  Cl  Cl7       1.0  0.01101  0.18050  0.21834  1.0000
  Cl  Cl8       1.0  0.48899  0.31950  0.71834  1.0000
  O   O1        1.0  0.90520  0.32093  0.02255  1.0000
  O   O2        1.0  0.59481  0.17908  0.52255  1.0000
  O   O3        1.0  0.09480  0.67908  0.97745  1.0000
  O   O4        1.0  0.40519  0.82091  0.47745  1.0000
