data_image0
_chemical_formula_structural       Hg2H22C30I4N6O2
_chemical_formula_sum              "Hg2 H22 C30 I4 N6 O2"
_cell_length_a       9.86168
_cell_length_b       9.77184
_cell_length_c       10.0832
_cell_angle_alpha    61.0165
_cell_angle_beta     89.9347
_cell_angle_gamma    89.8646

_space_group_name_H-M_alt    "P 1"
_space_group_IT_number       1

loop_
  _space_group_symop_operation_xyz
  'x, y, z'

loop_
  _atom_site_type_symbol
  _atom_site_label
  _atom_site_symmetry_multiplicity
  _atom_site_fract_x
  _atom_site_fract_y
  _atom_site_fract_z
  _atom_site_occupancy
  Hg  Hg1       1.0  0.25000  0.32818  0.34365  1.0000
  Hg  Hg2       1.0  0.75000  0.67182  0.65635  1.0000
  H   H1        1.0  0.27491  0.94649  0.53861  1.0000
  H   H2        1.0  0.22509  0.51490  0.53861  1.0000
  H   H3        1.0  0.72509  0.05350  0.46139  1.0000
  H   H4        1.0  0.77491  0.48510  0.46139  1.0000
  H   H5        1.0  0.17160  0.71041  0.75703  1.0000
  H   H6        1.0  0.32840  0.53256  0.75703  1.0000
  H   H7        1.0  0.82840  0.28959  0.24297  1.0000
  H   H8        1.0  0.67160  0.46745  0.24297  1.0000
  H   H9        1.0  0.96995  0.74502  0.88699  1.0000
  H   H10       1.0  0.53005  0.36798  0.88700  1.0000
  H   H11       1.0  0.03005  0.25498  0.11301  1.0000
  H   H12       1.0  0.46995  0.63202  0.11300  1.0000
  H   H13       1.0  0.98936  0.24117  0.57197  1.0000
  H   H14       1.0  0.51064  0.18685  0.57197  1.0000
  H   H15       1.0  0.01064  0.75883  0.42803  1.0000
  H   H16       1.0  0.48936  0.81314  0.42803  1.0000
  H   H17       1.0  0.93224  0.85815  0.04127  1.0000
  H   H18       1.0  0.56777  0.10057  0.04128  1.0000
  H   H19       1.0  0.06776  0.14185  0.95873  1.0000
  H   H20       1.0  0.43223  0.89943  0.95872  1.0000
  H   H21       1.0  0.75000  0.90621  0.18758  1.0000
  H   H22       1.0  0.25000  0.09379  0.81242  1.0000
  C   C1        1.0  0.18756  0.95683  0.59961  1.0000
  C   C2        1.0  0.31244  0.44356  0.59961  1.0000
  C   C3        1.0  0.81244  0.04317  0.40039  1.0000
  C   C4        1.0  0.68756  0.55644  0.40039  1.0000
  C   C5        1.0  0.13011  0.82640  0.72114  1.0000
  C   C6        1.0  0.36989  0.45246  0.72114  1.0000
  C   C7        1.0  0.86989  0.17360  0.27887  1.0000
  C   C8        1.0  0.63011  0.54754  0.27886  1.0000
  C   C9        1.0  0.01695  0.84626  0.79252  1.0000
  C   C10       1.0  0.48305  0.36121  0.79253  1.0000
  C   C11       1.0  0.98305  0.15374  0.20748  1.0000
  C   C12       1.0  0.51695  0.63879  0.20747  1.0000
  C   C13       1.0  0.96339  0.99674  0.74151  1.0000
  C   C14       1.0  0.53661  0.26175  0.74151  1.0000
  C   C15       1.0  0.03661  0.00326  0.25849  1.0000
  C   C16       1.0  0.46339  0.73825  0.25849  1.0000
  C   C17       1.0  0.02675  0.12175  0.61724  1.0000
  C   C18       1.0  0.47325  0.26100  0.61725  1.0000
  C   C19       1.0  0.97325  0.87825  0.38275  1.0000
  C   C20       1.0  0.52675  0.73900  0.38275  1.0000
  C   C21       1.0  0.85192  0.02050  0.82531  1.0000
  C   C22       1.0  0.64808  0.15419  0.82531  1.0000
  C   C23       1.0  0.14808  0.97950  0.17469  1.0000
  C   C24       1.0  0.35192  0.84581  0.17469  1.0000
  C   C25       1.0  0.85009  0.94029  0.98315  1.0000
  C   C26       1.0  0.64991  0.07656  0.98315  1.0000
  C   C27       1.0  0.14991  0.05971  0.01685  1.0000
  C   C28       1.0  0.35009  0.92344  0.01685  1.0000
  C   C29       1.0  0.75000  0.96783  0.06435  1.0000
  C   C30       1.0  0.25000  0.03218  0.93565  1.0000
  I   I1        1.0  0.44584  0.20627  0.24312  1.0000
  I   I2        1.0  0.05415  0.55061  0.24313  1.0000
  I   I3        1.0  0.55415  0.79374  0.75687  1.0000
  I   I4        1.0  0.94585  0.44939  0.75687  1.0000
  N   N1        1.0  0.13586  0.10113  0.54946  1.0000
  N   N2        1.0  0.36414  0.34941  0.54946  1.0000
  N   N3        1.0  0.86414  0.89887  0.45054  1.0000
  N   N4        1.0  0.63586  0.65059  0.45054  1.0000
  N   N5        1.0  0.75000  0.12695  0.74610  1.0000
  N   N6        1.0  0.25000  0.87305  0.25390  1.0000
  O   O1        1.0  0.75000  0.20014  0.59970  1.0000
  O   O2        1.0  0.25000  0.79986  0.40030  1.0000
