data_image0
_chemical_formula_structural       Zn4H44C60I8N12O4
_chemical_formula_sum              "Zn4 H44 C60 I8 N12 O4"
_cell_length_a       7.20062
_cell_length_b       13.219
_cell_length_c       18.3285
_cell_angle_alpha    89.9999
_cell_angle_beta     89.9998
_cell_angle_gamma    91.3222

_space_group_name_H-M_alt    "P 1"
_space_group_IT_number       1

loop_
  _space_group_symop_operation_xyz
  'x, y, z'

loop_
  _atom_site_type_symbol
  _atom_site_label
  _atom_site_symmetry_multiplicity
  _atom_site_fract_x
  _atom_site_fract_y
  _atom_site_fract_z
  _atom_site_occupancy
  Zn  Zn1       1.0  0.73104  0.12796  0.31494  1.0000
  Zn  Zn2       1.0  0.76897  0.37204  0.81494  1.0000
  Zn  Zn3       1.0  0.26896  0.87204  0.68506  1.0000
  Zn  Zn4       1.0  0.23104  0.62796  0.18506  1.0000
  H   H1        1.0  0.89666  0.57814  0.86417  1.0000
  H   H2        1.0  0.60334  0.92186  0.36417  1.0000
  H   H3        1.0  0.10334  0.42186  0.13584  1.0000
  H   H4        1.0  0.39666  0.07814  0.63583  1.0000
  H   H5        1.0  0.75346  0.90609  0.08856  1.0000
  H   H6        1.0  0.74654  0.59391  0.58856  1.0000
  H   H7        1.0  0.24654  0.09391  0.91144  1.0000
  H   H8        1.0  0.25346  0.40609  0.41144  1.0000
  H   H9        1.0  0.87219  0.00085  0.19588  1.0000
  H   H10       1.0  0.62780  0.49916  0.69588  1.0000
  H   H11       1.0  0.12780  0.99916  0.80412  1.0000
  H   H12       1.0  0.37219  0.50084  0.30411  1.0000
  H   H13       1.0  0.61736  0.78960  0.03382  1.0000
  H   H14       1.0  0.88264  0.71040  0.53382  1.0000
  H   H15       1.0  0.38264  0.21040  0.96618  1.0000
  H   H16       1.0  0.11735  0.28960  0.46618  1.0000
  H   H17       1.0  0.14411  0.74100  0.89046  1.0000
  H   H18       1.0  0.35590  0.75900  0.39046  1.0000
  H   H19       1.0  0.85590  0.25899  0.10954  1.0000
  H   H20       1.0  0.64410  0.24100  0.60954  1.0000
  H   H21       1.0  0.35043  0.10972  0.24428  1.0000
  H   H22       1.0  0.14957  0.39028  0.74428  1.0000
  H   H23       1.0  0.64957  0.89028  0.75572  1.0000
  H   H24       1.0  0.85043  0.60972  0.25572  1.0000
  H   H25       1.0  0.12995  0.97863  0.03650  1.0000
  H   H26       1.0  0.37005  0.52137  0.53650  1.0000
  H   H27       1.0  0.87004  0.02137  0.96350  1.0000
  H   H28       1.0  0.62995  0.47863  0.46350  1.0000
  H   H29       1.0  0.38699  0.42497  0.86755  1.0000
  H   H30       1.0  0.11302  0.07503  0.36755  1.0000
  H   H31       1.0  0.61302  0.57503  0.13245  1.0000
  H   H32       1.0  0.88698  0.92497  0.63245  1.0000
  H   H33       1.0  0.20913  0.02282  0.13805  1.0000
  H   H34       1.0  0.29086  0.47718  0.63805  1.0000
  H   H35       1.0  0.79086  0.97718  0.86195  1.0000
  H   H36       1.0  0.70914  0.52282  0.36194  1.0000
  H   H37       1.0  0.23234  0.57106  0.92528  1.0000
  H   H38       1.0  0.26766  0.92895  0.42528  1.0000
  H   H39       1.0  0.76766  0.42894  0.07472  1.0000
  H   H40       1.0  0.73234  0.07105  0.57472  1.0000
  H   H41       1.0  0.76278  0.73336  0.91904  1.0000
  H   H42       1.0  0.73722  0.76664  0.41904  1.0000
  H   H43       1.0  0.23722  0.26664  0.08096  1.0000
  H   H44       1.0  0.26277  0.23336  0.58096  1.0000
  C   C1        1.0  0.74987  0.58039  0.87863  1.0000
  C   C2        1.0  0.75013  0.91962  0.37863  1.0000
  C   C3        1.0  0.25014  0.41962  0.12137  1.0000
  C   C4        1.0  0.24986  0.08038  0.62137  1.0000
  C   C5        1.0  0.65764  0.94996  0.12109  1.0000
  C   C6        1.0  0.84236  0.55005  0.62110  1.0000
  C   C7        1.0  0.34235  0.05004  0.87891  1.0000
  C   C8        1.0  0.15765  0.44996  0.37890  1.0000
  C   C9        1.0  0.48435  0.66538  0.92609  1.0000
  C   C10       1.0  0.01565  0.83462  0.42609  1.0000
  C   C11       1.0  0.51565  0.33462  0.07391  1.0000
  C   C12       1.0  0.98435  0.16538  0.57391  1.0000
  C   C13       1.0  0.72549  0.00219  0.18129  1.0000
  C   C14       1.0  0.77451  0.49781  0.68129  1.0000
  C   C15       1.0  0.27451  0.99781  0.81871  1.0000
  C   C16       1.0  0.22549  0.50219  0.31870  1.0000
  C   C17       1.0  0.46770  0.95342  0.10416  1.0000
  C   C18       1.0  0.03229  0.54659  0.60416  1.0000
  C   C19       1.0  0.53229  0.04658  0.89584  1.0000
  C   C20       1.0  0.96771  0.45341  0.39584  1.0000
  C   C21       1.0  0.48210  0.81150  0.01334  1.0000
  C   C22       1.0  0.01790  0.68850  0.51334  1.0000
  C   C23       1.0  0.51790  0.18850  0.98666  1.0000
  C   C24       1.0  0.98211  0.31150  0.48666  1.0000
  C   C25       1.0  0.21891  0.77915  0.93450  1.0000
  C   C26       1.0  0.28109  0.72085  0.43450  1.0000
  C   C27       1.0  0.78109  0.22085  0.06550  1.0000
  C   C28       1.0  0.71891  0.27915  0.56550  1.0000
  C   C29       1.0  0.39561  0.75431  0.95826  1.0000
  C   C30       1.0  0.10439  0.74569  0.45826  1.0000
  C   C31       1.0  0.60439  0.24569  0.04174  1.0000
  C   C32       1.0  0.89561  0.25431  0.54174  1.0000
  C   C33       1.0  0.38760  0.89285  0.04380  1.0000
  C   C34       1.0  0.11240  0.60715  0.54380  1.0000
  C   C35       1.0  0.61240  0.10715  0.95620  1.0000
  C   C36       1.0  0.88760  0.39285  0.45620  1.0000
  C   C37       1.0  0.43440  0.06348  0.20817  1.0000
  C   C38       1.0  0.06560  0.43652  0.70817  1.0000
  C   C39       1.0  0.56560  0.93652  0.79183  1.0000
  C   C40       1.0  0.93440  0.56348  0.29183  1.0000
  C   C41       1.0  0.21099  0.91478  0.01796  1.0000
  C   C42       1.0  0.28901  0.58522  0.51796  1.0000
  C   C43       1.0  0.78901  0.08522  0.98204  1.0000
  C   C44       1.0  0.71099  0.41478  0.48204  1.0000
  C   C45       1.0  0.46497  0.49472  0.88002  1.0000
  C   C46       1.0  0.03504  0.00528  0.38002  1.0000
  C   C47       1.0  0.53504  0.50528  0.11998  1.0000
  C   C48       1.0  0.96496  0.99472  0.61998  1.0000
  C   C49       1.0  0.35656  0.01389  0.14855  1.0000
  C   C50       1.0  0.14343  0.48611  0.64854  1.0000
  C   C51       1.0  0.64343  0.98611  0.85146  1.0000
  C   C52       1.0  0.85657  0.51389  0.35145  1.0000
  C   C53       1.0  0.37927  0.57704  0.91129  1.0000
  C   C54       1.0  0.12073  0.92297  0.41129  1.0000
  C   C55       1.0  0.62073  0.42296  0.08871  1.0000
  C   C56       1.0  0.87926  0.07703  0.58871  1.0000
  C   C57       1.0  0.67474  0.66615  0.90962  1.0000
  C   C58       1.0  0.82526  0.83385  0.40962  1.0000
  C   C59       1.0  0.32526  0.33385  0.09038  1.0000
  C   C60       1.0  0.17474  0.16615  0.59038  1.0000
  I   I1        1.0  0.98884  0.24235  0.26171  1.0000
  I   I2        1.0  0.51117  0.25765  0.76171  1.0000
  I   I3        1.0  0.01116  0.75765  0.73829  1.0000
  I   I4        1.0  0.48884  0.74236  0.23829  1.0000
  I   I5        1.0  0.47224  0.18109  0.40148  1.0000
  I   I6        1.0  0.02777  0.31891  0.90148  1.0000
  I   I7        1.0  0.52776  0.81891  0.59852  1.0000
  I   I8        1.0  0.97224  0.68109  0.09852  1.0000
  N   N1        1.0  0.64728  0.49634  0.86361  1.0000
  N   N2        1.0  0.85272  0.00366  0.36361  1.0000
  N   N3        1.0  0.35273  0.50366  0.13639  1.0000
  N   N4        1.0  0.14728  0.99633  0.63639  1.0000
  N   N5        1.0  0.61565  0.05691  0.22497  1.0000
  N   N6        1.0  0.88434  0.44309  0.72497  1.0000
  N   N7        1.0  0.38434  0.94309  0.77503  1.0000
  N   N8        1.0  0.11566  0.55691  0.27503  1.0000
  N   N9        1.0  0.12805  0.85832  0.96443  1.0000
  N   N10       1.0  0.37195  0.64168  0.46444  1.0000
  N   N11       1.0  0.87195  0.14168  0.03556  1.0000
  N   N12       1.0  0.62805  0.35833  0.53557  1.0000
  O   O1        1.0  0.96101  0.87856  0.94248  1.0000
  O   O2        1.0  0.53900  0.62144  0.44249  1.0000
  O   O3        1.0  0.03900  0.12144  0.05751  1.0000
  O   O4        1.0  0.46101  0.37856  0.55752  1.0000
