data_image0
_chemical_formula_structural       Cu4H40C42S4I4N8
_chemical_formula_sum              "Cu4 H40 C42 S4 I4 N8"
_cell_length_a       9.37867
_cell_length_b       10.2004
_cell_length_c       13.6041
_cell_angle_alpha    78.5852
_cell_angle_beta     83.9013
_cell_angle_gamma    65.2879

_space_group_name_H-M_alt    "P 1"
_space_group_IT_number       1

loop_
  _space_group_symop_operation_xyz
  'x, y, z'

loop_
  _atom_site_type_symbol
  _atom_site_label
  _atom_site_symmetry_multiplicity
  _atom_site_fract_x
  _atom_site_fract_y
  _atom_site_fract_z
  _atom_site_occupancy
  Cu  Cu1       1.0  0.68895  0.32100  0.11376  1.0000
  Cu  Cu2       1.0  0.31105  0.67900  0.88625  1.0000
  Cu  Cu3       1.0  0.39223  0.52015  0.06637  1.0000
  Cu  Cu4       1.0  0.60777  0.47984  0.93363  1.0000
  H   H1        1.0  0.45652  0.88491  0.09987  1.0000
  H   H2        1.0  0.54348  0.11508  0.90013  1.0000
  H   H3        1.0  0.15067  0.09777  0.07538  1.0000
  H   H4        1.0  0.84933  0.90223  0.92462  1.0000
  H   H5        1.0  0.03431  0.35819  0.07025  1.0000
  H   H6        1.0  0.96570  0.64181  0.92975  1.0000
  H   H7        1.0  0.15154  0.45252  0.09029  1.0000
  H   H8        1.0  0.84846  0.54748  0.90971  1.0000
  H   H9        1.0  0.09031  0.56955  0.23864  1.0000
  H   H10       1.0  0.90969  0.43044  0.76136  1.0000
  H   H11       1.0  0.84973  0.60395  0.38339  1.0000
  H   H12       1.0  0.15027  0.39605  0.61661  1.0000
  H   H13       1.0  0.71372  0.05653  0.14968  1.0000
  H   H14       1.0  0.28628  0.94347  0.85033  1.0000
  H   H15       1.0  0.70732  0.89126  0.13229  1.0000
  H   H16       1.0  0.29269  0.10873  0.86771  1.0000
  H   H17       1.0  0.91595  0.90492  0.27931  1.0000
  H   H18       1.0  0.08405  0.09508  0.72070  1.0000
  H   H19       1.0  0.96285  0.80230  0.45894  1.0000
  H   H20       1.0  0.03715  0.19770  0.54107  1.0000
  H   H21       1.0  0.75014  0.76207  0.57101  1.0000
  H   H22       1.0  0.24986  0.23793  0.42899  1.0000
  H   H23       1.0  0.49061  0.82677  0.49908  1.0000
  H   H24       1.0  0.50940  0.17323  0.50092  1.0000
  H   H25       1.0  0.44483  0.92676  0.31976  1.0000
  H   H26       1.0  0.55517  0.07324  0.68024  1.0000
  H   H27       1.0  0.65040  0.37043  0.33354  1.0000
  H   H28       1.0  0.34960  0.62957  0.66646  1.0000
  H   H29       1.0  0.61465  0.53277  0.38036  1.0000
  H   H30       1.0  0.38535  0.46724  0.61963  1.0000
  H   H31       1.0  0.80795  0.12350  0.43607  1.0000
  H   H32       1.0  0.19205  0.87650  0.56393  1.0000
  H   H33       1.0  0.86195  0.98026  0.60954  1.0000
  H   H34       1.0  0.13805  0.01974  0.39046  1.0000
  H   H35       1.0  0.80563  0.11010  0.75514  1.0000
  H   H36       1.0  0.19435  0.88991  0.24486  1.0000
  H   H37       1.0  0.69784  0.38080  0.72859  1.0000
  H   H38       1.0  0.30215  0.61921  0.27140  1.0000
  H   H39       1.0  0.65217  0.52414  0.55461  1.0000
  H   H40       1.0  0.34783  0.47586  0.44539  1.0000
  C   C1        1.0  0.39748  0.20123  0.15768  1.0000
  C   C2        1.0  0.60252  0.79877  0.84232  1.0000
  C   C3        1.0  0.40446  0.99779  0.11194  1.0000
  C   C4        1.0  0.59554  0.00221  0.88806  1.0000
  C   C5        1.0  0.25506  0.10111  0.10002  1.0000
  C   C6        1.0  0.74494  0.89889  0.89998  1.0000
  C   C7        1.0  0.11434  0.36333  0.12130  1.0000
  C   C8        1.0  0.88567  0.63667  0.87870  1.0000
  C   C9        1.0  0.92181  0.33983  0.25648  1.0000
  C   C10       1.0  0.07819  0.66017  0.74352  1.0000
  C   C11       1.0  0.01699  0.50973  0.26168  1.0000
  C   C12       1.0  0.98302  0.49027  0.73832  1.0000
  C   C13       1.0  0.89861  0.52692  0.33167  1.0000
  C   C14       1.0  0.10139  0.47308  0.66833  1.0000
  C   C15       1.0  0.65488  0.98168  0.17549  1.0000
  C   C16       1.0  0.34512  0.01832  0.82451  1.0000
  C   C17       1.0  0.67700  0.92368  0.28675  1.0000
  C   C18       1.0  0.32301  0.07632  0.71325  1.0000
  C   C19       1.0  0.82236  0.88782  0.32730  1.0000
  C   C20       1.0  0.17764  0.11218  0.67270  1.0000
  C   C21       1.0  0.84891  0.82969  0.42890  1.0000
  C   C22       1.0  0.15109  0.17031  0.57110  1.0000
  C   C23       1.0  0.73015  0.80690  0.49146  1.0000
  C   C24       1.0  0.26985  0.19310  0.50854  1.0000
  C   C25       1.0  0.58512  0.84231  0.45130  1.0000
  C   C26       1.0  0.41488  0.15769  0.54870  1.0000
  C   C27       1.0  0.55883  0.90008  0.34955  1.0000
  C   C28       1.0  0.44117  0.09992  0.65045  1.0000
  C   C29       1.0  0.69795  0.41887  0.37985  1.0000
  C   C30       1.0  0.30205  0.58113  0.62014  1.0000
  C   C31       1.0  0.72695  0.33269  0.48465  1.0000
  C   C32       1.0  0.27305  0.66731  0.51535  1.0000
  C   C33       1.0  0.78499  0.17938  0.50037  1.0000
  C   C34       1.0  0.21501  0.82062  0.49963  1.0000
  C   C35       1.0  0.81423  0.09955  0.59742  1.0000
  C   C36       1.0  0.18577  0.90045  0.40258  1.0000
  C   C37       1.0  0.78328  0.17223  0.67929  1.0000
  C   C38       1.0  0.21671  0.82778  0.32071  1.0000
  C   C39       1.0  0.72397  0.32481  0.66414  1.0000
  C   C40       1.0  0.27603  0.67519  0.33586  1.0000
  C   C41       1.0  0.69727  0.40478  0.56693  1.0000
  C   C42       1.0  0.30273  0.59523  0.43307  1.0000
  S   S1        1.0  0.45236  0.32320  0.19552  1.0000
  S   S2        1.0  0.54764  0.67680  0.80448  1.0000
  S   S3        1.0  0.89551  0.19977  0.22474  1.0000
  S   S4        1.0  0.10449  0.80023  0.77526  1.0000
  I   I1        1.0  0.63204  0.60279  0.09746  1.0000
  I   I2        1.0  0.36796  0.39721  0.90254  1.0000
  I   I3        1.0  0.84568  0.22630  0.94695  1.0000
  I   I4        1.0  0.15433  0.77370  0.05305  1.0000
  N   N1        1.0  0.49093  0.05974  0.14757  1.0000
  N   N2        1.0  0.50907  0.94026  0.85243  1.0000
  N   N3        1.0  0.25131  0.22529  0.12934  1.0000
  N   N4        1.0  0.74869  0.77471  0.87066  1.0000
  N   N5        1.0  0.03028  0.39495  0.21541  1.0000
  N   N6        1.0  0.96973  0.60505  0.78459  1.0000
  N   N7        1.0  0.84038  0.42381  0.32709  1.0000
  N   N8        1.0  0.15962  0.57619  0.67291  1.0000
