data_image0
_chemical_formula_structural       Gd4H52C28O28
_chemical_formula_sum              "Gd4 H52 C28 O28"
_cell_length_a       7.5899
_cell_length_b       11.8029
_cell_length_c       12.0044
_cell_angle_alpha    90
_cell_angle_beta     90.0003
_cell_angle_gamma    90.0964

_space_group_name_H-M_alt    "P 1"
_space_group_IT_number       1

loop_
  _space_group_symop_operation_xyz
  'x, y, z'

loop_
  _atom_site_type_symbol
  _atom_site_label
  _atom_site_symmetry_multiplicity
  _atom_site_fract_x
  _atom_site_fract_y
  _atom_site_fract_z
  _atom_site_occupancy
  Gd  Gd1       1.0  0.18719  0.24318  0.69500  1.0000
  Gd  Gd2       1.0  0.31281  0.75682  0.19500  1.0000
  Gd  Gd3       1.0  0.81281  0.75682  0.30499  1.0000
  Gd  Gd4       1.0  0.68719  0.24318  0.80500  1.0000
  H   H1        1.0  0.87178  0.25660  0.55178  1.0000
  H   H2        1.0  0.62823  0.74340  0.05178  1.0000
  H   H3        1.0  0.12823  0.74340  0.44822  1.0000
  H   H4        1.0  0.37177  0.25660  0.94822  1.0000
  H   H5        1.0  0.60209  0.55989  0.72989  1.0000
  H   H6        1.0  0.89791  0.44011  0.22989  1.0000
  H   H7        1.0  0.39791  0.44011  0.27010  1.0000
  H   H8        1.0  0.10209  0.55989  0.77011  1.0000
  H   H9        1.0  0.49485  0.59362  0.59979  1.0000
  H   H10       1.0  0.00515  0.40638  0.09979  1.0000
  H   H11       1.0  0.50514  0.40638  0.40021  1.0000
  H   H12       1.0  0.99485  0.59362  0.90021  1.0000
  H   H13       1.0  0.65574  0.48447  0.60716  1.0000
  H   H14       1.0  0.84426  0.51553  0.10716  1.0000
  H   H15       1.0  0.34425  0.51553  0.39284  1.0000
  H   H16       1.0  0.15574  0.48447  0.89284  1.0000
  H   H17       1.0  0.49863  0.16560  0.35850  1.0000
  H   H18       1.0  0.00138  0.83440  0.85850  1.0000
  H   H19       1.0  0.50138  0.83440  0.64150  1.0000
  H   H20       1.0  0.99863  0.16560  0.14150  1.0000
  H   H21       1.0  0.68604  0.09801  0.42062  1.0000
  H   H22       1.0  0.81396  0.90199  0.92062  1.0000
  H   H23       1.0  0.31397  0.90199  0.57938  1.0000
  H   H24       1.0  0.18604  0.09801  0.07938  1.0000
  H   H25       1.0  0.70160  0.24065  0.37807  1.0000
  H   H26       1.0  0.79840  0.75935  0.87807  1.0000
  H   H27       1.0  0.29840  0.75935  0.62193  1.0000
  H   H28       1.0  0.20160  0.24065  0.12193  1.0000
  H   H29       1.0  0.80066  0.91083  0.71699  1.0000
  H   H30       1.0  0.69934  0.08918  0.21700  1.0000
  H   H31       1.0  0.19934  0.08917  0.28301  1.0000
  H   H32       1.0  0.30065  0.91082  0.78301  1.0000
  H   H33       1.0  0.88081  0.90171  0.57589  1.0000
  H   H34       1.0  0.61919  0.09829  0.07589  1.0000
  H   H35       1.0  0.11919  0.09829  0.42411  1.0000
  H   H36       1.0  0.38080  0.90171  0.92411  1.0000
  H   H37       1.0  0.71109  0.99925  0.61354  1.0000
  H   H38       1.0  0.78892  0.00076  0.11354  1.0000
  H   H39       1.0  0.28892  0.00075  0.38646  1.0000
  H   H40       1.0  0.21108  0.99925  0.88646  1.0000
  H   H41       1.0  0.98312  0.28778  0.36131  1.0000
  H   H42       1.0  0.51688  0.71222  0.86131  1.0000
  H   H43       1.0  0.01688  0.71222  0.63869  1.0000
  H   H44       1.0  0.48312  0.28778  0.13869  1.0000
  H   H45       1.0  0.17240  0.34454  0.42979  1.0000
  H   H46       1.0  0.32760  0.65546  0.92979  1.0000
  H   H47       1.0  0.82760  0.65546  0.57021  1.0000
  H   H48       1.0  0.67239  0.34454  0.07021  1.0000
  H   H49       1.0  0.96354  0.41341  0.44513  1.0000
  H   H50       1.0  0.53647  0.58659  0.94513  1.0000
  H   H51       1.0  0.03647  0.58659  0.55487  1.0000
  H   H52       1.0  0.46353  0.41341  0.05487  1.0000
  C   C1        1.0  0.40882  0.43887  0.67715  1.0000
  C   C2        1.0  0.09118  0.56113  0.17715  1.0000
  C   C3        1.0  0.59117  0.56113  0.32285  1.0000
  C   C4        1.0  0.90882  0.43887  0.82285  1.0000
  C   C5        1.0  0.54744  0.52602  0.65219  1.0000
  C   C6        1.0  0.95256  0.47398  0.15219  1.0000
  C   C7        1.0  0.45256  0.47398  0.34781  1.0000
  C   C8        1.0  0.04744  0.52602  0.84781  1.0000
  C   C9        1.0  0.55037  0.21491  0.52792  1.0000
  C   C10       1.0  0.94965  0.78509  0.02792  1.0000
  C   C11       1.0  0.44964  0.78509  0.47208  1.0000
  C   C12       1.0  0.05035  0.21491  0.97208  1.0000
  C   C13       1.0  0.61138  0.17767  0.41398  1.0000
  C   C14       1.0  0.88863  0.82234  0.91398  1.0000
  C   C15       1.0  0.38863  0.82234  0.58602  1.0000
  C   C16       1.0  0.11137  0.17766  0.08603  1.0000
  C   C17       1.0  0.96700  0.04726  0.66913  1.0000
  C   C18       1.0  0.53298  0.95274  0.16912  1.0000
  C   C19       1.0  0.03301  0.95274  0.33087  1.0000
  C   C20       1.0  0.46702  0.04726  0.83088  1.0000
  C   C21       1.0  0.83320  0.95834  0.64112  1.0000
  C   C22       1.0  0.66681  0.04167  0.14112  1.0000
  C   C23       1.0  0.16680  0.04166  0.35888  1.0000
  C   C24       1.0  0.33319  0.95833  0.85888  1.0000
  C   C25       1.0  0.03017  0.33115  0.43708  1.0000
  C   C26       1.0  0.46983  0.66885  0.93708  1.0000
  C   C27       1.0  0.96983  0.66885  0.56292  1.0000
  C   C28       1.0  0.53016  0.33115  0.06292  1.0000
  O   O1        1.0  0.44025  0.36268  0.75238  1.0000
  O   O2        1.0  0.05975  0.63732  0.25238  1.0000
  O   O3        1.0  0.55975  0.63732  0.24762  1.0000
  O   O4        1.0  0.94025  0.36268  0.74762  1.0000
  O   O5        1.0  0.26431  0.43646  0.62491  1.0000
  O   O6        1.0  0.23569  0.56354  0.12491  1.0000
  O   O7        1.0  0.73569  0.56354  0.37509  1.0000
  O   O8        1.0  0.76430  0.43646  0.87509  1.0000
  O   O9        1.0  0.38705  0.21614  0.54760  1.0000
  O   O10       1.0  0.11293  0.78385  0.04760  1.0000
  O   O11       1.0  0.61296  0.78385  0.45240  1.0000
  O   O12       1.0  0.88707  0.21615  0.95240  1.0000
  O   O13       1.0  0.66998  0.24278  0.59923  1.0000
  O   O14       1.0  0.83001  0.75722  0.09923  1.0000
  O   O15       1.0  0.33003  0.75723  0.40077  1.0000
  O   O16       1.0  0.16998  0.24277  0.90077  1.0000
  O   O17       1.0  0.12346  0.04370  0.63374  1.0000
  O   O18       1.0  0.37658  0.95630  0.13375  1.0000
  O   O19       1.0  0.87655  0.95630  0.36626  1.0000
  O   O20       1.0  0.62342  0.04370  0.86626  1.0000
  O   O21       1.0  0.92076  0.13231  0.73142  1.0000
  O   O22       1.0  0.57926  0.86769  0.23142  1.0000
  O   O23       1.0  0.07925  0.86769  0.26858  1.0000
  O   O24       1.0  0.42075  0.13231  0.76858  1.0000
  O   O25       1.0  0.00118  0.26122  0.53289  1.0000
  O   O26       1.0  0.49882  0.73877  0.03290  1.0000
  O   O27       1.0  0.99882  0.73877  0.46710  1.0000
  O   O28       1.0  0.50118  0.26122  0.96710  1.0000
