data_image0
_chemical_formula_structural       Co2H32C44N8O8
_chemical_formula_sum              "Co2 H32 C44 N8 O8"
_cell_length_a       7.81071
_cell_length_b       10.9506
_cell_length_c       13.397
_cell_angle_alpha    85.1599
_cell_angle_beta     76.3163
_cell_angle_gamma    69.155

_space_group_name_H-M_alt    "P 1"
_space_group_IT_number       1

loop_
  _space_group_symop_operation_xyz
  'x, y, z'

loop_
  _atom_site_type_symbol
  _atom_site_label
  _atom_site_symmetry_multiplicity
  _atom_site_fract_x
  _atom_site_fract_y
  _atom_site_fract_z
  _atom_site_occupancy
  Co  Co1       1.0  0.71059  0.57924  0.24993  1.0000
  Co  Co2       1.0  0.28941  0.42076  0.75007  1.0000
  H   H1        1.0  0.83020  0.32367  0.93163  1.0000
  H   H2        1.0  0.84569  0.32378  0.56834  1.0000
  H   H3        1.0  0.16980  0.67632  0.06837  1.0000
  H   H4        1.0  0.15432  0.67621  0.43165  1.0000
  H   H5        1.0  0.60295  0.48792  0.06274  1.0000
  H   H6        1.0  0.90884  0.48816  0.43729  1.0000
  H   H7        1.0  0.39705  0.51208  0.93726  1.0000
  H   H8        1.0  0.09117  0.51183  0.56271  1.0000
  H   H9        1.0  0.15462  0.43160  0.21324  1.0000
  H   H10       1.0  0.41401  0.43145  0.28651  1.0000
  H   H11       1.0  0.84538  0.56840  0.78677  1.0000
  H   H12       1.0  0.58599  0.56855  0.71348  1.0000
  H   H13       1.0  0.46757  0.26518  0.13817  1.0000
  H   H14       1.0  0.26718  0.26492  0.36155  1.0000
  H   H15       1.0  0.53242  0.73482  0.86183  1.0000
  H   H16       1.0  0.73282  0.73508  0.63844  1.0000
  H   H17       1.0  0.50762  0.12914  0.99045  1.0000
  H   H18       1.0  0.36285  0.12886  0.50932  1.0000
  H   H19       1.0  0.49238  0.87086  0.00955  1.0000
  H   H20       1.0  0.63715  0.87114  0.49068  1.0000
  H   H21       1.0  0.23913  0.15454  0.90983  1.0000
  H   H22       1.0  0.60577  0.15437  0.59003  1.0000
  H   H23       1.0  0.76086  0.84546  0.09017  1.0000
  H   H24       1.0  0.39424  0.84563  0.40997  1.0000
  H   H25       1.0  0.69143  0.96344  0.30141  1.0000
  H   H26       1.0  0.34614  0.96366  0.19833  1.0000
  H   H27       1.0  0.30857  0.03656  0.69859  1.0000
  H   H28       1.0  0.65387  0.03634  0.80167  1.0000
  H   H29       1.0  0.74914  0.17423  0.27424  1.0000
  H   H30       1.0  0.07795  0.17433  0.22524  1.0000
  H   H31       1.0  0.25087  0.82577  0.72576  1.0000
  H   H32       1.0  0.92205  0.82567  0.77476  1.0000
  C   C1        1.0  0.75049  0.43768  0.06301  1.0000
  C   C2        1.0  0.81155  0.43782  0.43696  1.0000
  C   C3        1.0  0.24951  0.56232  0.93699  1.0000
  C   C4        1.0  0.18846  0.56218  0.56303  1.0000
  C   C5        1.0  0.02196  0.38154  0.10504  1.0000
  C   C6        1.0  0.59635  0.38151  0.39483  1.0000
  C   C7        1.0  0.97804  0.61846  0.89496  1.0000
  C   C8        1.0  0.40365  0.61849  0.60517  1.0000
  C   C9        1.0  0.17278  0.36967  0.14909  1.0000
  C   C10       1.0  0.45757  0.36950  0.35069  1.0000
  C   C11       1.0  0.82721  0.63033  0.85092  1.0000
  C   C12       1.0  0.54243  0.63049  0.64931  1.0000
  C   C13       1.0  0.34641  0.27769  0.10604  1.0000
  C   C14       1.0  0.37575  0.27747  0.39373  1.0000
  C   C15       1.0  0.65358  0.72231  0.89396  1.0000
  C   C16       1.0  0.62425  0.72253  0.60627  1.0000
  C   C17       1.0  0.36918  0.19996  0.02171  1.0000
  C   C18       1.0  0.43054  0.19974  0.47809  1.0000
  C   C19       1.0  0.63082  0.80004  0.97830  1.0000
  C   C20       1.0  0.56946  0.80026  0.52190  1.0000
  C   C21       1.0  0.22044  0.21204  0.97657  1.0000
  C   C22       1.0  0.56707  0.21192  0.52331  1.0000
  C   C23       1.0  0.77956  0.78796  0.02344  1.0000
  C   C24       1.0  0.43293  0.78807  0.47669  1.0000
  C   C25       1.0  0.04624  0.30483  0.01913  1.0000
  C   C26       1.0  0.64857  0.30480  0.48079  1.0000
  C   C27       1.0  0.95376  0.69517  0.98088  1.0000
  C   C28       1.0  0.35143  0.69519  0.51921  1.0000
  C   C29       1.0  0.94890  0.71970  0.29022  1.0000
  C   C30       1.0  0.33212  0.71981  0.20982  1.0000
  C   C31       1.0  0.05111  0.28030  0.70977  1.0000
  C   C32       1.0  0.66788  0.28020  0.79017  1.0000
  C   C33       1.0  0.98524  0.84566  0.26561  1.0000
  C   C34       1.0  0.17002  0.84571  0.23440  1.0000
  C   C35       1.0  0.01476  0.15434  0.73439  1.0000
  C   C36       1.0  0.82999  0.15429  0.76560  1.0000
  C   C37       1.0  0.83457  0.96441  0.27839  1.0000
  C   C38       1.0  0.20211  0.96452  0.22145  1.0000
  C   C39       1.0  0.16544  0.03559  0.72161  1.0000
  C   C40       1.0  0.79789  0.03548  0.77855  1.0000
  C   C41       1.0  0.86742  0.08243  0.26346  1.0000
  C   C42       1.0  0.05138  0.08249  0.23619  1.0000
  C   C43       1.0  0.13259  0.91757  0.73654  1.0000
  C   C44       1.0  0.94862  0.91751  0.76381  1.0000
  N   N1        1.0  0.83415  0.46283  0.13085  1.0000
  N   N2        1.0  0.70290  0.46289  0.36907  1.0000
  N   N3        1.0  0.16584  0.53717  0.86915  1.0000
  N   N4        1.0  0.29710  0.53711  0.63093  1.0000
  N   N5        1.0  0.87099  0.34391  0.99524  1.0000
  N   N6        1.0  0.78463  0.34403  0.50474  1.0000
  N   N7        1.0  0.12901  0.65609  0.00476  1.0000
  N   N8        1.0  0.21537  0.65597  0.49525  1.0000
  O   O1        1.0  0.82745  0.70713  0.24559  1.0000
  O   O2        1.0  0.46630  0.70735  0.25428  1.0000
  O   O3        1.0  0.17255  0.29287  0.75441  1.0000
  O   O4        1.0  0.53371  0.29265  0.74572  1.0000
  O   O5        1.0  0.03151  0.63891  0.35101  1.0000
  O   O6        1.0  0.33001  0.63894  0.14916  1.0000
  O   O7        1.0  0.96850  0.36109  0.64898  1.0000
  O   O8        1.0  0.67000  0.36106  0.85084  1.0000
