data_image0
_chemical_formula_structural       Nd4H28C52O24
_chemical_formula_sum              "Nd4 H28 C52 O24"
_cell_length_a       6.84003
_cell_length_b       13.1312
_cell_length_c       13.132
_cell_angle_alpha    90.0001
_cell_angle_beta     94.1783
_cell_angle_gamma    90.0003

_space_group_name_H-M_alt    "P 1"
_space_group_IT_number       1

loop_
  _space_group_symop_operation_xyz
  'x, y, z'

loop_
  _atom_site_type_symbol
  _atom_site_label
  _atom_site_symmetry_multiplicity
  _atom_site_fract_x
  _atom_site_fract_y
  _atom_site_fract_z
  _atom_site_occupancy
  Nd  Nd1       1.0  0.90434  0.62831  0.06658  1.0000
  Nd  Nd2       1.0  0.59567  0.12831  0.93342  1.0000
  Nd  Nd3       1.0  0.09567  0.37169  0.93343  1.0000
  Nd  Nd4       1.0  0.40433  0.87169  0.06658  1.0000
  H   H1        1.0  0.56565  0.37323  0.06500  1.0000
  H   H2        1.0  0.93436  0.87324  0.93500  1.0000
  H   H3        1.0  0.43436  0.62676  0.93500  1.0000
  H   H4        1.0  0.06564  0.12677  0.06501  1.0000
  H   H5        1.0  0.23535  0.00250  0.27776  1.0000
  H   H6        1.0  0.26465  0.50251  0.72224  1.0000
  H   H7        1.0  0.76465  0.99749  0.72224  1.0000
  H   H8        1.0  0.73535  0.49749  0.27776  1.0000
  H   H9        1.0  0.33174  0.06452  0.45331  1.0000
  H   H10       1.0  0.16826  0.56452  0.54670  1.0000
  H   H11       1.0  0.66827  0.93548  0.54669  1.0000
  H   H12       1.0  0.83174  0.43548  0.45330  1.0000
  H   H13       1.0  0.98512  0.71044  0.59011  1.0000
  H   H14       1.0  0.51488  0.21044  0.40989  1.0000
  H   H15       1.0  0.01488  0.28956  0.40989  1.0000
  H   H16       1.0  0.48512  0.78956  0.59010  1.0000
  H   H17       1.0  0.09063  0.77140  0.76470  1.0000
  H   H18       1.0  0.40937  0.27140  0.23531  1.0000
  H   H19       1.0  0.90936  0.22860  0.23530  1.0000
  H   H20       1.0  0.59063  0.72860  0.76469  1.0000
  H   H21       1.0  0.34570  0.03877  0.64052  1.0000
  H   H22       1.0  0.15430  0.53877  0.35949  1.0000
  H   H23       1.0  0.65430  0.96123  0.35948  1.0000
  H   H24       1.0  0.84570  0.46123  0.64052  1.0000
  H   H25       1.0  0.97718  0.73447  0.39921  1.0000
  H   H26       1.0  0.52282  0.23447  0.60079  1.0000
  H   H27       1.0  0.02282  0.26553  0.60079  1.0000
  H   H28       1.0  0.47718  0.76553  0.39921  1.0000
  C   C1        1.0  0.71129  0.37151  0.03371  1.0000
  C   C2        1.0  0.78871  0.87152  0.96629  1.0000
  C   C3        1.0  0.28872  0.62849  0.96630  1.0000
  C   C4        1.0  0.21128  0.12849  0.03371  1.0000
  C   C5        1.0  0.05449  0.82641  0.22275  1.0000
  C   C6        1.0  0.44550  0.32641  0.77725  1.0000
  C   C7        1.0  0.94551  0.17359  0.77724  1.0000
  C   C8        1.0  0.55450  0.67359  0.22275  1.0000
  C   C9        1.0  0.10076  0.86438  0.32917  1.0000
  C   C10       1.0  0.39923  0.36438  0.67083  1.0000
  C   C11       1.0  0.89924  0.13562  0.67083  1.0000
  C   C12       1.0  0.60077  0.63562  0.32917  1.0000
  C   C13       1.0  0.20176  0.95829  0.34435  1.0000
  C   C14       1.0  0.29824  0.45829  0.65565  1.0000
  C   C15       1.0  0.79824  0.04171  0.65565  1.0000
  C   C16       1.0  0.70176  0.54171  0.34435  1.0000
  C   C17       1.0  0.25534  0.99223  0.44129  1.0000
  C   C18       1.0  0.24466  0.49223  0.55871  1.0000
  C   C19       1.0  0.74466  0.00777  0.55871  1.0000
  C   C20       1.0  0.75534  0.50777  0.44129  1.0000
  C   C21       1.0  0.21174  0.93403  0.52792  1.0000
  C   C22       1.0  0.28826  0.43403  0.47208  1.0000
  C   C23       1.0  0.78826  0.06597  0.47208  1.0000
  C   C24       1.0  0.71174  0.56597  0.52792  1.0000
  C   C25       1.0  0.10778  0.83937  0.51330  1.0000
  C   C26       1.0  0.39222  0.33937  0.48671  1.0000
  C   C27       1.0  0.89222  0.16063  0.48670  1.0000
  C   C28       1.0  0.60779  0.66063  0.51329  1.0000
  C   C29       1.0  0.06501  0.78190  0.60074  1.0000
  C   C30       1.0  0.43499  0.28189  0.39926  1.0000
  C   C31       1.0  0.93500  0.21810  0.39926  1.0000
  C   C32       1.0  0.56501  0.71811  0.60074  1.0000
  C   C33       1.0  0.29288  0.94526  0.81649  1.0000
  C   C34       1.0  0.20712  0.44525  0.18351  1.0000
  C   C35       1.0  0.70712  0.05474  0.18351  1.0000
  C   C36       1.0  0.79288  0.55475  0.81649  1.0000
  C   C37       1.0  0.12265  0.81555  0.69761  1.0000
  C   C38       1.0  0.37735  0.31555  0.30239  1.0000
  C   C39       1.0  0.87735  0.18445  0.30239  1.0000
  C   C40       1.0  0.62265  0.68445  0.69761  1.0000
  C   C41       1.0  0.22560  0.90891  0.71194  1.0000
  C   C42       1.0  0.27440  0.40891  0.28806  1.0000
  C   C43       1.0  0.77439  0.09109  0.28806  1.0000
  C   C44       1.0  0.72560  0.59109  0.71194  1.0000
  C   C45       1.0  0.26780  0.96692  0.62819  1.0000
  C   C46       1.0  0.23220  0.46692  0.37181  1.0000
  C   C47       1.0  0.73220  0.03308  0.37181  1.0000
  C   C48       1.0  0.76780  0.53308  0.62819  1.0000
  C   C49       1.0  0.05411  0.80655  0.41235  1.0000
  C   C50       1.0  0.44588  0.30655  0.58766  1.0000
  C   C51       1.0  0.94589  0.19345  0.58765  1.0000
  C   C52       1.0  0.55412  0.69345  0.41234  1.0000
  O   O1        1.0  0.11362  0.88031  0.14917  1.0000
  O   O2        1.0  0.38637  0.38032  0.85083  1.0000
  O   O3        1.0  0.88638  0.11969  0.85083  1.0000
  O   O4        1.0  0.61363  0.61968  0.14917  1.0000
  O   O5        1.0  0.26881  0.88574  0.89170  1.0000
  O   O6        1.0  0.23119  0.38574  0.10830  1.0000
  O   O7        1.0  0.73119  0.11426  0.10829  1.0000
  O   O8        1.0  0.76881  0.61426  0.89171  1.0000
  O   O9        1.0  0.96476  0.74262  0.20936  1.0000
  O   O10       1.0  0.53525  0.24262  0.79064  1.0000
  O   O11       1.0  0.03525  0.25738  0.79064  1.0000
  O   O12       1.0  0.46476  0.75737  0.20935  1.0000
  O   O13       1.0  0.82256  0.44849  0.04511  1.0000
  O   O14       1.0  0.67744  0.94850  0.95489  1.0000
  O   O15       1.0  0.17744  0.55151  0.95489  1.0000
  O   O16       1.0  0.32255  0.05151  0.04511  1.0000
  O   O17       1.0  0.76668  0.29243  0.98746  1.0000
  O   O18       1.0  0.73333  0.79244  0.01253  1.0000
  O   O19       1.0  0.23333  0.70757  0.01254  1.0000
  O   O20       1.0  0.26667  0.20757  0.98746  1.0000
  O   O21       1.0  0.37303  0.03275  0.82395  1.0000
  O   O22       1.0  0.12697  0.53275  0.17605  1.0000
  O   O23       1.0  0.62696  0.96725  0.17605  1.0000
  O   O24       1.0  0.87303  0.46725  0.82395  1.0000
