data_image0
_chemical_formula_structural       Cu4H20C16Br4N12Cl8
_chemical_formula_sum              "Cu4 H20 C16 Br4 N12 Cl8"
_cell_length_a       6.89656
_cell_length_b       7.51318
_cell_length_c       16.7105
_cell_angle_alpha    89.9981
_cell_angle_beta     89.9992
_cell_angle_gamma    90.5581

_space_group_name_H-M_alt    "P 1"
_space_group_IT_number       1

loop_
  _space_group_symop_operation_xyz
  'x, y, z'

loop_
  _atom_site_type_symbol
  _atom_site_label
  _atom_site_symmetry_multiplicity
  _atom_site_fract_x
  _atom_site_fract_y
  _atom_site_fract_z
  _atom_site_occupancy
  Cu  Cu1       1.0  0.17495  0.40827  0.22536  1.0000
  Cu  Cu2       1.0  0.32504  0.59174  0.72537  1.0000
  Cu  Cu3       1.0  0.82504  0.59173  0.77465  1.0000
  Cu  Cu4       1.0  0.67496  0.40827  0.27463  1.0000
  H   H1        1.0  0.31819  0.87437  0.21959  1.0000
  H   H2        1.0  0.18179  0.12563  0.71959  1.0000
  H   H3        1.0  0.68179  0.12564  0.78041  1.0000
  H   H4        1.0  0.81820  0.87437  0.28042  1.0000
  H   H5        1.0  0.24504  0.08714  0.18023  1.0000
  H   H6        1.0  0.25494  0.91286  0.68023  1.0000
  H   H7        1.0  0.75495  0.91285  0.81978  1.0000
  H   H8        1.0  0.74505  0.08715  0.31976  1.0000
  H   H9        1.0  0.33315  0.82407  0.35091  1.0000
  H   H10       1.0  0.16684  0.17591  0.85091  1.0000
  H   H11       1.0  0.66685  0.17591  0.64909  1.0000
  H   H12       1.0  0.83316  0.82408  0.14909  1.0000
  H   H13       1.0  0.10283  0.41625  0.39941  1.0000
  H   H14       1.0  0.39719  0.58374  0.89943  1.0000
  H   H15       1.0  0.89718  0.58374  0.60059  1.0000
  H   H16       1.0  0.60281  0.41626  0.10058  1.0000
  H   H17       1.0  0.29602  0.90461  0.48849  1.0000
  H   H18       1.0  0.20399  0.09538  0.98849  1.0000
  H   H19       1.0  0.70399  0.09537  0.51151  1.0000
  H   H20       1.0  0.79599  0.90462  0.01150  1.0000
  C   C1        1.0  0.24827  0.06158  0.30175  1.0000
  C   C2        1.0  0.25173  0.93840  0.80176  1.0000
  C   C3        1.0  0.75175  0.93841  0.69824  1.0000
  C   C4        1.0  0.74826  0.06160  0.19825  1.0000
  C   C5        1.0  0.15706  0.28192  0.39062  1.0000
  C   C6        1.0  0.34295  0.71807  0.89063  1.0000
  C   C7        1.0  0.84295  0.71808  0.60938  1.0000
  C   C8        1.0  0.65704  0.28193  0.10937  1.0000
  C   C9        1.0  0.19744  0.17175  0.45633  1.0000
  C   C10       1.0  0.30260  0.82825  0.95634  1.0000
  C   C11       1.0  0.80260  0.82827  0.54366  1.0000
  C   C12       1.0  0.69741  0.17177  0.04366  1.0000
  C   C13       1.0  0.26293  0.00234  0.44198  1.0000
  C   C14       1.0  0.23709  0.99767  0.94199  1.0000
  C   C15       1.0  0.73709  0.99768  0.55801  1.0000
  C   C16       1.0  0.76290  0.00235  0.05801  1.0000
  Br  Br1       1.0  0.16918  0.26203  0.56100  1.0000
  Br  Br2       1.0  0.33081  0.73792  0.06101  1.0000
  Br  Br3       1.0  0.83082  0.73797  0.43899  1.0000
  Br  Br4       1.0  0.66918  0.26208  0.93900  1.0000
  N   N1        1.0  0.18445  0.23026  0.31494  1.0000
  N   N2        1.0  0.31553  0.76973  0.81494  1.0000
  N   N3        1.0  0.81556  0.76973  0.68507  1.0000
  N   N4        1.0  0.68446  0.23026  0.18505  1.0000
  N   N5        1.0  0.27267  0.00245  0.22801  1.0000
  N   N6        1.0  0.22731  0.99754  0.72801  1.0000
  N   N7        1.0  0.72733  0.99755  0.77198  1.0000
  N   N8        1.0  0.77268  0.00246  0.27199  1.0000
  N   N9        1.0  0.28575  0.95110  0.36476  1.0000
  N   N10       1.0  0.21424  0.04889  0.86476  1.0000
  N   N11       1.0  0.71426  0.04891  0.63523  1.0000
  N   N12       1.0  0.78575  0.95111  0.13524  1.0000
  Cl  Cl1       1.0  0.92226  0.61444  0.23790  1.0000
  Cl  Cl2       1.0  0.57773  0.38558  0.73789  1.0000
  Cl  Cl3       1.0  0.07773  0.38557  0.76211  1.0000
  Cl  Cl4       1.0  0.42227  0.61443  0.26210  1.0000
  Cl  Cl5       1.0  0.18338  0.28814  0.10059  1.0000
  Cl  Cl6       1.0  0.31660  0.71187  0.60060  1.0000
  Cl  Cl7       1.0  0.81661  0.71188  0.89941  1.0000
  Cl  Cl8       1.0  0.68340  0.28814  0.39940  1.0000
