data_image0
_chemical_formula_structural       Zn3H42C54N10O12
_chemical_formula_sum              "Zn3 H42 C54 N10 O12"
_cell_length_a       10.5126
_cell_length_b       10.6078
_cell_length_c       12.3072
_cell_angle_alpha    79.9536
_cell_angle_beta     83.6307
_cell_angle_gamma    76.9526

_space_group_name_H-M_alt    "P 1"
_space_group_IT_number       1

loop_
  _space_group_symop_operation_xyz
  'x, y, z'

loop_
  _atom_site_type_symbol
  _atom_site_label
  _atom_site_symmetry_multiplicity
  _atom_site_fract_x
  _atom_site_fract_y
  _atom_site_fract_z
  _atom_site_occupancy
  Zn  Zn1       1.0  0.27754  0.65279  0.16566  1.0000
  Zn  Zn2       1.0  0.72246  0.34721  0.83434  1.0000
  Zn  Zn3       1.0  0.50000  0.50000  0.00000  1.0000
  H   H1        1.0  0.45112  0.01901  0.87947  1.0000
  H   H2        1.0  0.54889  0.98099  0.12053  1.0000
  H   H3        1.0  0.48127  0.09887  0.67606  1.0000
  H   H4        1.0  0.51873  0.90113  0.32394  1.0000
  H   H5        1.0  0.37835  0.75304  0.60476  1.0000
  H   H6        1.0  0.62165  0.24697  0.39523  1.0000
  H   H7        1.0  0.34222  0.67648  0.80824  1.0000
  H   H8        1.0  0.65778  0.32352  0.19176  1.0000
  H   H9        1.0  0.35387  0.18748  0.02970  1.0000
  H   H10       1.0  0.64613  0.81252  0.97030  1.0000
  H   H11       1.0  0.23346  0.02553  0.99021  1.0000
  H   H12       1.0  0.76654  0.97447  0.00979  1.0000
  H   H13       1.0  0.86684  0.27315  0.08041  1.0000
  H   H14       1.0  0.13316  0.72685  0.91960  1.0000
  H   H15       1.0  0.98962  0.43594  0.12248  1.0000
  H   H16       1.0  0.01038  0.56406  0.87752  1.0000
  H   H17       1.0  0.51377  0.63011  0.44022  1.0000
  H   H18       1.0  0.48623  0.36989  0.55978  1.0000
  H   H19       1.0  0.69674  0.60592  0.56383  1.0000
  H   H20       1.0  0.30326  0.39409  0.43617  1.0000
  H   H21       1.0  0.97728  0.45844  0.30969  1.0000
  H   H22       1.0  0.02273  0.54156  0.69032  1.0000
  H   H23       1.0  0.79356  0.48401  0.18660  1.0000
  H   H24       1.0  0.20644  0.51598  0.81340  1.0000
  H   H25       1.0  0.28816  0.90414  0.36037  1.0000
  H   H26       1.0  0.71184  0.09587  0.63963  1.0000
  H   H27       1.0  0.24003  0.04347  0.25914  1.0000
  H   H28       1.0  0.75997  0.95653  0.74087  1.0000
  H   H29       1.0  0.33207  0.89634  0.21693  1.0000
  H   H30       1.0  0.66793  0.10367  0.78307  1.0000
  H   H31       1.0  0.97288  0.69344  0.19982  1.0000
  H   H32       1.0  0.02712  0.30656  0.80018  1.0000
  H   H33       1.0  0.81930  0.90908  0.28609  1.0000
  H   H34       1.0  0.18070  0.09092  0.71391  1.0000
  H   H35       1.0  0.88340  0.13081  0.30498  1.0000
  H   H36       1.0  0.11659  0.86919  0.69502  1.0000
  H   H37       1.0  0.04894  0.12531  0.32403  1.0000
  H   H38       1.0  0.95105  0.87469  0.67597  1.0000
  H   H39       1.0  0.90791  0.13574  0.49952  1.0000
  H   H40       1.0  0.09208  0.86427  0.50048  1.0000
  H   H41       1.0  0.85836  0.99076  0.48689  1.0000
  H   H42       1.0  0.14164  0.00925  0.51310  1.0000
  C   C1        1.0  0.38314  0.79315  0.97699  1.0000
  C   C2        1.0  0.61686  0.20685  0.02301  1.0000
  C   C3        1.0  0.39645  0.84181  0.85563  1.0000
  C   C4        1.0  0.60355  0.15819  0.14436  1.0000
  C   C5        1.0  0.43437  0.96197  0.81876  1.0000
  C   C6        1.0  0.56564  0.03803  0.18124  1.0000
  C   C7        1.0  0.45315  0.00558  0.70632  1.0000
  C   C8        1.0  0.54685  0.99442  0.29368  1.0000
  C   C9        1.0  0.43724  0.92758  0.62924  1.0000
  C   C10       1.0  0.56276  0.07242  0.37076  1.0000
  C   C11       1.0  0.39271  0.81091  0.66578  1.0000
  C   C12       1.0  0.60729  0.18909  0.33422  1.0000
  C   C13       1.0  0.37260  0.76863  0.77847  1.0000
  C   C14       1.0  0.62740  0.23137  0.22153  1.0000
  C   C15       1.0  0.25123  0.41411  0.10986  1.0000
  C   C16       1.0  0.74877  0.58589  0.89014  1.0000
  C   C17       1.0  0.17847  0.31944  0.08227  1.0000
  C   C18       1.0  0.82152  0.68056  0.91773  1.0000
  C   C19       1.0  0.24754  0.20503  0.04201  1.0000
  C   C20       1.0  0.75246  0.79497  0.95799  1.0000
  C   C21       1.0  0.18071  0.11545  0.01885  1.0000
  C   C22       1.0  0.81929  0.88455  0.98115  1.0000
  C   C23       1.0  0.04338  0.13875  0.03556  1.0000
  C   C24       1.0  0.95662  0.86124  0.96445  1.0000
  C   C25       1.0  0.97352  0.25499  0.07214  1.0000
  C   C26       1.0  0.02648  0.74500  0.92786  1.0000
  C   C27       1.0  0.04125  0.34459  0.09512  1.0000
  C   C28       1.0  0.95875  0.65541  0.90489  1.0000
  C   C29       1.0  0.53895  0.57059  0.22970  1.0000
  C   C30       1.0  0.46106  0.42940  0.77030  1.0000
  C   C31       1.0  0.64390  0.55776  0.30643  1.0000
  C   C32       1.0  0.35611  0.44224  0.69357  1.0000
  C   C33       1.0  0.61526  0.59276  0.41253  1.0000
  C   C34       1.0  0.38474  0.40724  0.58747  1.0000
  C   C35       1.0  0.71616  0.57970  0.48081  1.0000
  C   C36       1.0  0.28384  0.42030  0.51919  1.0000
  C   C37       1.0  0.84635  0.53104  0.44351  1.0000
  C   C38       1.0  0.15365  0.46897  0.55649  1.0000
  C   C39       1.0  0.87541  0.49445  0.33736  1.0000
  C   C40       1.0  0.12460  0.50555  0.66264  1.0000
  C   C41       1.0  0.77456  0.50871  0.26996  1.0000
  C   C42       1.0  0.22545  0.49129  0.73004  1.0000
  C   C43       1.0  0.25472  0.93640  0.27647  1.0000
  C   C44       1.0  0.74528  0.06360  0.72353  1.0000
  C   C45       1.0  0.13437  0.89139  0.26403  1.0000
  C   C46       1.0  0.86564  0.10860  0.73597  1.0000
  C   C47       1.0  0.00067  0.77310  0.22907  1.0000
  C   C48       1.0  0.99933  0.22690  0.77093  1.0000
  C   C49       1.0  0.92447  0.87830  0.27171  1.0000
  C   C50       1.0  0.07553  0.12170  0.72829  1.0000
  C   C51       1.0  0.97035  0.07050  0.34425  1.0000
  C   C52       1.0  0.02965  0.92950  0.65575  1.0000
  C   C53       1.0  0.94119  0.04090  0.46946  1.0000
  C   C54       1.0  0.05881  0.95910  0.53054  1.0000
  N   N1        1.0  0.46335  0.95894  0.51403  1.0000
  N   N2        1.0  0.53665  0.04106  0.48597  1.0000
  N   N3        1.0  0.96722  0.05110  0.01811  1.0000
  N   N4        1.0  0.03278  0.94889  0.98190  1.0000
  N   N5        1.0  0.94217  0.52517  0.51699  1.0000
  N   N6        1.0  0.05784  0.47484  0.48301  1.0000
  N   N7        1.0  0.13038  0.78250  0.22405  1.0000
  N   N8        1.0  0.86962  0.21750  0.77595  1.0000
  N   N9        1.0  0.00971  0.95185  0.29329  1.0000
  N   N10       1.0  0.99028  0.04815  0.70671  1.0000
  O   O1        1.0  0.34553  0.68034  0.00516  1.0000
  O   O2        1.0  0.65447  0.31966  0.99484  1.0000
  O   O3        1.0  0.40472  0.85709  0.04590  1.0000
  O   O4        1.0  0.59528  0.14291  0.95410  1.0000
  O   O5        1.0  0.37493  0.39042  0.09244  1.0000
  O   O6        1.0  0.62506  0.60958  0.90755  1.0000
  O   O7        1.0  0.18324  0.51366  0.15109  1.0000
  O   O8        1.0  0.81676  0.48635  0.84891  1.0000
  O   O9        1.0  0.57669  0.53875  0.13506  1.0000
  O   O10       1.0  0.42332  0.46124  0.86494  1.0000
  O   O11       1.0  0.42023  0.61170  0.26604  1.0000
  O   O12       1.0  0.57978  0.38829  0.73396  1.0000
