data_image0
_chemical_formula_structural       Na2H44PdC44S4N4O10
_chemical_formula_sum              "Na2 H44 Pd1 C44 S4 N4 O10"
_cell_length_a       8.20111
_cell_length_b       12.705
_cell_length_c       12.8527
_cell_angle_alpha    115.099
_cell_angle_beta     105.886
_cell_angle_gamma    91.6046

_space_group_name_H-M_alt    "P 1"
_space_group_IT_number       1

loop_
  _space_group_symop_operation_xyz
  'x, y, z'

loop_
  _atom_site_type_symbol
  _atom_site_label
  _atom_site_symmetry_multiplicity
  _atom_site_fract_x
  _atom_site_fract_y
  _atom_site_fract_z
  _atom_site_occupancy
  Na  Na1       1.0  0.74539  0.32731  0.62127  1.0000
  Na  Na2       1.0  0.25461  0.67269  0.37873  1.0000
  H   H1        1.0  0.37276  0.08030  0.19098  1.0000
  H   H2        1.0  0.62724  0.91970  0.80902  1.0000
  H   H3        1.0  0.37486  0.92480  0.99519  1.0000
  H   H4        1.0  0.62513  0.07521  0.00480  1.0000
  H   H5        1.0  0.48493  0.74895  0.87733  1.0000
  H   H6        1.0  0.51507  0.25106  0.12267  1.0000
  H   H7        1.0  0.70043  0.66192  0.98362  1.0000
  H   H8        1.0  0.29957  0.33808  0.01638  1.0000
  H   H9        1.0  0.79990  0.74985  0.20732  1.0000
  H   H10       1.0  0.20010  0.25015  0.79268  1.0000
  H   H11       1.0  0.78897  0.90108  0.40593  1.0000
  H   H12       1.0  0.21103  0.09892  0.59407  1.0000
  H   H13       1.0  0.93784  0.06806  0.59927  1.0000
  H   H14       1.0  0.06216  0.93194  0.40073  1.0000
  H   H15       1.0  0.77449  0.97150  0.59950  1.0000
  H   H16       1.0  0.22551  0.02850  0.40050  1.0000
  H   H17       1.0  0.71240  0.13880  0.76569  1.0000
  H   H18       1.0  0.28760  0.86120  0.23431  1.0000
  H   H19       1.0  0.93017  0.11788  0.80967  1.0000
  H   H20       1.0  0.06983  0.88212  0.19033  1.0000
  H   H21       1.0  0.97971  0.42804  0.90475  1.0000
  H   H22       1.0  0.02029  0.57196  0.09526  1.0000
  H   H23       1.0  0.94968  0.32191  0.95884  1.0000
  H   H24       1.0  0.05032  0.67809  0.04116  1.0000
  H   H25       1.0  0.62534  0.30143  0.86319  1.0000
  H   H26       1.0  0.37466  0.69857  0.13681  1.0000
  H   H27       1.0  0.72441  0.44456  0.98176  1.0000
  H   H28       1.0  0.27559  0.55545  0.01824  1.0000
  H   H29       1.0  0.46301  0.50544  0.86390  1.0000
  H   H30       1.0  0.53699  0.49456  0.13610  1.0000
  H   H31       1.0  0.40201  0.36235  0.73723  1.0000
  H   H32       1.0  0.59799  0.63765  0.26277  1.0000
  H   H33       1.0  0.34144  0.53176  0.68035  1.0000
  H   H34       1.0  0.65856  0.46824  0.31965  1.0000
  H   H35       1.0  0.56821  0.58411  0.74032  1.0000
  H   H36       1.0  0.43179  0.41589  0.25968  1.0000
  H   H37       1.0  0.26764  0.41619  0.45584  1.0000
  H   H38       1.0  0.73236  0.58381  0.54416  1.0000
  H   H39       1.0  0.25897  0.32283  0.52723  1.0000
  H   H40       1.0  0.74103  0.67717  0.47277  1.0000
  H   H41       1.0  0.26439  0.21112  0.31652  1.0000
  H   H42       1.0  0.73561  0.78888  0.68348  1.0000
  H   H43       1.0  0.46881  0.29657  0.35500  1.0000
  H   H44       1.0  0.53119  0.70343  0.64500  1.0000
  Pd  Pd1       1.0  1.00000  1.00000  1.00000  1.0000
  C   C1        1.0  0.52117  0.09221  0.36330  1.0000
  C   C2        1.0  0.47883  0.90779  0.63670  1.0000
  C   C3        1.0  0.46483  0.04283  0.23889  1.0000
  C   C4        1.0  0.53517  0.95717  0.76111  1.0000
  C   C5        1.0  0.52394  0.93967  0.16976  1.0000
  C   C6        1.0  0.47606  0.06033  0.83024  1.0000
  C   C7        1.0  0.46707  0.88610  0.04151  1.0000
  C   C8        1.0  0.53292  0.11390  0.95849  1.0000
  C   C9        1.0  0.52865  0.78749  0.97590  1.0000
  C   C10       1.0  0.47135  0.21251  0.02410  1.0000
  C   C11       1.0  0.64943  0.73813  0.03598  1.0000
  C   C12       1.0  0.35056  0.26187  0.96402  1.0000
  C   C13       1.0  0.70504  0.78723  0.16103  1.0000
  C   C14       1.0  0.29496  0.21277  0.83897  1.0000
  C   C15       1.0  0.64368  0.88823  0.23083  1.0000
  C   C16       1.0  0.35632  0.11177  0.76917  1.0000
  C   C17       1.0  0.69940  0.94091  0.35957  1.0000
  C   C18       1.0  0.30060  0.05909  0.64043  1.0000
  C   C19       1.0  0.64107  0.04092  0.42455  1.0000
  C   C20       1.0  0.35894  0.95908  0.57544  1.0000
  C   C21       1.0  0.81638  0.06294  0.61931  1.0000
  C   C22       1.0  0.18363  0.93706  0.38069  1.0000
  C   C23       1.0  0.83654  0.14457  0.74945  1.0000
  C   C24       1.0  0.16346  0.85543  0.25055  1.0000
  C   C25       1.0  0.89542  0.35007  0.88809  1.0000
  C   C26       1.0  0.10458  0.64993  0.11191  1.0000
  C   C27       1.0  0.71803  0.37983  0.88934  1.0000
  C   C28       1.0  0.28197  0.62017  0.11066  1.0000
  C   C29       1.0  0.49037  0.44704  0.78023  1.0000
  C   C30       1.0  0.50962  0.55296  0.21977  1.0000
  C   C31       1.0  0.46890  0.50518  0.69698  1.0000
  C   C32       1.0  0.53110  0.49482  0.30302  1.0000
  C   C33       1.0  0.34026  0.36035  0.49144  1.0000
  C   C34       1.0  0.65974  0.63964  0.50856  1.0000
  C   C35       1.0  0.38347  0.26220  0.39030  1.0000
  C   C36       1.0  0.61653  0.73780  0.60970  1.0000
  C   C37       1.0  0.03617  0.79239  0.80956  1.0000
  C   C38       1.0  0.96383  0.20761  0.19044  1.0000
  C   C39       1.0  0.06691  0.68837  0.72121  1.0000
  C   C40       1.0  0.93310  0.31163  0.27879  1.0000
  C   C41       1.0  0.02834  0.57884  0.71927  1.0000
  C   C42       1.0  0.97166  0.42116  0.28073  1.0000
  C   C43       1.0  0.13364  0.69172  0.63269  1.0000
  C   C44       1.0  0.86637  0.30828  0.36730  1.0000
  S   S1        1.0  0.93904  0.79466  0.91268  1.0000
  S   S2        1.0  0.06096  0.20534  0.08732  1.0000
  S   S3        1.0  0.08935  0.93154  0.82732  1.0000
  S   S4        1.0  0.91065  0.06846  0.17268  1.0000
  N   N1        1.0  0.99630  0.48793  0.71868  1.0000
  N   N2        1.0  0.00369  0.51208  0.28132  1.0000
  N   N3        1.0  0.18767  0.69454  0.55824  1.0000
  N   N4        1.0  0.81233  0.30546  0.44176  1.0000
  O   O1        1.0  0.47183  0.18955  0.43999  1.0000
  O   O2        1.0  0.52818  0.81046  0.56001  1.0000
  O   O3        1.0  0.68821  0.10126  0.54771  1.0000
  O   O4        1.0  0.31179  0.89874  0.45229  1.0000
  O   O5        1.0  0.89413  0.26193  0.77156  1.0000
  O   O6        1.0  0.10587  0.73806  0.22844  1.0000
  O   O7        1.0  0.66515  0.42874  0.80600  1.0000
  O   O8        1.0  0.33485  0.57126  0.19400  1.0000
  O   O9        1.0  0.49629  0.42952  0.58496  1.0000
  O   O10       1.0  0.50370  0.57048  0.41504  1.0000
