data_image0
_chemical_formula_structural       Zn2H24C32N4O8
_chemical_formula_sum              "Zn2 H24 C32 N4 O8"
_cell_length_a       7.77385
_cell_length_b       9.53678
_cell_length_c       12.9104
_cell_angle_alpha    112.013
_cell_angle_beta     107.904
_cell_angle_gamma    89.0015

_space_group_name_H-M_alt    "P 1"
_space_group_IT_number       1

loop_
  _space_group_symop_operation_xyz
  'x, y, z'

loop_
  _atom_site_type_symbol
  _atom_site_label
  _atom_site_symmetry_multiplicity
  _atom_site_fract_x
  _atom_site_fract_y
  _atom_site_fract_z
  _atom_site_occupancy
  Zn  Zn1       1.0  0.29014  0.10863  0.19799  1.0000
  Zn  Zn2       1.0  0.59198  0.91068  0.80213  1.0000
  H   H1        1.0  0.65983  0.15829  0.72558  1.0000
  H   H2        1.0  0.43420  0.43271  0.27422  1.0000
  H   H3        1.0  0.80862  0.42611  0.81824  1.0000
  H   H4        1.0  0.49025  0.60761  0.18142  1.0000
  H   H5        1.0  0.98102  0.37282  0.15287  1.0000
  H   H6        1.0  0.32783  0.21935  0.84685  1.0000
  H   H7        1.0  0.82912  0.10835  0.04596  1.0000
  H   H8        1.0  0.28317  0.06201  0.95398  1.0000
  H   H9        1.0  0.05159  0.61672  0.15587  1.0000
  H   H10       1.0  0.39514  0.46053  0.84382  1.0000
  H   H11       1.0  0.99556  0.65104  0.92035  1.0000
  H   H12       1.0  0.57544  0.73009  0.07947  1.0000
  H   H13       1.0  0.63094  0.03595  0.15065  1.0000
  H   H14       1.0  0.97985  0.88566  0.84942  1.0000
  H   H15       1.0  0.93876  0.98379  0.25306  1.0000
  H   H16       1.0  0.18547  0.73117  0.74715  1.0000
  H   H17       1.0  0.74920  0.02865  0.54496  1.0000
  H   H18       1.0  0.70426  0.48328  0.45531  1.0000
  H   H19       1.0  0.45452  0.08161  0.43415  1.0000
  H   H20       1.0  0.52022  0.64696  0.56602  1.0000
  H   H21       1.0  0.15314  0.96646  0.41932  1.0000
  H   H22       1.0  0.23379  0.54732  0.58081  1.0000
  H   H23       1.0  0.03312  0.00119  0.63361  1.0000
  H   H24       1.0  0.89934  0.36675  0.36698  1.0000
  C   C1        1.0  0.73664  0.21133  0.81975  1.0000
  C   C2        1.0  0.41685  0.39142  0.18004  1.0000
  C   C3        1.0  0.81968  0.35966  0.87223  1.0000
  C   C4        1.0  0.44736  0.48712  0.12748  1.0000
  C   C5        1.0  0.91117  0.42339  0.99490  1.0000
  C   C6        1.0  0.41589  0.42807  0.00477  1.0000
  C   C7        1.0  0.91271  0.33082  0.05790  1.0000
  C   C8        1.0  0.35452  0.27245  0.94180  1.0000
  C   C9        1.0  0.82829  0.18275  0.99917  1.0000
  C   C10       1.0  0.32906  0.18324  0.00066  1.0000
  C   C11       1.0  0.00142  0.57789  0.05957  1.0000
  C   C12       1.0  0.44145  0.51794  0.94013  1.0000
  C   C13       1.0  0.03436  0.67748  0.01486  1.0000
  C   C14       1.0  0.51951  0.66215  0.98494  1.0000
  C   C15       1.0  0.13061  0.83108  0.09670  1.0000
  C   C16       1.0  0.53385  0.73407  0.90322  1.0000
  C   C17       1.0  0.66458  0.03696  0.23942  1.0000
  C   C18       1.0  0.92485  0.79770  0.76072  1.0000
  C   C19       1.0  0.83455  0.00581  0.29559  1.0000
  C   C20       1.0  0.03876  0.71045  0.70458  1.0000
  C   C21       1.0  0.87395  0.00653  0.40955  1.0000
  C   C22       1.0  0.96432  0.59690  0.59069  1.0000
  C   C23       1.0  0.73250  0.03229  0.45913  1.0000
  C   C24       1.0  0.77329  0.57285  0.54113  1.0000
  C   C25       1.0  0.56562  0.06209  0.39740  1.0000
  C   C26       1.0  0.66804  0.66435  0.60281  1.0000
  C   C27       1.0  0.05834  0.98458  0.46936  1.0000
  C   C28       1.0  0.08895  0.51506  0.53088  1.0000
  C   C29       1.0  0.12101  0.98731  0.57953  1.0000
  C   C30       1.0  0.04135  0.40722  0.42081  1.0000
  C   C31       1.0  0.31383  0.96806  0.63419  1.0000
  C   C32       1.0  0.17940  0.33344  0.36593  1.0000
  N   N1        1.0  0.74072  0.12361  0.88192  1.0000
  N   N2        1.0  0.35873  0.24149  0.11792  1.0000
  N   N3        1.0  0.53264  0.06692  0.28979  1.0000
  N   N4        1.0  0.74257  0.77697  0.71036  1.0000
  O   O1        1.0  0.16167  0.92221  0.04904  1.0000
  O   O2        1.0  0.61271  0.87286  0.95095  1.0000
  O   O3        1.0  0.17767  0.86909  0.20683  1.0000
  O   O4        1.0  0.47053  0.66208  0.79308  1.0000
  O   O5        1.0  0.43380  0.97102  0.58872  1.0000
  O   O6        1.0  0.34480  0.38208  0.41135  1.0000
  O   O7        1.0  0.34271  0.94985  0.73339  1.0000
  O   O8        1.0  0.10918  0.21612  0.26664  1.0000
