data_image0
_chemical_formula_structural       CuH18C16N4O4
_chemical_formula_sum              "Cu1 H18 C16 N4 O4"
_cell_length_a       5.8382
_cell_length_b       8.30462
_cell_length_c       8.61411
_cell_angle_alpha    89.7898
_cell_angle_beta     101.576
_cell_angle_gamma    93.9931

_space_group_name_H-M_alt    "P 1"
_space_group_IT_number       1

loop_
  _space_group_symop_operation_xyz
  'x, y, z'

loop_
  _atom_site_type_symbol
  _atom_site_label
  _atom_site_symmetry_multiplicity
  _atom_site_fract_x
  _atom_site_fract_y
  _atom_site_fract_z
  _atom_site_occupancy
  Cu  Cu1       1.0  0.16063  0.96185  0.75654  1.0000
  H   H1        1.0  0.57754  0.30567  0.40203  1.0000
  H   H2        1.0  0.64633  0.57646  0.28677  1.0000
  H   H3        1.0  0.36869  0.57589  0.52839  1.0000
  H   H4        1.0  0.26670  0.31303  0.64492  1.0000
  H   H5        1.0  0.89980  0.79100  0.23929  1.0000
  H   H6        1.0  0.19119  0.74023  0.24330  1.0000
  H   H7        1.0  0.19692  0.00414  0.35038  1.0000
  H   H8        1.0  0.72393  0.69609  0.71126  1.0000
  H   H9        1.0  0.59866  0.43664  0.82756  1.0000
  H   H10       1.0  0.29682  0.43248  0.10945  1.0000
  H   H11       1.0  0.39324  0.69506  0.98363  1.0000
  H   H12       1.0  0.67576  0.23767  0.03259  1.0000
  H   H13       1.0  0.93162  0.26570  0.18288  1.0000
  H   H14       1.0  0.88834  0.00167  0.05389  1.0000
  H   H15       1.0  0.84722  0.88043  0.51094  1.0000
  H   H16       1.0  0.95769  0.06829  0.50715  1.0000
  H   H17       1.0  0.89350  0.18118  0.76097  1.0000
  H   H18       1.0  0.74021  0.01333  0.79129  1.0000
  C   C1        1.0  0.74901  0.37190  0.43235  1.0000
  C   C2        1.0  0.78936  0.52142  0.36516  1.0000
  C   C3        1.0  0.01356  0.60080  0.39739  1.0000
  C   C4        1.0  0.18899  0.52344  0.50052  1.0000
  C   C5        1.0  0.13260  0.37566  0.56453  1.0000
  C   C6        1.0  0.06226  0.75799  0.31774  1.0000
  C   C7        1.0  0.16272  0.90238  0.42740  1.0000
  C   C8        1.0  0.40537  0.87448  0.52540  1.0000
  C   C9        1.0  0.84670  0.63381  0.79971  1.0000
  C   C10       1.0  0.77824  0.48859  0.86458  1.0000
  C   C11       1.0  0.93832  0.41160  0.97890  1.0000
  C   C12       1.0  0.16548  0.48689  0.02064  1.0000
  C   C13       1.0  0.21931  0.63228  0.95065  1.0000
  C   C14       1.0  0.86739  0.25726  0.05412  1.0000
  C   C15       1.0  0.96566  0.10576  0.99763  1.0000
  C   C16       1.0  0.23442  0.10278  0.05616  1.0000
  N   N1        1.0  0.91755  0.29901  0.53184  1.0000
  N   N2        1.0  0.00447  0.95118  0.52899  1.0000
  N   N3        1.0  0.06354  0.70635  0.84217  1.0000
  N   N4        1.0  0.90147  0.07634  0.82539  1.0000
  O   O1        1.0  0.44655  0.91362  0.67433  1.0000
  O   O2        1.0  0.55282  0.81854  0.45689  1.0000
  O   O3        1.0  0.32635  0.15750  0.19058  1.0000
  O   O4        1.0  0.34919  0.03812  0.96133  1.0000
