data_image0
_chemical_formula_structural       Cu2Mo4H8C12N2O14
_chemical_formula_sum              "Cu2 Mo4 H8 C12 N2 O14"
_cell_length_a       5.51152
_cell_length_b       10.4212
_cell_length_c       9.93915
_cell_angle_alpha    94.1087
_cell_angle_beta     106.088
_cell_angle_gamma    90.0146

_space_group_name_H-M_alt    "P 1"
_space_group_IT_number       1

loop_
  _space_group_symop_operation_xyz
  'x, y, z'

loop_
  _atom_site_type_symbol
  _atom_site_label
  _atom_site_symmetry_multiplicity
  _atom_site_fract_x
  _atom_site_fract_y
  _atom_site_fract_z
  _atom_site_occupancy
  Cu  Cu1       1.0  0.90637  0.98256  0.50393  1.0000
  Cu  Cu2       1.0  0.40260  0.01711  0.49609  1.0000
  Mo  Mo1       1.0  0.15282  0.49392  0.35049  1.0000
  Mo  Mo2       1.0  0.80218  0.50599  0.64924  1.0000
  Mo  Mo3       1.0  0.74835  0.63601  0.31105  1.0000
  Mo  Mo4       1.0  0.43683  0.36402  0.68879  1.0000
  H   H1        1.0  0.92016  0.82225  0.13173  1.0000
  H   H2        1.0  0.78760  0.17769  0.86745  1.0000
  H   H3        1.0  0.12242  0.33645  0.91355  1.0000
  H   H4        1.0  0.20918  0.66378  0.08737  1.0000
  H   H5        1.0  0.77515  0.91553  0.89713  1.0000
  H   H6        1.0  0.87849  0.08429  0.10203  1.0000
  H   H7        1.0  0.17250  0.23323  0.13962  1.0000
  H   H8        1.0  0.03195  0.76676  0.86134  1.0000
  C   C1        1.0  0.29286  0.91142  0.72720  1.0000
  C   C2        1.0  0.56776  0.08862  0.27304  1.0000
  C   C3        1.0  0.72576  0.81030  0.06710  1.0000
  C   C4        1.0  0.65854  0.18974  0.93249  1.0000
  C   C5        1.0  0.28318  0.27637  0.95668  1.0000
  C   C6        1.0  0.32643  0.72378  0.04384  1.0000
  C   C7        1.0  0.38947  0.85177  0.86371  1.0000
  C   C8        1.0  0.52725  0.14840  0.13652  1.0000
  C   C9        1.0  0.64417  0.86416  0.93917  1.0000
  C   C10       1.0  0.70565  0.13587  0.06045  1.0000
  C   C11       1.0  0.31189  0.21887  0.08181  1.0000
  C   C12       1.0  0.22930  0.78126  0.91879  1.0000
  N   N1        1.0  0.57055  0.73946  0.11832  1.0000
  N   N2        1.0  0.45211  0.26068  0.88172  1.0000
  O   O1        1.0  0.83195  0.78182  0.40601  1.0000
  O   O2        1.0  0.42462  0.21809  0.59394  1.0000
  O   O3        1.0  0.44247  0.54854  0.28296  1.0000
  O   O4        1.0  0.15938  0.45159  0.71698  1.0000
  O   O5        1.0  0.77371  0.40348  0.80164  1.0000
  O   O6        1.0  0.97207  0.59642  0.19804  1.0000
  O   O7        1.0  0.45549  0.93152  0.66112  1.0000
  O   O8        1.0  0.79638  0.06827  0.33881  1.0000
  O   O9        1.0  0.37162  0.06345  0.31163  1.0000
  O   O10       1.0  0.05825  0.93665  0.68880  1.0000
  O   O11       1.0  0.44264  0.47177  0.52532  1.0000
  O   O12       1.0  0.91735  0.52811  0.47443  1.0000
  O   O13       1.0  0.05313  0.34412  0.28390  1.0000
  O   O14       1.0  0.76943  0.65586  0.71580  1.0000
