data_image0
_chemical_formula_structural       La4H20C32O24
_chemical_formula_sum              "La4 H20 C32 O24"
_cell_length_a       7.27635
_cell_length_b       9.97691
_cell_length_c       11.6406
_cell_angle_alpha    90.0001
_cell_angle_beta     90
_cell_angle_gamma    91.351

_space_group_name_H-M_alt    "P 1"
_space_group_IT_number       1

loop_
  _space_group_symop_operation_xyz
  'x, y, z'

loop_
  _atom_site_type_symbol
  _atom_site_label
  _atom_site_symmetry_multiplicity
  _atom_site_fract_x
  _atom_site_fract_y
  _atom_site_fract_z
  _atom_site_occupancy
  La  La1       1.0  0.09263  0.23654  0.31112  1.0000
  La  La2       1.0  0.40737  0.76346  0.81113  1.0000
  La  La3       1.0  0.90737  0.76346  0.68888  1.0000
  La  La4       1.0  0.59263  0.23654  0.18888  1.0000
  H   H1        1.0  0.00673  0.72140  0.28493  1.0000
  H   H2        1.0  0.49327  0.27859  0.78493  1.0000
  H   H3        1.0  0.99328  0.27860  0.71507  1.0000
  H   H4        1.0  0.50672  0.72141  0.21507  1.0000
  H   H5        1.0  0.78519  0.52729  0.98364  1.0000
  H   H6        1.0  0.71481  0.47271  0.48365  1.0000
  H   H7        1.0  0.21481  0.47271  0.01636  1.0000
  H   H8        1.0  0.28519  0.52729  0.51635  1.0000
  H   H9        1.0  0.80092  0.95842  0.00419  1.0000
  H   H10       1.0  0.69909  0.04158  0.50420  1.0000
  H   H11       1.0  0.19908  0.04158  0.99581  1.0000
  H   H12       1.0  0.30092  0.95842  0.49581  1.0000
  H   H13       1.0  0.08432  0.14089  0.58305  1.0000
  H   H14       1.0  0.41568  0.85912  0.08305  1.0000
  H   H15       1.0  0.91569  0.85911  0.41695  1.0000
  H   H16       1.0  0.58431  0.14089  0.91696  1.0000
  H   H17       1.0  0.26058  0.23307  0.55841  1.0000
  H   H18       1.0  0.23942  0.76693  0.05841  1.0000
  H   H19       1.0  0.73943  0.76693  0.44159  1.0000
  H   H20       1.0  0.76057  0.23307  0.94159  1.0000
  C   C1        1.0  0.92831  0.97877  0.22016  1.0000
  C   C2        1.0  0.57171  0.02123  0.72017  1.0000
  C   C3        1.0  0.07170  0.02123  0.77984  1.0000
  C   C4        1.0  0.42830  0.97877  0.27984  1.0000
  C   C5        1.0  0.90245  0.85376  0.15258  1.0000
  C   C6        1.0  0.59756  0.14624  0.65259  1.0000
  C   C7        1.0  0.09755  0.14625  0.84741  1.0000
  C   C8        1.0  0.40244  0.85376  0.34741  1.0000
  C   C9        1.0  0.94481  0.72949  0.20032  1.0000
  C   C10       1.0  0.55520  0.27050  0.70032  1.0000
  C   C11       1.0  0.05519  0.27051  0.79968  1.0000
  C   C12       1.0  0.44480  0.72950  0.29968  1.0000
  C   C13       1.0  0.90071  0.61201  0.13952  1.0000
  C   C14       1.0  0.59929  0.38799  0.63953  1.0000
  C   C15       1.0  0.09928  0.38799  0.86047  1.0000
  C   C16       1.0  0.40071  0.61201  0.36047  1.0000
  C   C17       1.0  0.93698  0.48136  0.19619  1.0000
  C   C18       1.0  0.56301  0.51864  0.69620  1.0000
  C   C19       1.0  0.06301  0.51864  0.80380  1.0000
  C   C20       1.0  0.43699  0.48137  0.30380  1.0000
  C   C21       1.0  0.82212  0.61885  0.03010  1.0000
  C   C22       1.0  0.67789  0.38114  0.53010  1.0000
  C   C23       1.0  0.17788  0.38115  0.96990  1.0000
  C   C24       1.0  0.32212  0.61886  0.46990  1.0000
  C   C25       1.0  0.79308  0.74392  0.97784  1.0000
  C   C26       1.0  0.70692  0.25607  0.47784  1.0000
  C   C27       1.0  0.20692  0.25607  0.02216  1.0000
  C   C28       1.0  0.29308  0.74393  0.52216  1.0000
  C   C29       1.0  0.82991  0.86103  0.04133  1.0000
  C   C30       1.0  0.67010  0.13897  0.54134  1.0000
  C   C31       1.0  0.17009  0.13897  0.95867  1.0000
  C   C32       1.0  0.32990  0.86103  0.45867  1.0000
  O   O1        1.0  0.99050  0.97625  0.32304  1.0000
  O   O2        1.0  0.50951  0.02374  0.82304  1.0000
  O   O3        1.0  0.00950  0.02375  0.67696  1.0000
  O   O4        1.0  0.49050  0.97625  0.17696  1.0000
  O   O5        1.0  0.89075  0.09196  0.17337  1.0000
  O   O6        1.0  0.60925  0.90804  0.67337  1.0000
  O   O7        1.0  0.10926  0.90804  0.82663  1.0000
  O   O8        1.0  0.39074  0.09196  0.32663  1.0000
  O   O9        1.0  0.02943  0.48083  0.28874  1.0000
  O   O10       1.0  0.47056  0.51916  0.78874  1.0000
  O   O11       1.0  0.97056  0.51916  0.71125  1.0000
  O   O12       1.0  0.52943  0.48085  0.21125  1.0000
  O   O13       1.0  0.87809  0.37040  0.15060  1.0000
  O   O14       1.0  0.62191  0.62960  0.65060  1.0000
  O   O15       1.0  0.12190  0.62960  0.84940  1.0000
  O   O16       1.0  0.37810  0.37041  0.34939  1.0000
  O   O17       1.0  0.73030  0.75182  0.86921  1.0000
  O   O18       1.0  0.76970  0.24818  0.36922  1.0000
  O   O19       1.0  0.26969  0.24818  0.13078  1.0000
  O   O20       1.0  0.23030  0.75182  0.63079  1.0000
  O   O21       1.0  0.14238  0.20454  0.52607  1.0000
  O   O22       1.0  0.35762  0.79546  0.02606  1.0000
  O   O23       1.0  0.85763  0.79546  0.47394  1.0000
  O   O24       1.0  0.64237  0.20454  0.97394  1.0000
