data_image0
_chemical_formula_structural       Sm2H18C18N2O22
_chemical_formula_sum              "Sm2 H18 C18 N2 O22"
_cell_length_a       7.7297
_cell_length_b       8.0731
_cell_length_c       10.5921
_cell_angle_alpha    103.749
_cell_angle_beta     99.6276
_cell_angle_gamma    93.2194

_space_group_name_H-M_alt    "P 1"
_space_group_IT_number       1

loop_
  _space_group_symop_operation_xyz
  'x, y, z'

loop_
  _atom_site_type_symbol
  _atom_site_label
  _atom_site_symmetry_multiplicity
  _atom_site_fract_x
  _atom_site_fract_y
  _atom_site_fract_z
  _atom_site_occupancy
  Sm  Sm1       1.0  0.69499  0.68112  0.87210  1.0000
  Sm  Sm2       1.0  0.30502  0.31887  0.12790  1.0000
  H   H1        1.0  0.67321  0.94161  0.64643  1.0000
  H   H2        1.0  0.32678  0.05839  0.35356  1.0000
  H   H3        1.0  0.81557  0.14741  0.32964  1.0000
  H   H4        1.0  0.18443  0.85258  0.67036  1.0000
  H   H5        1.0  0.85947  0.63343  0.31094  1.0000
  H   H6        1.0  0.14053  0.36657  0.68907  1.0000
  H   H7        1.0  0.87116  0.87561  0.22378  1.0000
  H   H8        1.0  0.12884  0.12440  0.77622  1.0000
  H   H9        1.0  0.30518  0.59531  0.84844  1.0000
  H   H10       1.0  0.69482  0.40470  0.15156  1.0000
  H   H11       1.0  0.32099  0.60038  0.70255  1.0000
  H   H12       1.0  0.67901  0.39963  0.29745  1.0000
  H   H13       1.0  0.54421  0.30144  0.84720  1.0000
  H   H14       1.0  0.45578  0.69855  0.15280  1.0000
  H   H15       1.0  0.62592  0.30535  0.71835  1.0000
  H   H16       1.0  0.37407  0.69465  0.28165  1.0000
  H   H17       1.0  0.73232  0.32607  0.52530  1.0000
  H   H18       1.0  0.26767  0.67393  0.47470  1.0000
  C   C1        1.0  0.72779  0.61181  0.53651  1.0000
  C   C2        1.0  0.27220  0.38819  0.46349  1.0000
  C   C3        1.0  0.75831  0.76740  0.48551  1.0000
  C   C4        1.0  0.24168  0.23260  0.51449  1.0000
  C   C5        1.0  0.71989  0.92725  0.55314  1.0000
  C   C6        1.0  0.28010  0.07275  0.44686  1.0000
  C   C7        1.0  0.74254  0.07114  0.50200  1.0000
  C   C8        1.0  0.25746  0.92886  0.49800  1.0000
  C   C9        1.0  0.79883  0.04644  0.38025  1.0000
  C   C10       1.0  0.20116  0.95356  0.61975  1.0000
  C   C11       1.0  0.82067  0.75167  0.36752  1.0000
  C   C12       1.0  0.17932  0.24833  0.63248  1.0000
  C   C13       1.0  0.52219  0.04564  0.94672  1.0000
  C   C14       1.0  0.47781  0.95434  0.05327  1.0000
  C   C15       1.0  0.04812  0.50428  0.94160  1.0000
  C   C16       1.0  0.95188  0.49573  0.05840  1.0000
  C   C17       1.0  0.99023  0.99765  0.07075  1.0000
  C   C18       1.0  0.00977  0.00235  0.92926  1.0000
  N   N1        1.0  0.83592  0.88982  0.31951  1.0000
  N   N2        1.0  0.16408  0.11019  0.68049  1.0000
  O   O1        1.0  0.66668  0.62986  0.64156  1.0000
  O   O2        1.0  0.33332  0.37014  0.35844  1.0000
  O   O3        1.0  0.76265  0.46874  0.46783  1.0000
  O   O4        1.0  0.23735  0.53126  0.53217  1.0000
  O   O5        1.0  0.70972  0.22442  0.56971  1.0000
  O   O6        1.0  0.29027  0.77559  0.43029  1.0000
  O   O7        1.0  0.60840  0.96880  0.86385  1.0000
  O   O8        1.0  0.39161  0.03118  0.13615  1.0000
  O   O9        1.0  0.46754  0.19259  0.95107  1.0000
  O   O10       1.0  0.53246  0.80739  0.04892  1.0000
  O   O11       1.0  0.96039  0.53984  0.84171  1.0000
  O   O12       1.0  0.03962  0.46016  0.15829  1.0000
  O   O13       1.0  0.20955  0.47491  0.95493  1.0000
  O   O14       1.0  0.79046  0.52510  0.04507  1.0000
  O   O15       1.0  0.89651  0.86564  0.07811  1.0000
  O   O16       1.0  0.10349  0.13437  0.92191  1.0000
  O   O17       1.0  0.06371  0.11855  0.16595  1.0000
  O   O18       1.0  0.93630  0.88146  0.83407  1.0000
  O   O19       1.0  0.36557  0.65954  0.79664  1.0000
  O   O20       1.0  0.63443  0.34047  0.20336  1.0000
  O   O21       1.0  0.57483  0.37559  0.78958  1.0000
  O   O22       1.0  0.42516  0.62440  0.21042  1.0000
