data_image0
_chemical_formula_structural       Pr2H16C16N2O18
_chemical_formula_sum              "Pr2 H16 C16 N2 O18"
_cell_length_a       6.71281
_cell_length_b       7.98713
_cell_length_c       10.4111
_cell_angle_alpha    79.1134
_cell_angle_beta     74.7977
_cell_angle_gamma    88.5717

_space_group_name_H-M_alt    "P 1"
_space_group_IT_number       1

loop_
  _space_group_symop_operation_xyz
  'x, y, z'

loop_
  _atom_site_type_symbol
  _atom_site_label
  _atom_site_symmetry_multiplicity
  _atom_site_fract_x
  _atom_site_fract_y
  _atom_site_fract_z
  _atom_site_occupancy
  Pr  Pr1       1.0  0.25001  0.35347  0.31695  1.0000
  Pr  Pr2       1.0  0.74999  0.64652  0.68305  1.0000
  H   H1        1.0  0.36843  0.88674  0.93661  1.0000
  H   H2        1.0  0.63157  0.11326  0.06339  1.0000
  H   H3        1.0  0.75265  0.29862  0.24380  1.0000
  H   H4        1.0  0.24734  0.70139  0.75620  1.0000
  H   H5        1.0  0.68522  0.26453  0.39902  1.0000
  H   H6        1.0  0.31479  0.73548  0.60098  1.0000
  H   H7        1.0  0.26328  0.67928  0.42564  1.0000
  H   H8        1.0  0.73672  0.32073  0.57435  1.0000
  H   H9        1.0  0.49849  0.63754  0.40785  1.0000
  H   H10       1.0  0.50151  0.36247  0.59214  1.0000
  H   H11       1.0  0.35474  0.02961  0.72526  1.0000
  H   H12       1.0  0.64527  0.97039  0.27474  1.0000
  H   H13       1.0  0.23267  0.98116  0.14342  1.0000
  H   H14       1.0  0.76734  0.01883  0.85658  1.0000
  H   H15       1.0  0.01105  0.42478  0.91275  1.0000
  H   H16       1.0  0.98895  0.57522  0.08725  1.0000
  C   C1        1.0  0.15195  0.32667  0.66680  1.0000
  C   C2        1.0  0.84806  0.67332  0.33320  1.0000
  C   C3        1.0  0.17398  0.23886  0.80385  1.0000
  C   C4        1.0  0.82603  0.76114  0.19614  1.0000
  C   C5        1.0  0.28058  0.08686  0.81192  1.0000
  C   C6        1.0  0.71942  0.91314  0.18807  1.0000
  C   C7        1.0  0.21243  0.06041  0.05069  1.0000
  C   C8        1.0  0.78758  0.93958  0.94931  1.0000
  C   C9        1.0  0.11013  0.21820  0.05013  1.0000
  C   C10       1.0  0.88988  0.78180  0.94987  1.0000
  C   C11       1.0  0.09030  0.30397  0.92125  1.0000
  C   C12       1.0  0.90970  0.69603  0.07875  1.0000
  C   C13       1.0  0.90287  0.04921  0.52923  1.0000
  C   C14       1.0  0.09713  0.95081  0.47076  1.0000
  C   C15       1.0  0.54704  0.41172  0.99318  1.0000
  C   C16       1.0  0.45296  0.58827  0.00683  1.0000
  N   N1        1.0  0.29293  0.00396  0.93444  1.0000
  N   N2        1.0  0.70707  0.99604  0.06556  1.0000
  O   O1        1.0  0.26963  0.27533  0.56415  1.0000
  O   O2        1.0  0.73037  0.72467  0.43586  1.0000
  O   O3        1.0  0.02334  0.44319  0.65956  1.0000
  O   O4        1.0  0.97664  0.55682  0.34044  1.0000
  O   O5        1.0  0.04095  0.27936  0.16133  1.0000
  O   O6        1.0  0.95905  0.72063  0.83867  1.0000
  O   O7        1.0  0.75889  0.96991  0.62224  1.0000
  O   O8        1.0  0.24109  0.03009  0.37777  1.0000
  O   O9        1.0  0.90633  0.20733  0.47638  1.0000
  O   O10       1.0  0.09367  0.79266  0.52363  1.0000
  O   O11       1.0  0.50176  0.29520  0.09963  1.0000
  O   O12       1.0  0.49825  0.70479  0.90037  1.0000
  O   O13       1.0  0.66025  0.39414  0.88021  1.0000
  O   O14       1.0  0.33976  0.60586  0.11979  1.0000
  O   O15       1.0  0.62743  0.29204  0.32038  1.0000
  O   O16       1.0  0.37257  0.70797  0.67962  1.0000
  O   O17       1.0  0.37448  0.60719  0.38289  1.0000
  O   O18       1.0  0.62551  0.39281  0.61711  1.0000
