data_image0
_chemical_formula_structural       Nd2H16C16N2O18
_chemical_formula_sum              "Nd2 H16 C16 N2 O18"
_cell_length_a       6.69158
_cell_length_b       8.15147
_cell_length_c       10.4547
_cell_angle_alpha    78.4744
_cell_angle_beta     71.3644
_cell_angle_gamma    85.7652

_space_group_name_H-M_alt    "P 1"
_space_group_IT_number       1

loop_
  _space_group_symop_operation_xyz
  'x, y, z'

loop_
  _atom_site_type_symbol
  _atom_site_label
  _atom_site_symmetry_multiplicity
  _atom_site_fract_x
  _atom_site_fract_y
  _atom_site_fract_z
  _atom_site_occupancy
  Nd  Nd1       1.0  0.23031  0.34345  0.31813  1.0000
  Nd  Nd2       1.0  0.76970  0.65655  0.68186  1.0000
  H   H1        1.0  0.36856  0.88520  0.93173  1.0000
  H   H2        1.0  0.63143  0.11480  0.06828  1.0000
  H   H3        1.0  0.62718  0.27998  0.40762  1.0000
  H   H4        1.0  0.37282  0.72003  0.59239  1.0000
  H   H5        1.0  0.75158  0.29248  0.25208  1.0000
  H   H6        1.0  0.24843  0.70752  0.74792  1.0000
  H   H7        1.0  0.26369  0.66153  0.43564  1.0000
  H   H8        1.0  0.73632  0.33848  0.56436  1.0000
  H   H9        1.0  0.42900  0.65916  0.29213  1.0000
  H   H10       1.0  0.57099  0.34084  0.70786  1.0000
  H   H11       1.0  0.35226  0.02013  0.71816  1.0000
  H   H12       1.0  0.64774  0.97987  0.28184  1.0000
  H   H13       1.0  0.23003  0.98790  0.13855  1.0000
  H   H14       1.0  0.76996  0.01209  0.86145  1.0000
  H   H15       1.0  0.02365  0.43240  0.90463  1.0000
  H   H16       1.0  0.97634  0.56759  0.09537  1.0000
  C   C1        1.0  0.16009  0.32455  0.65852  1.0000
  C   C2        1.0  0.83992  0.67546  0.34148  1.0000
  C   C3        1.0  0.17953  0.23804  0.79625  1.0000
  C   C4        1.0  0.82048  0.76196  0.20376  1.0000
  C   C5        1.0  0.28064  0.08239  0.80492  1.0000
  C   C6        1.0  0.71934  0.91760  0.19509  1.0000
  C   C7        1.0  0.21123  0.06441  0.04496  1.0000
  C   C8        1.0  0.78878  0.93558  0.95504  1.0000
  C   C9        1.0  0.11055  0.22387  0.04424  1.0000
  C   C10       1.0  0.88944  0.77612  0.95577  1.0000
  C   C11       1.0  0.09707  0.30838  0.91403  1.0000
  C   C12       1.0  0.90293  0.69163  0.08597  1.0000
  C   C13       1.0  0.89967  0.04924  0.53387  1.0000
  C   C14       1.0  0.10036  0.95075  0.46613  1.0000
  C   C15       1.0  0.54449  0.41175  0.98893  1.0000
  C   C16       1.0  0.45550  0.58826  0.01107  1.0000
  N   N1        1.0  0.29149  0.00291  0.92843  1.0000
  N   N2        1.0  0.70850  0.99708  0.07158  1.0000
  O   O1        1.0  0.24747  0.25279  0.55718  1.0000
  O   O2        1.0  0.75254  0.74721  0.44282  1.0000
  O   O3        1.0  0.05592  0.46064  0.65290  1.0000
  O   O4        1.0  0.94407  0.53934  0.34711  1.0000
  O   O5        1.0  0.03875  0.28759  0.15614  1.0000
  O   O6        1.0  0.96121  0.71239  0.84388  1.0000
  O   O7        1.0  0.76070  0.97286  0.63659  1.0000
  O   O8        1.0  0.23932  0.02715  0.36339  1.0000
  O   O9        1.0  0.89351  0.20287  0.47834  1.0000
  O   O10       1.0  0.10651  0.79712  0.52164  1.0000
  O   O11       1.0  0.49663  0.29467  0.09385  1.0000
  O   O12       1.0  0.50338  0.70535  0.90613  1.0000
  O   O13       1.0  0.65693  0.39622  0.87004  1.0000
  O   O14       1.0  0.34308  0.60379  0.12995  1.0000
  O   O15       1.0  0.60746  0.28112  0.31889  1.0000
  O   O16       1.0  0.39253  0.71889  0.68111  1.0000
  O   O17       1.0  0.36774  0.58714  0.38112  1.0000
  O   O18       1.0  0.63227  0.41286  0.61888  1.0000
