data_image0
_chemical_formula_structural       Er2H12C16N2O16
_chemical_formula_sum              "Er2 H12 C16 N2 O16"
_cell_length_a       7.64584
_cell_length_b       7.68756
_cell_length_c       9.79319
_cell_angle_alpha    111.138
_cell_angle_beta     97.8796
_cell_angle_gamma    91.6941

_space_group_name_H-M_alt    "P 1"
_space_group_IT_number       1

loop_
  _space_group_symop_operation_xyz
  'x, y, z'

loop_
  _atom_site_type_symbol
  _atom_site_label
  _atom_site_symmetry_multiplicity
  _atom_site_fract_x
  _atom_site_fract_y
  _atom_site_fract_z
  _atom_site_occupancy
  Er  Er1       1.0  0.35875  0.53293  0.69998  1.0000
  Er  Er2       1.0  0.64126  0.46707  0.30002  1.0000
  H   H1        1.0  0.58209  0.94229  0.89628  1.0000
  H   H2        1.0  0.41792  0.05772  0.10373  1.0000
  H   H3        1.0  0.02649  0.36375  0.09404  1.0000
  H   H4        1.0  0.97351  0.63626  0.90596  1.0000
  H   H5        1.0  0.98685  0.02058  0.64964  1.0000
  H   H6        1.0  0.01316  0.97944  0.35036  1.0000
  H   H7        1.0  0.12416  0.26413  0.86503  1.0000
  H   H8        1.0  0.87584  0.73588  0.13497  1.0000
  H   H9        1.0  0.53851  0.19699  0.62421  1.0000
  H   H10       1.0  0.46148  0.80300  0.37579  1.0000
  H   H11       1.0  0.67862  0.34273  0.61187  1.0000
  H   H12       1.0  0.32138  0.65726  0.38813  1.0000
  C   C1        1.0  0.68218  0.79898  0.62336  1.0000
  C   C2        1.0  0.31781  0.20103  0.37663  1.0000
  C   C3        1.0  0.77160  0.95994  0.75733  1.0000
  C   C4        1.0  0.22840  0.04007  0.24267  1.0000
  C   C5        1.0  0.70370  0.01448  0.89010  1.0000
  C   C6        1.0  0.29631  0.98553  0.10990  1.0000
  C   C7        1.0  0.79127  0.16170  0.01932  1.0000
  C   C8        1.0  0.20873  0.83831  0.98068  1.0000
  C   C9        1.0  0.94811  0.24990  0.00255  1.0000
  C   C10       1.0  0.05190  0.75011  0.99745  1.0000
  C   C11       1.0  0.92642  0.05401  0.74912  1.0000
  C   C12       1.0  0.07359  0.94600  0.25088  1.0000
  C   C13       1.0  0.95519  0.45569  0.54747  1.0000
  C   C14       1.0  0.04481  0.54430  0.45253  1.0000
  C   C15       1.0  0.42177  0.42683  0.98671  1.0000
  C   C16       1.0  0.57822  0.57315  0.01328  1.0000
  N   N1        1.0  0.00708  0.19390  0.87129  1.0000
  N   N2        1.0  0.99292  0.80610  0.12871  1.0000
  O   O1        1.0  0.55807  0.69733  0.63886  1.0000
  O   O2        1.0  0.44194  0.30266  0.36113  1.0000
  O   O3        1.0  0.73567  0.77000  0.50028  1.0000
  O   O4        1.0  0.26431  0.23002  0.49972  1.0000
  O   O5        1.0  0.73201  0.21158  0.14517  1.0000
  O   O6        1.0  0.26799  0.78842  0.85483  1.0000
  O   O7        1.0  0.04437  0.45526  0.66484  1.0000
  O   O8        1.0  0.95564  0.54473  0.33517  1.0000
  O   O9        1.0  0.79393  0.39045  0.49711  1.0000
  O   O10       1.0  0.20608  0.60955  0.50291  1.0000
  O   O11       1.0  0.31175  0.38989  0.86629  1.0000
  O   O12       1.0  0.68824  0.61008  0.13368  1.0000
  O   O13       1.0  0.41211  0.35652  0.08245  1.0000
  O   O14       1.0  0.58788  0.64348  0.91754  1.0000
  O   O15       1.0  0.59491  0.32308  0.67710  1.0000
  O   O16       1.0  0.40509  0.67692  0.32290  1.0000
