data_image0
_chemical_formula_structural       CuH32C42S2N12O6F6
_chemical_formula_sum              "Cu1 H32 C42 S2 N12 O6 F6"
_cell_length_a       9.01016
_cell_length_b       11.1742
_cell_length_c       12.0259
_cell_angle_alpha    114.899
_cell_angle_beta     104.331
_cell_angle_gamma    93.867

_space_group_name_H-M_alt    "P 1"
_space_group_IT_number       1

loop_
  _space_group_symop_operation_xyz
  'x, y, z'

loop_
  _atom_site_type_symbol
  _atom_site_label
  _atom_site_symmetry_multiplicity
  _atom_site_fract_x
  _atom_site_fract_y
  _atom_site_fract_z
  _atom_site_occupancy
  Cu  Cu1       1.0  0.50000  0.50000  0.50000  1.0000
  H   H1        1.0  0.25360  0.06734  0.78842  1.0000
  H   H2        1.0  0.74639  0.93266  0.21158  1.0000
  H   H3        1.0  0.22291  0.47667  0.70148  1.0000
  H   H4        1.0  0.77709  0.52333  0.29852  1.0000
  H   H5        1.0  0.70576  0.62052  0.81812  1.0000
  H   H6        1.0  0.29424  0.37947  0.18188  1.0000
  H   H7        1.0  0.48232  0.22449  0.86809  1.0000
  H   H8        1.0  0.51768  0.77551  0.13191  1.0000
  H   H9        1.0  0.78326  0.25256  0.68414  1.0000
  H   H10       1.0  0.21674  0.74744  0.31586  1.0000
  H   H11       1.0  0.05308  0.24182  0.49093  1.0000
  H   H12       1.0  0.94692  0.75819  0.50906  1.0000
  H   H13       1.0  0.85824  0.15566  0.44141  1.0000
  H   H14       1.0  0.14176  0.84434  0.55859  1.0000
  H   H15       1.0  0.82342  0.77188  0.69445  1.0000
  H   H16       1.0  0.17658  0.22812  0.30555  1.0000
  H   H17       1.0  0.31799  0.05563  0.61149  1.0000
  H   H18       1.0  0.68201  0.94437  0.38851  1.0000
  H   H19       1.0  0.19459  0.08327  0.48840  1.0000
  H   H20       1.0  0.80541  0.91673  0.51160  1.0000
  H   H21       1.0  0.10626  0.87032  0.81364  1.0000
  H   H22       1.0  0.89374  0.12968  0.18636  1.0000
  H   H23       1.0  0.07176  0.10402  0.91980  1.0000
  H   H24       1.0  0.92824  0.89598  0.08020  1.0000
  H   H25       1.0  0.81554  0.59401  0.01699  1.0000
  H   H26       1.0  0.18446  0.40599  0.98301  1.0000
  H   H27       1.0  0.30117  0.72711  0.81588  1.0000
  H   H28       1.0  0.69883  0.27289  0.18412  1.0000
  H   H29       1.0  0.70716  0.39966  0.03997  1.0000
  H   H30       1.0  0.29284  0.60034  0.96003  1.0000
  H   H31       1.0  0.83403  0.19544  0.86558  1.0000
  H   H32       1.0  0.16597  0.80456  0.13442  1.0000
  C   C1        1.0  0.12608  0.14498  0.66549  1.0000
  C   C2        1.0  0.87392  0.85502  0.33451  1.0000
  C   C3        1.0  0.99181  0.19701  0.63567  1.0000
  C   C4        1.0  0.00819  0.80299  0.36433  1.0000
  C   C5        1.0  0.53500  0.43411  0.73017  1.0000
  C   C6        1.0  0.46500  0.56589  0.26983  1.0000
  C   C7        1.0  0.47104  0.32511  0.74577  1.0000
  C   C8        1.0  0.52896  0.67489  0.25423  1.0000
  C   C9        1.0  0.86575  0.56793  0.63080  1.0000
  C   C10       1.0  0.13425  0.43207  0.36920  1.0000
  C   C11       1.0  0.15205  0.11110  0.76756  1.0000
  C   C12       1.0  0.84795  0.88890  0.23244  1.0000
  C   C13       1.0  0.97890  0.48659  0.63268  1.0000
  C   C14       1.0  0.02110  0.51341  0.36732  1.0000
  C   C15       1.0  0.13732  0.54031  0.70030  1.0000
  C   C16       1.0  0.86268  0.45969  0.29970  1.0000
  C   C17       1.0  0.65993  0.53437  0.82826  1.0000
  C   C18       1.0  0.34007  0.46563  0.17174  1.0000
  C   C19       1.0  0.53045  0.30919  0.85697  1.0000
  C   C20       1.0  0.46955  0.69081  0.14303  1.0000
  C   C21       1.0  0.88832  0.21417  0.70857  1.0000
  C   C22       1.0  0.11168  0.78583  0.29142  1.0000
  C   C23       1.0  0.95249  0.23172  0.52440  1.0000
  C   C24       1.0  0.04750  0.76828  0.47560  1.0000
  C   C25       1.0  0.90942  0.70878  0.69696  1.0000
  C   C26       1.0  0.09059  0.29122  0.30304  1.0000
  C   C27       1.0  0.24571  0.12467  0.59297  1.0000
  C   C28       1.0  0.75429  0.87533  0.40703  1.0000
  C   C29       1.0  0.06667  0.76169  0.76300  1.0000
  C   C30       1.0  0.93333  0.23831  0.23701  1.0000
  C   C31       1.0  0.66520  0.96017  0.89834  1.0000
  C   C32       1.0  0.33480  0.03983  0.10166  1.0000
  C   C33       1.0  0.04898  0.12993  0.84030  1.0000
  C   C34       1.0  0.95102  0.87006  0.15970  1.0000
  C   C35       1.0  0.71859  0.51862  0.93834  1.0000
  C   C36       1.0  0.28141  0.48138  0.06166  1.0000
  C   C37       1.0  0.17903  0.67933  0.76473  1.0000
  C   C38       1.0  0.82097  0.32067  0.23527  1.0000
  C   C39       1.0  0.65562  0.40769  0.95192  1.0000
  C   C40       1.0  0.34438  0.59230  0.04809  1.0000
  C   C41       1.0  0.91653  0.18177  0.81077  1.0000
  C   C42       1.0  0.08347  0.81822  0.18923  1.0000
  S   S1        1.0  0.53586  0.87156  0.72804  1.0000
  S   S2        1.0  0.46414  0.12845  0.27196  1.0000
  N   N1        1.0  0.35260  0.25045  0.63278  1.0000
  N   N2        1.0  0.64740  0.74955  0.36722  1.0000
  N   N3        1.0  0.89590  0.35752  0.55814  1.0000
  N   N4        1.0  0.10410  0.64248  0.44186  1.0000
  N   N5        1.0  0.72378  0.48084  0.55724  1.0000
  N   N6        1.0  0.27622  0.51916  0.44276  1.0000
  N   N7        1.0  0.74357  0.35607  0.51585  1.0000
  N   N8        1.0  0.25643  0.64393  0.48415  1.0000
  N   N9        1.0  0.45140  0.41534  0.60902  1.0000
  N   N10       1.0  0.54860  0.58466  0.39098  1.0000
  N   N11       1.0  0.34282  0.30632  0.55281  1.0000
  N   N12       1.0  0.65718  0.69368  0.44719  1.0000
  O   O1        1.0  0.55025  0.73167  0.69568  1.0000
  O   O2        1.0  0.44975  0.26833  0.30433  1.0000
  O   O3        1.0  0.38500  0.90394  0.74119  1.0000
  O   O4        1.0  0.61500  0.09606  0.25881  1.0000
  O   O5        1.0  0.60613  0.93248  0.66286  1.0000
  O   O6        1.0  0.39387  0.06752  0.33714  1.0000
  F   F1        1.0  0.66061  0.09375  0.95262  1.0000
  F   F2        1.0  0.33939  0.90625  0.04738  1.0000
  F   F3        1.0  0.81780  0.95063  0.90709  1.0000
  F   F4        1.0  0.18220  0.04938  0.09292  1.0000
  F   F5        1.0  0.62256  0.90761  0.97179  1.0000
  F   F6        1.0  0.37744  0.09239  0.02821  1.0000
