data_image0
_chemical_formula_structural       Cu4H16C16S4I4N8
_chemical_formula_sum              "Cu4 H16 C16 S4 I4 N8"
_cell_length_a       7.11755
_cell_length_b       7.91669
_cell_length_c       14.0154
_cell_angle_alpha    74.743
_cell_angle_beta     80.6573
_cell_angle_gamma    64.1637

_space_group_name_H-M_alt    "P 1"
_space_group_IT_number       1

loop_
  _space_group_symop_operation_xyz
  'x, y, z'

loop_
  _atom_site_type_symbol
  _atom_site_label
  _atom_site_symmetry_multiplicity
  _atom_site_fract_x
  _atom_site_fract_y
  _atom_site_fract_z
  _atom_site_occupancy
  Cu  Cu1       1.0  0.83464  0.97365  0.78958  1.0000
  Cu  Cu2       1.0  0.16535  0.02637  0.21042  1.0000
  Cu  Cu3       1.0  0.16234  0.68184  0.75065  1.0000
  Cu  Cu4       1.0  0.83765  0.31815  0.24934  1.0000
  H   H1        1.0  0.94712  0.72182  0.21835  1.0000
  H   H2        1.0  0.05288  0.27817  0.78165  1.0000
  H   H3        1.0  0.63739  0.03526  0.14930  1.0000
  H   H4        1.0  0.36262  0.96475  0.85070  1.0000
  H   H5        1.0  0.61213  0.12419  0.96421  1.0000
  H   H6        1.0  0.38788  0.87583  0.03579  1.0000
  H   H7        1.0  0.49548  0.17330  0.46990  1.0000
  H   H8        1.0  0.50453  0.82669  0.53011  1.0000
  H   H9        1.0  0.19586  0.50468  0.42314  1.0000
  H   H10       1.0  0.80415  0.49529  0.57686  1.0000
  H   H11       1.0  0.07214  0.71271  0.54956  1.0000
  H   H12       1.0  0.92786  0.28726  0.45044  1.0000
  H   H13       1.0  0.17560  0.54726  0.10825  1.0000
  H   H14       1.0  0.82439  0.45274  0.89175  1.0000
  H   H15       1.0  0.63720  0.09025  0.62586  1.0000
  H   H16       1.0  0.36280  0.90976  0.37415  1.0000
  C   C1        1.0  0.04735  0.72670  0.97553  1.0000
  C   C2        1.0  0.95265  0.27331  0.02447  1.0000
  C   C3        1.0  0.91880  0.77872  0.13982  1.0000
  C   C4        1.0  0.08120  0.22129  0.86018  1.0000
  C   C5        1.0  0.75224  0.94559  0.10175  1.0000
  C   C6        1.0  0.24776  0.05441  0.89825  1.0000
  C   C7        1.0  0.74071  0.99431  0.99913  1.0000
  C   C8        1.0  0.25930  0.00571  0.00087  1.0000
  C   C9        1.0  0.45540  0.34110  0.67217  1.0000
  C   C10       1.0  0.54459  0.65889  0.32783  1.0000
  C   C11       1.0  0.42859  0.27570  0.51823  1.0000
  C   C12       1.0  0.57142  0.72429  0.48177  1.0000
  C   C13       1.0  0.26751  0.45501  0.49383  1.0000
  C   C14       1.0  0.73250  0.54498  0.50617  1.0000
  C   C15       1.0  0.20017  0.56962  0.56393  1.0000
  C   C16       1.0  0.79982  0.43036  0.43607  1.0000
  S   S1        1.0  0.23948  0.58361  0.90771  1.0000
  S   S2        1.0  0.76051  0.41640  0.09229  1.0000
  S   S3        1.0  0.58210  0.27533  0.77589  1.0000
  S   S4        1.0  0.41789  0.72467  0.22410  1.0000
  I   I1        1.0  0.73165  0.73021  0.73717  1.0000
  I   I2        1.0  0.26835  0.26979  0.26283  1.0000
  I   I3        1.0  0.11525  0.02591  0.63982  1.0000
  I   I4        1.0  0.88475  0.97409  0.36017  1.0000
  N   N1        1.0  0.88104  0.89088  0.93688  1.0000
  N   N2        1.0  0.11897  0.10913  0.06312  1.0000
  N   N3        1.0  0.05854  0.67656  0.07717  1.0000
  N   N4        1.0  0.94146  0.32345  0.92282  1.0000
  N   N5        1.0  0.28704  0.51486  0.65106  1.0000
  N   N6        1.0  0.71295  0.48513  0.34894  1.0000
  N   N7        1.0  0.51843  0.22478  0.60495  1.0000
  N   N8        1.0  0.48157  0.77522  0.39506  1.0000
