data_image0
_chemical_formula_structural       Cu4H8C8S2I4N4
_chemical_formula_sum              "Cu4 H8 C8 S2 I4 N4"
_cell_length_a       7.123
_cell_length_b       7.93174
_cell_length_c       8.70473
_cell_angle_alpha    98.3199
_cell_angle_beta     101.172
_cell_angle_gamma    110.02

_space_group_name_H-M_alt    "P 1"
_space_group_IT_number       1

loop_
  _space_group_symop_operation_xyz
  'x, y, z'

loop_
  _atom_site_type_symbol
  _atom_site_label
  _atom_site_symmetry_multiplicity
  _atom_site_fract_x
  _atom_site_fract_y
  _atom_site_fract_z
  _atom_site_occupancy
  Cu  Cu1       1.0  0.33583  0.91586  0.88478  1.0000
  Cu  Cu2       1.0  0.66416  0.08414  0.11521  1.0000
  Cu  Cu3       1.0  0.40229  0.27215  0.95391  1.0000
  Cu  Cu4       1.0  0.59771  0.72784  0.04608  1.0000
  H   H1        1.0  0.95227  0.78681  0.62554  1.0000
  H   H2        1.0  0.04774  0.21319  0.37446  1.0000
  H   H3        1.0  0.65870  0.48738  0.47638  1.0000
  H   H4        1.0  0.34132  0.51262  0.52361  1.0000
  H   H5        1.0  0.68265  0.19331  0.55369  1.0000
  H   H6        1.0  0.31734  0.80669  0.44630  1.0000
  H   H7        1.0  0.95922  0.22892  0.76611  1.0000
  H   H8        1.0  0.04077  0.77107  0.23391  1.0000
  C   C1        1.0  0.94406  0.65739  0.65849  1.0000
  C   C2        1.0  0.05597  0.34262  0.34150  1.0000
  C   C3        1.0  0.78247  0.49152  0.57396  1.0000
  C   C4        1.0  0.21754  0.50847  0.42604  1.0000
  C   C5        1.0  0.79199  0.33230  0.61417  1.0000
  C   C6        1.0  0.20801  0.66769  0.38582  1.0000
  C   C7        1.0  0.10102  0.51213  0.82479  1.0000
  C   C8        1.0  0.89898  0.48787  0.17523  1.0000
  S   S1        1.0  0.27116  0.50996  0.99007  1.0000
  S   S2        1.0  0.72883  0.49003  0.00993  1.0000
  I   I1        1.0  0.30088  0.07983  0.16332  1.0000
  I   I2        1.0  0.69912  0.92018  0.83667  1.0000
  I   I3        1.0  0.27678  0.11862  0.65304  1.0000
  I   I4        1.0  0.72323  0.88139  0.34697  1.0000
  N   N1        1.0  0.10183  0.66942  0.77903  1.0000
  N   N2        1.0  0.89815  0.33058  0.22097  1.0000
  N   N3        1.0  0.95102  0.34698  0.73496  1.0000
  N   N4        1.0  0.04894  0.65302  0.26505  1.0000
