data_image0
_chemical_formula_structural       Tb2Co2H36C32N16O12
_chemical_formula_sum              "Tb2 Co2 H36 C32 N16 O12"
_cell_length_a       9.08876
_cell_length_b       9.08375
_cell_length_c       16.0349
_cell_angle_alpha    99.0549
_cell_angle_beta     97.6922
_cell_angle_gamma    119.201

_space_group_name_H-M_alt    "P 1"
_space_group_IT_number       1

loop_
  _space_group_symop_operation_xyz
  'x, y, z'

loop_
  _atom_site_type_symbol
  _atom_site_label
  _atom_site_symmetry_multiplicity
  _atom_site_fract_x
  _atom_site_fract_y
  _atom_site_fract_z
  _atom_site_occupancy
  Tb  Tb1       1.0  0.90249  0.15272  0.25003  1.0000
  Tb  Tb2       1.0  0.09751  0.84729  0.74997  1.0000
  Co  Co1       1.0  0.50000  0.49999  0.50000  1.0000
  Co  Co2       1.0  0.00000  0.50000  1.00000  1.0000
  H   H1        1.0  0.37351  0.26902  0.99879  1.0000
  H   H2        1.0  0.27144  0.87627  0.50119  1.0000
  H   H3        1.0  0.62649  0.73099  0.00121  1.0000
  H   H4        1.0  0.72856  0.12374  0.49881  1.0000
  H   H5        1.0  0.40120  0.18539  0.29459  1.0000
  H   H6        1.0  0.89094  0.60710  0.20542  1.0000
  H   H7        1.0  0.59881  0.81461  0.70541  1.0000
  H   H8        1.0  0.10906  0.39290  0.79458  1.0000
  H   H9        1.0  0.09813  0.12795  0.04627  1.0000
  H   H10       1.0  0.08232  0.55312  0.45381  1.0000
  H   H11       1.0  0.90188  0.87206  0.95373  1.0000
  H   H12       1.0  0.91769  0.44689  0.54619  1.0000
  H   H13       1.0  0.65566  0.36048  0.10305  1.0000
  H   H14       1.0  0.25832  0.05397  0.39692  1.0000
  H   H15       1.0  0.34434  0.63952  0.89695  1.0000
  H   H16       1.0  0.74168  0.94603  0.60308  1.0000
  H   H17       1.0  0.69413  0.76303  0.25016  1.0000
  H   H18       1.0  0.51301  0.94387  0.24990  1.0000
  H   H19       1.0  0.30587  0.23697  0.74984  1.0000
  H   H20       1.0  0.48699  0.05613  0.75010  1.0000
  H   H21       1.0  0.76232  0.76839  0.16204  1.0000
  H   H22       1.0  0.60677  0.10077  0.33797  1.0000
  H   H23       1.0  0.23768  0.23162  0.83796  1.0000
  H   H24       1.0  0.39323  0.89922  0.66203  1.0000
  H   H25       1.0  0.72224  0.11059  0.06557  1.0000
  H   H26       1.0  0.04543  0.15704  0.43452  1.0000
  H   H27       1.0  0.27777  0.88941  0.93443  1.0000
  H   H28       1.0  0.95455  0.84295  0.56548  1.0000
  H   H29       1.0  0.57067  0.96809  0.09948  1.0000
  H   H30       1.0  0.86878  0.97169  0.40060  1.0000
  H   H31       1.0  0.42934  0.03191  0.90052  1.0000
  H   H32       1.0  0.13121  0.02829  0.59939  1.0000
  H   H33       1.0  0.07027  0.91016  0.25856  1.0000
  H   H34       1.0  0.65077  0.31144  0.24144  1.0000
  H   H35       1.0  0.92973  0.08983  0.74143  1.0000
  H   H36       1.0  0.34923  0.68856  0.75856  1.0000
  C   C1        1.0  0.31871  0.42298  0.40259  1.0000
  C   C2        1.0  0.01991  0.41590  0.09732  1.0000
  C   C3        1.0  0.68129  0.57701  0.59742  1.0000
  C   C4        1.0  0.98008  0.58410  0.90268  1.0000
  C   C5        1.0  0.55891  0.34277  0.44935  1.0000
  C   C6        1.0  0.89301  0.60915  0.05056  1.0000
  C   C7        1.0  0.44109  0.65722  0.55065  1.0000
  C   C8        1.0  0.10699  0.39085  0.94944  1.0000
  C   C9        1.0  0.53112  0.29864  0.11966  1.0000
  C   C10       1.0  0.17984  0.91267  0.38031  1.0000
  C   C11       1.0  0.46889  0.70137  0.88034  1.0000
  C   C12       1.0  0.82016  0.08734  0.61969  1.0000
  C   C13       1.0  0.37473  0.24644  0.06338  1.0000
  C   C14       1.0  0.18403  0.81267  0.43661  1.0000
  C   C15       1.0  0.62528  0.75356  0.93662  1.0000
  C   C16       1.0  0.81597  0.18734  0.56339  1.0000
  C   C17       1.0  0.22069  0.16696  0.08988  1.0000
  C   C18       1.0  0.07770  0.63196  0.41016  1.0000
  C   C19       1.0  0.77931  0.83305  0.91011  1.0000
  C   C20       1.0  0.92230  0.36805  0.58984  1.0000
  C   C21       1.0  0.22124  0.13823  0.17413  1.0000
  C   C22       1.0  0.96441  0.54792  0.32593  1.0000
  C   C23       1.0  0.77876  0.86177  0.82587  1.0000
  C   C24       1.0  0.03560  0.45208  0.67407  1.0000
  C   C25       1.0  0.38471  0.19647  0.22813  1.0000
  C   C26       1.0  0.96864  0.65728  0.27189  1.0000
  C   C27       1.0  0.61529  0.80353  0.77187  1.0000
  C   C28       1.0  0.03136  0.34273  0.72810  1.0000
  C   C29       1.0  0.65325  0.66896  0.45117  1.0000
  C   C30       1.0  0.21775  0.70242  0.04911  1.0000
  C   C31       1.0  0.34673  0.33101  0.54884  1.0000
  C   C32       1.0  0.78226  0.29760  0.95089  1.0000
  N   N1        1.0  0.59056  0.24052  0.41618  1.0000
  N   N2        1.0  0.82368  0.67359  0.08375  1.0000
  N   N3        1.0  0.40944  0.75946  0.58382  1.0000
  N   N4        1.0  0.17632  0.32642  0.91625  1.0000
  N   N5        1.0  0.19769  0.36929  0.34454  1.0000
  N   N6        1.0  0.02404  0.35291  0.15535  1.0000
  N   N7        1.0  0.80231  0.63071  0.65547  1.0000
  N   N8        1.0  0.97595  0.64709  0.84465  1.0000
  N   N9        1.0  0.53084  0.27296  0.20003  1.0000
  N   N10       1.0  0.07340  0.83168  0.29997  1.0000
  N   N11       1.0  0.46916  0.72705  0.79997  1.0000
  N   N12       1.0  0.92660  0.16832  0.70002  1.0000
  N   N13       1.0  0.75114  0.77741  0.42220  1.0000
  N   N14       1.0  0.35510  0.82944  0.07817  1.0000
  N   N15       1.0  0.24885  0.22258  0.57780  1.0000
  N   N16       1.0  0.64488  0.17055  0.92183  1.0000
  O   O1        1.0  0.73785  0.83349  0.20950  1.0000
  O   O2        1.0  0.62422  0.02862  0.29051  1.0000
  O   O3        1.0  0.26215  0.16651  0.79050  1.0000
  O   O4        1.0  0.37578  0.97138  0.70949  1.0000
  O   O5        1.0  0.69952  0.05455  0.11326  1.0000
  O   O6        1.0  0.94168  0.08662  0.38677  1.0000
  O   O7        1.0  0.30048  0.94546  0.88674  1.0000
  O   O8        1.0  0.05831  0.91336  0.61323  1.0000
  O   O9        1.0  0.07918  0.06207  0.20242  1.0000
  O   O10       1.0  0.85978  0.37740  0.29762  1.0000
  O   O11       1.0  0.92083  0.93794  0.79758  1.0000
  O   O12       1.0  0.14023  0.62260  0.70238  1.0000
