data_image0
_chemical_formula_structural       Cu2H8C8I2N4
_chemical_formula_sum              "Cu2 H8 C8 I2 N4"
_cell_length_a       4.13768
_cell_length_b       6.87178
_cell_length_c       11.005
_cell_angle_alpha    89.9994
_cell_angle_beta     99.7298
_cell_angle_gamma    90

_space_group_name_H-M_alt    "P 1"
_space_group_IT_number       1

loop_
  _space_group_symop_operation_xyz
  'x, y, z'

loop_
  _atom_site_type_symbol
  _atom_site_label
  _atom_site_symmetry_multiplicity
  _atom_site_fract_x
  _atom_site_fract_y
  _atom_site_fract_z
  _atom_site_occupancy
  Cu  Cu1       1.0  0.50001  0.20758  0.25000  1.0000
  Cu  Cu2       1.0  0.50000  0.79243  0.75000  1.0000
  H   H1        1.0  0.76022  0.60168  0.32877  1.0000
  H   H2        1.0  0.23980  0.60168  0.17123  1.0000
  H   H3        1.0  0.23979  0.39831  0.67124  1.0000
  H   H4        1.0  0.76019  0.39831  0.82876  1.0000
  H   H5        1.0  0.25603  0.17696  0.49368  1.0000
  H   H6        1.0  0.74397  0.17696  0.00632  1.0000
  H   H7        1.0  0.74398  0.82303  0.50632  1.0000
  H   H8        1.0  0.25601  0.82303  0.99367  1.0000
  C   C1        1.0  0.64258  0.55442  0.40522  1.0000
  C   C2        1.0  0.35743  0.55443  0.09477  1.0000
  C   C3        1.0  0.35744  0.44557  0.59477  1.0000
  C   C4        1.0  0.64255  0.44557  0.90523  1.0000
  C   C5        1.0  0.36730  0.32120  0.49629  1.0000
  C   C6        1.0  0.63270  0.32121  0.00371  1.0000
  C   C7        1.0  0.63273  0.67881  0.50371  1.0000
  C   C8        1.0  0.36727  0.67881  0.99628  1.0000
  I   I1        1.0  0.00001  0.97477  0.25001  1.0000
  I   I2        1.0  0.99999  0.02524  0.75000  1.0000
  N   N1        1.0  0.50958  0.37408  0.39946  1.0000
  N   N2        1.0  0.49043  0.37408  0.10054  1.0000
  N   N3        1.0  0.49043  0.62592  0.60054  1.0000
  N   N4        1.0  0.50956  0.62592  0.89946  1.0000
