data_image0
_chemical_formula_structural       Cu5H32C40N12Cl10
_chemical_formula_sum              "Cu5 H32 C40 N12 Cl10"
_cell_length_a       10.2841
_cell_length_b       10.5144
_cell_length_c       11.1896
_cell_angle_alpha    100.941
_cell_angle_beta     104.332
_cell_angle_gamma    90.6802

_space_group_name_H-M_alt    "P 1"
_space_group_IT_number       1

loop_
  _space_group_symop_operation_xyz
  'x, y, z'

loop_
  _atom_site_type_symbol
  _atom_site_label
  _atom_site_symmetry_multiplicity
  _atom_site_fract_x
  _atom_site_fract_y
  _atom_site_fract_z
  _atom_site_occupancy
  Cu  Cu1       1.0  0.10186  0.56390  0.92523  1.0000
  Cu  Cu2       1.0  0.89805  0.43609  0.07411  1.0000
  Cu  Cu3       1.0  0.25357  0.64835  0.75614  1.0000
  Cu  Cu4       1.0  0.74658  0.35124  0.24460  1.0000
  Cu  Cu5       1.0  0.00060  0.49982  0.49971  1.0000
  H   H1        1.0  0.64028  0.18394  0.90225  1.0000
  H   H2        1.0  0.35976  0.81607  0.09772  1.0000
  H   H3        1.0  0.43531  0.30854  0.86817  1.0000
  H   H4        1.0  0.56477  0.69161  0.13190  1.0000
  H   H5        1.0  0.20805  0.19967  0.79476  1.0000
  H   H6        1.0  0.79199  0.80053  0.20521  1.0000
  H   H7        1.0  0.17451  0.95778  0.75482  1.0000
  H   H8        1.0  0.82546  0.04245  0.24508  1.0000
  H   H9        1.0  0.78348  0.81122  0.90817  1.0000
  H   H10       1.0  0.21642  0.18872  0.09170  1.0000
  H   H11       1.0  0.79176  0.97977  0.97140  1.0000
  H   H12       1.0  0.20823  0.02016  0.02850  1.0000
  H   H13       1.0  0.81945  0.82252  0.47656  1.0000
  H   H14       1.0  0.18065  0.17734  0.52339  1.0000
  H   H15       1.0  0.89777  0.05115  0.49704  1.0000
  H   H16       1.0  0.10228  0.94869  0.50288  1.0000
  H   H17       1.0  0.93612  0.20437  0.70368  1.0000
  H   H18       1.0  0.06382  0.79556  0.29619  1.0000
  H   H19       1.0  0.86825  0.13365  0.88014  1.0000
  H   H20       1.0  0.13170  0.86628  0.11974  1.0000
  H   H21       1.0  0.85460  0.65740  0.69083  1.0000
  H   H22       1.0  0.14547  0.34254  0.30915  1.0000
  H   H23       1.0  0.69349  0.69063  0.71504  1.0000
  H   H24       1.0  0.30663  0.30934  0.28510  1.0000
  H   H25       1.0  0.43192  0.45549  0.16621  1.0000
  H   H26       1.0  0.56794  0.54425  0.83391  1.0000
  H   H27       1.0  0.23602  0.57805  0.20820  1.0000
  H   H28       1.0  0.76407  0.42222  0.79163  1.0000
  H   H29       1.0  0.25373  0.73131  0.40799  1.0000
  H   H30       1.0  0.74633  0.26884  0.59194  1.0000
  H   H31       1.0  0.46939  0.77809  0.57355  1.0000
  H   H32       1.0  0.53066  0.22201  0.42637  1.0000
  C   C1        1.0  0.39066  0.93534  0.80698  1.0000
  C   C2        1.0  0.60929  0.06478  0.19295  1.0000
  C   C3        1.0  0.52068  0.99894  0.84653  1.0000
  C   C4        1.0  0.47929  0.00115  0.15343  1.0000
  C   C5        1.0  0.54069  0.13441  0.86901  1.0000
  C   C6        1.0  0.45931  0.86569  0.13098  1.0000
  C   C7        1.0  0.42535  0.20295  0.84966  1.0000
  C   C8        1.0  0.57467  0.79720  0.15040  1.0000
  C   C9        1.0  0.29474  0.14024  0.80815  1.0000
  C   C10       1.0  0.70529  0.85994  0.19186  1.0000
  C   C11       1.0  0.27475  0.00619  0.78612  1.0000
  C   C12       1.0  0.72523  0.99398  0.21384  1.0000
  C   C13       1.0  0.75353  0.90547  0.88577  1.0000
  C   C14       1.0  0.24641  0.09449  0.11412  1.0000
  C   C15       1.0  0.80388  0.93894  0.77851  1.0000
  C   C16       1.0  0.19609  0.06099  0.22139  1.0000
  C   C17       1.0  0.79534  0.84869  0.66571  1.0000
  C   C18       1.0  0.20463  0.15121  0.33419  1.0000
  C   C19       1.0  0.82828  0.89093  0.56506  1.0000
  C   C20       1.0  0.17172  0.10895  0.43485  1.0000
  C   C21       1.0  0.87502  0.01902  0.57698  1.0000
  C   C22       1.0  0.12497  0.98087  0.42293  1.0000
  C   C23       1.0  0.89446  0.10546  0.69188  1.0000
  C   C24       1.0  0.10551  0.89447  0.30801  1.0000
  C   C25       1.0  0.85690  0.06544  0.79106  1.0000
  C   C26       1.0  0.14306  0.93449  0.20883  1.0000
  C   C27       1.0  0.76226  0.70617  0.65747  1.0000
  C   C28       1.0  0.23776  0.29374  0.34256  1.0000
  C   C29       1.0  0.57065  0.63985  0.46114  1.0000
  C   C30       1.0  0.42928  0.35998  0.53892  1.0000
  C   C31       1.0  0.56094  0.54832  0.34851  1.0000
  C   C32       1.0  0.43889  0.45124  0.65169  1.0000
  C   C33       1.0  0.44030  0.52521  0.25337  1.0000
  C   C34       1.0  0.55962  0.47456  0.74673  1.0000
  C   C35       1.0  0.33270  0.59430  0.27787  1.0000
  C   C36       1.0  0.66730  0.40574  0.72209  1.0000
  C   C37       1.0  0.34274  0.68328  0.39240  1.0000
  C   C38       1.0  0.65727  0.31679  0.60753  1.0000
  C   C39       1.0  0.46188  0.70935  0.48586  1.0000
  C   C40       1.0  0.53814  0.29067  0.51409  1.0000
  N   N1        1.0  0.40683  0.80393  0.79723  1.0000
  N   N2        1.0  0.59306  0.19616  0.20263  1.0000
  N   N3        1.0  0.53557  0.78430  0.82719  1.0000
  N   N4        1.0  0.46431  0.21576  0.17265  1.0000
  N   N5        1.0  0.60600  0.89995  0.85709  1.0000
  N   N6        1.0  0.39395  0.10011  0.14280  1.0000
  N   N7        1.0  0.70006  0.63604  0.53027  1.0000
  N   N8        1.0  0.29987  0.36370  0.46984  1.0000
  N   N9        1.0  0.76617  0.54978  0.46734  1.0000
  N   N10       1.0  0.23355  0.44955  0.53302  1.0000
  N   N11       1.0  0.68465  0.49609  0.35919  1.0000
  N   N12       1.0  0.31512  0.50321  0.64130  1.0000
  Cl  Cl1       1.0  0.08555  0.37904  0.00127  1.0000
  Cl  Cl2       1.0  0.91449  0.62213  0.99968  1.0000
  Cl  Cl3       1.0  0.12161  0.76517  0.88346  1.0000
  Cl  Cl4       1.0  0.87730  0.23456  0.11521  1.0000
  Cl  Cl5       1.0  0.32507  0.54404  0.92766  1.0000
  Cl  Cl6       1.0  0.67627  0.45745  0.07359  1.0000
  Cl  Cl7       1.0  0.10190  0.70594  0.58785  1.0000
  Cl  Cl8       1.0  0.89898  0.29372  0.41194  1.0000
  Cl  Cl9       1.0  0.99409  0.55130  0.30446  1.0000
  Cl  Cl10      1.0  0.00516  0.44901  0.69589  1.0000
