data_image0
_chemical_formula_structural       Zn2H40C38N4O8
_chemical_formula_sum              "Zn2 H40 C38 N4 O8"
_cell_length_a       9.05791
_cell_length_b       9.60749
_cell_length_c       11.6147
_cell_angle_alpha    80.884
_cell_angle_beta     87.3854
_cell_angle_gamma    64.9864

_space_group_name_H-M_alt    "P 1"
_space_group_IT_number       1

loop_
  _space_group_symop_operation_xyz
  'x, y, z'

loop_
  _atom_site_type_symbol
  _atom_site_label
  _atom_site_symmetry_multiplicity
  _atom_site_fract_x
  _atom_site_fract_y
  _atom_site_fract_z
  _atom_site_occupancy
  Zn  Zn1       1.0  0.18672  0.29640  0.53790  1.0000
  Zn  Zn2       1.0  0.81328  0.70359  0.46210  1.0000
  H   H1        1.0  0.36753  0.02323  0.63581  1.0000
  H   H2        1.0  0.63247  0.97677  0.36419  1.0000
  H   H3        1.0  0.41879  0.38670  0.04458  1.0000
  H   H4        1.0  0.58120  0.61330  0.95543  1.0000
  H   H5        1.0  0.29930  0.39583  0.17256  1.0000
  H   H6        1.0  0.70070  0.60417  0.82744  1.0000
  H   H7        1.0  0.43688  0.21314  0.13877  1.0000
  H   H8        1.0  0.56311  0.78685  0.86123  1.0000
  H   H9        1.0  0.90726  0.40086  0.04167  1.0000
  H   H10       1.0  0.09274  0.59914  0.95832  1.0000
  H   H11       1.0  0.00082  0.42880  0.16351  1.0000
  H   H12       1.0  0.99918  0.57119  0.83649  1.0000
  H   H13       1.0  0.82713  0.58319  0.09062  1.0000
  H   H14       1.0  0.17287  0.41681  0.90938  1.0000
  H   H15       1.0  0.73075  0.37322  0.55331  1.0000
  H   H16       1.0  0.26925  0.62679  0.44669  1.0000
  H   H17       1.0  0.67721  0.07817  0.54538  1.0000
  H   H18       1.0  0.32279  0.92184  0.45462  1.0000
  H   H19       1.0  0.64934  0.37778  0.72885  1.0000
  H   H20       1.0  0.35066  0.62223  0.27115  1.0000
  H   H21       1.0  0.70185  0.32066  0.94398  1.0000
  H   H22       1.0  0.29815  0.67934  0.05602  1.0000
  H   H23       1.0  0.80747  0.04964  0.04535  1.0000
  H   H24       1.0  0.19253  0.95037  0.95465  1.0000
  H   H25       1.0  0.84840  0.83422  0.93483  1.0000
  H   H26       1.0  0.15160  0.16579  0.06517  1.0000
  H   H27       1.0  0.79152  0.89150  0.72019  1.0000
  H   H28       1.0  0.20848  0.10851  0.27980  1.0000
  H   H29       1.0  0.21176  0.23338  0.80789  1.0000
  H   H30       1.0  0.78823  0.76662  0.19211  1.0000
  H   H31       1.0  0.41032  0.18869  0.75134  1.0000
  H   H32       1.0  0.58968  0.81131  0.24867  1.0000
  H   H33       1.0  0.36811  0.03938  0.83785  1.0000
  H   H34       1.0  0.63188  0.96062  0.16215  1.0000
  H   H35       1.0  0.18090  0.94701  0.75658  1.0000
  H   H36       1.0  0.81910  0.05299  0.24342  1.0000
  H   H37       1.0  0.10197  0.02566  0.61082  1.0000
  H   H38       1.0  0.89803  0.97434  0.38918  1.0000
  H   H39       1.0  0.02954  0.14221  0.72350  1.0000
  H   H40       1.0  0.97046  0.85779  0.27650  1.0000
  C   C1        1.0  0.43696  0.26598  0.39194  1.0000
  C   C2        1.0  0.56305  0.73401  0.60806  1.0000
  C   C3        1.0  0.56142  0.30979  0.32622  1.0000
  C   C4        1.0  0.43859  0.69020  0.67378  1.0000
  C   C5        1.0  0.55121  0.34368  0.20358  1.0000
  C   C6        1.0  0.44879  0.65631  0.79642  1.0000
  C   C7        1.0  0.41933  0.33424  0.13555  1.0000
  C   C8        1.0  0.58067  0.66576  0.86445  1.0000
  C   C9        1.0  0.77253  0.40750  0.19766  1.0000
  C   C10       1.0  0.22747  0.59250  0.80234  1.0000
  C   C11       1.0  0.88470  0.45687  0.11997  1.0000
  C   C12       1.0  0.11530  0.54312  0.88003  1.0000
  C   C13       1.0  0.78888  0.37839  0.31973  1.0000
  C   C14       1.0  0.21112  0.62161  0.68027  1.0000
  C   C15       1.0  0.68358  0.32476  0.38667  1.0000
  C   C16       1.0  0.31642  0.67524  0.61333  1.0000
  C   C17       1.0  0.70253  0.29125  0.51378  1.0000
  C   C18       1.0  0.29747  0.70875  0.48622  1.0000
  C   C19       1.0  0.69563  0.16730  0.58275  1.0000
  C   C20       1.0  0.30438  0.83270  0.41725  1.0000
  C   C21       1.0  0.72127  0.13757  0.70937  1.0000
  C   C22       1.0  0.27874  0.86244  0.29063  1.0000
  C   C23       1.0  0.69544  0.25827  0.77373  1.0000
  C   C24       1.0  0.30456  0.74174  0.22627  1.0000
  C   C25       1.0  0.72516  0.22690  0.89370  1.0000
  C   C26       1.0  0.27484  0.77311  0.10630  1.0000
  C   C27       1.0  0.78207  0.07389  0.95174  1.0000
  C   C28       1.0  0.21794  0.92612  0.04826  1.0000
  C   C29       1.0  0.80557  0.95334  0.88951  1.0000
  C   C30       1.0  0.19443  0.04667  0.11049  1.0000
  C   C31       1.0  0.77448  0.98466  0.76943  1.0000
  C   C32       1.0  0.22553  0.01534  0.23057  1.0000
  C   C33       1.0  0.91990  0.39716  0.38061  1.0000
  C   C34       1.0  0.08010  0.60284  0.61939  1.0000
  C   C35       1.0  0.31725  0.14456  0.77213  1.0000
  C   C36       1.0  0.68274  0.85545  0.22787  1.0000
  C   C37       1.0  0.13740  0.05224  0.69068  1.0000
  C   C38       1.0  0.86260  0.94776  0.30932  1.0000
  N   N1        1.0  0.65621  0.38952  0.14196  1.0000
  N   N2        1.0  0.34379  0.61048  0.85804  1.0000
  N   N3        1.0  0.26504  0.11030  0.66532  1.0000
  N   N4        1.0  0.73496  0.88970  0.33469  1.0000
  O   O1        1.0  0.33087  0.37260  0.44527  1.0000
  O   O2        1.0  0.66913  0.62739  0.55473  1.0000
  O   O3        1.0  0.43826  0.13487  0.39194  1.0000
  O   O4        1.0  0.56174  0.86512  0.60807  1.0000
  O   O5        1.0  0.02145  0.27589  0.44408  1.0000
  O   O6        1.0  0.97855  0.72411  0.55592  1.0000
  O   O7        1.0  0.92545  0.52909  0.36634  1.0000
  O   O8        1.0  0.07455  0.47091  0.63366  1.0000
