data_image0
_chemical_formula_structural       Cu3H26C30N4O10
_chemical_formula_sum              "Cu3 H26 C30 N4 O10"
_cell_length_a       7.78669
_cell_length_b       10.2078
_cell_length_c       10.3461
_cell_angle_alpha    112.404
_cell_angle_beta     93.5924
_cell_angle_gamma    106.462

_space_group_name_H-M_alt    "P 1"
_space_group_IT_number       1

loop_
  _space_group_symop_operation_xyz
  'x, y, z'

loop_
  _atom_site_type_symbol
  _atom_site_label
  _atom_site_symmetry_multiplicity
  _atom_site_fract_x
  _atom_site_fract_y
  _atom_site_fract_z
  _atom_site_occupancy
  Cu  Cu1       1.0  0.49627  0.49773  0.49880  1.0000
  Cu  Cu2       1.0  0.10253  0.51207  0.37634  1.0000
  Cu  Cu3       1.0  0.89643  0.48739  0.62382  1.0000
  H   H1        1.0  0.40531  0.95233  0.08599  1.0000
  H   H2        1.0  0.59525  0.04628  0.91516  1.0000
  H   H3        1.0  0.67956  0.88070  0.10590  1.0000
  H   H4        1.0  0.32065  0.11771  0.89685  1.0000
  H   H5        1.0  0.95563  0.05789  0.29545  1.0000
  H   H6        1.0  0.04396  0.94180  0.70807  1.0000
  H   H7        1.0  0.25460  0.12501  0.14976  1.0000
  H   H8        1.0  0.74339  0.87200  0.85125  1.0000
  H   H9        1.0  0.24194  0.26791  0.04391  1.0000
  H   H10       1.0  0.75918  0.73415  0.95638  1.0000
  H   H11       1.0  0.56960  0.33391  0.82258  1.0000
  H   H12       1.0  0.42971  0.66555  0.17693  1.0000
  H   H13       1.0  0.78743  0.21712  0.69226  1.0000
  H   H14       1.0  0.21313  0.78338  0.30778  1.0000
  H   H15       1.0  0.06037  0.21574  0.82810  1.0000
  H   H16       1.0  0.93953  0.78453  0.17221  1.0000
  H   H17       1.0  0.23086  0.11935  0.46139  1.0000
  H   H18       1.0  0.77087  0.87987  0.53850  1.0000
  H   H19       1.0  0.23678  0.14747  0.64338  1.0000
  H   H20       1.0  0.76725  0.85442  0.35737  1.0000
  H   H21       1.0  0.44377  0.19913  0.58185  1.0000
  H   H22       1.0  0.55898  0.80314  0.41730  1.0000
  H   H23       1.0  0.65229  0.50863  0.20253  1.0000
  H   H24       1.0  0.34726  0.49321  0.79694  1.0000
  H   H25       1.0  0.17166  0.33497  0.56953  1.0000
  H   H26       1.0  0.82607  0.66312  0.42890  1.0000
  C   C1        1.0  0.82687  0.22244  0.39017  1.0000
  C   C2        1.0  0.17200  0.77701  0.61110  1.0000
  C   C3        1.0  0.66702  0.26211  0.38071  1.0000
  C   C4        1.0  0.33501  0.73997  0.61736  1.0000
  C   C5        1.0  0.51628  0.16811  0.26804  1.0000
  C   C6        1.0  0.48518  0.83236  0.73120  1.0000
  C   C7        1.0  0.52287  0.02765  0.17076  1.0000
  C   C8        1.0  0.47799  0.97161  0.82989  1.0000
  C   C9        1.0  0.67784  0.98907  0.18133  1.0000
  C   C10       1.0  0.32258  0.01006  0.82003  1.0000
  C   C11       1.0  0.83162  0.08679  0.28908  1.0000
  C   C12       1.0  0.16819  0.91290  0.71283  1.0000
  C   C13       1.0  0.36347  0.21068  0.23925  1.0000
  C   C14       1.0  0.63579  0.78751  0.76021  1.0000
  C   C15       1.0  0.15050  0.31553  0.10858  1.0000
  C   C16       1.0  0.84873  0.68396  0.89146  1.0000
  C   C17       1.0  0.99284  0.31992  0.03506  1.0000
  C   C18       1.0  0.00646  0.67992  0.96492  1.0000
  C   C19       1.0  0.86662  0.38372  0.10879  1.0000
  C   C20       1.0  0.13296  0.61683  0.89125  1.0000
  C   C21       1.0  0.71341  0.38760  0.02788  1.0000
  C   C22       1.0  0.28648  0.61332  0.97189  1.0000
  C   C23       1.0  0.68633  0.32750  0.88056  1.0000
  C   C24       1.0  0.31325  0.67252  0.11916  1.0000
  C   C25       1.0  0.81025  0.26323  0.80829  1.0000
  C   C26       1.0  0.18951  0.73691  0.19172  1.0000
  C   C27       1.0  0.96126  0.26077  0.88347  1.0000
  C   C28       1.0  0.03847  0.73940  0.11669  1.0000
  C   C29       1.0  0.30102  0.19489  0.57207  1.0000
  C   C30       1.0  0.70113  0.80597  0.42738  1.0000
  N   N1        1.0  0.34506  0.34275  0.30520  1.0000
  N   N2        1.0  0.65205  0.65440  0.69510  1.0000
  N   N3        1.0  0.19927  0.36837  0.24805  1.0000
  N   N4        1.0  0.79631  0.62825  0.75206  1.0000
  O   O1        1.0  0.96777  0.32377  0.49563  1.0000
  O   O2        1.0  0.03029  0.67489  0.50809  1.0000
  O   O3        1.0  0.67178  0.39245  0.48388  1.0000
  O   O4        1.0  0.33683  0.61722  0.50882  1.0000
  O   O5        1.0  0.88006  0.44219  0.24668  1.0000
  O   O6        1.0  0.11900  0.55793  0.75319  1.0000
  O   O7        1.0  0.59715  0.45148  0.09898  1.0000
  O   O8        1.0  0.40278  0.54955  0.90033  1.0000
  O   O9        1.0  0.29746  0.34397  0.60831  1.0000
  O   O10       1.0  0.70199  0.65603  0.38928  1.0000
