data_image0
_chemical_formula_structural       Cu4H40C24N16O32
_chemical_formula_sum              "Cu4 H40 C24 N16 O32"
_cell_length_a       6.24135
_cell_length_b       14.4809
_cell_length_c       14.4813
_cell_angle_alpha    90.0002
_cell_angle_beta     90.0012
_cell_angle_gamma    89.9987

_space_group_name_H-M_alt    "P 1"
_space_group_IT_number       1

loop_
  _space_group_symop_operation_xyz
  'x, y, z'

loop_
  _atom_site_type_symbol
  _atom_site_label
  _atom_site_symmetry_multiplicity
  _atom_site_fract_x
  _atom_site_fract_y
  _atom_site_fract_z
  _atom_site_occupancy
  Cu  Cu1       1.0  0.99999  0.13378  0.13378  1.0000
  Cu  Cu2       1.0  0.50001  0.86621  0.86622  1.0000
  Cu  Cu3       1.0  0.24998  0.63379  0.36621  1.0000
  Cu  Cu4       1.0  0.75001  0.36621  0.63378  1.0000
  H   H1        1.0  0.36231  0.32512  0.24368  1.0000
  H   H2        1.0  0.86235  0.67488  0.75632  1.0000
  H   H3        1.0  0.88765  0.82512  0.25633  1.0000
  H   H4        1.0  0.38770  0.17489  0.74368  1.0000
  H   H5        1.0  0.13770  0.75632  0.67489  1.0000
  H   H6        1.0  0.63767  0.24368  0.32512  1.0000
  H   H7        1.0  0.61229  0.74368  0.17489  1.0000
  H   H8        1.0  0.11234  0.25633  0.82512  1.0000
  H   H9        1.0  0.96700  0.82850  0.07203  1.0000
  H   H10       1.0  0.46703  0.17150  0.92797  1.0000
  H   H11       1.0  0.28298  0.32850  0.42796  1.0000
  H   H12       1.0  0.78298  0.67150  0.57203  1.0000
  H   H13       1.0  0.53296  0.92797  0.17149  1.0000
  H   H14       1.0  0.03298  0.07204  0.82851  1.0000
  H   H15       1.0  0.21703  0.57203  0.67149  1.0000
  H   H16       1.0  0.71702  0.42797  0.32851  1.0000
  H   H17       1.0  0.92257  0.85682  0.95657  1.0000
  H   H18       1.0  0.42256  0.14318  0.04343  1.0000
  H   H19       1.0  0.32744  0.35682  0.54343  1.0000
  H   H20       1.0  0.82743  0.64318  0.45657  1.0000
  H   H21       1.0  0.57742  0.04343  0.14317  1.0000
  H   H22       1.0  0.07743  0.95657  0.85683  1.0000
  H   H23       1.0  0.17256  0.45656  0.64317  1.0000
  H   H24       1.0  0.67256  0.54343  0.35683  1.0000
  H   H25       1.0  0.18873  0.95083  0.22963  1.0000
  H   H26       1.0  0.68873  0.04916  0.77037  1.0000
  H   H27       1.0  0.06124  0.45083  0.27037  1.0000
  H   H28       1.0  0.56124  0.54919  0.72962  1.0000
  H   H29       1.0  0.31126  0.77036  0.04915  1.0000
  H   H30       1.0  0.81124  0.22963  0.95082  1.0000
  H   H31       1.0  0.43873  0.72963  0.54915  1.0000
  H   H32       1.0  0.93875  0.27036  0.45083  1.0000
  H   H33       1.0  0.22396  0.27435  0.11446  1.0000
  H   H34       1.0  0.72400  0.72565  0.88554  1.0000
  H   H35       1.0  0.02602  0.77434  0.38554  1.0000
  H   H36       1.0  0.52603  0.22566  0.61446  1.0000
  H   H37       1.0  0.27605  0.88554  0.72566  1.0000
  H   H38       1.0  0.77603  0.11446  0.27434  1.0000
  H   H39       1.0  0.47395  0.61446  0.22566  1.0000
  H   H40       1.0  0.97397  0.38554  0.77434  1.0000
  C   C1        1.0  0.00584  0.96679  0.03947  1.0000
  C   C2        1.0  0.50586  0.03321  0.96053  1.0000
  C   C3        1.0  0.24413  0.46678  0.46053  1.0000
  C   C4        1.0  0.74413  0.53321  0.53947  1.0000
  C   C5        1.0  0.49413  0.96053  0.03321  1.0000
  C   C6        1.0  0.99414  0.03947  0.96679  1.0000
  C   C7        1.0  0.25585  0.53946  0.53321  1.0000
  C   C8        1.0  0.75586  0.46054  0.46679  1.0000
  C   C9        1.0  0.22712  0.20014  0.29534  1.0000
  C   C10       1.0  0.72716  0.79986  0.70466  1.0000
  C   C11       1.0  0.02285  0.70014  0.20465  1.0000
  C   C12       1.0  0.52291  0.29986  0.79535  1.0000
  C   C13       1.0  0.27293  0.70465  0.79986  1.0000
  C   C14       1.0  0.77286  0.29535  0.20014  1.0000
  C   C15       1.0  0.47709  0.79535  0.29986  1.0000
  C   C16       1.0  0.97715  0.20465  0.70014  1.0000
  C   C17       1.0  0.38319  0.25120  0.22892  1.0000
  C   C18       1.0  0.88323  0.74880  0.77108  1.0000
  C   C19       1.0  0.86679  0.75120  0.27108  1.0000
  C   C20       1.0  0.36683  0.24881  0.72893  1.0000
  C   C21       1.0  0.11684  0.77107  0.74881  1.0000
  C   C22       1.0  0.61680  0.22893  0.25120  1.0000
  C   C23       1.0  0.63317  0.72893  0.24881  1.0000
  C   C24       1.0  0.13322  0.27108  0.75120  1.0000
  N   N1        1.0  0.06568  0.00186  0.11959  1.0000
  N   N2        1.0  0.56568  0.99813  0.88041  1.0000
  N   N3        1.0  0.18430  0.50186  0.38040  1.0000
  N   N4        1.0  0.68431  0.49813  0.61959  1.0000
  N   N5        1.0  0.43430  0.88041  0.99814  1.0000
  N   N6        1.0  0.93430  0.11960  0.00186  1.0000
  N   N7        1.0  0.31567  0.61959  0.49813  1.0000
  N   N8        1.0  0.81568  0.38040  0.50187  1.0000
  N   N9        1.0  0.95737  0.87945  0.02175  1.0000
  N   N10       1.0  0.45737  0.12055  0.97825  1.0000
  N   N11       1.0  0.29263  0.37945  0.47824  1.0000
  N   N12       1.0  0.79261  0.62055  0.52175  1.0000
  N   N13       1.0  0.54262  0.97825  0.12054  1.0000
  N   N14       1.0  0.04262  0.02175  0.87946  1.0000
  N   N15       1.0  0.20737  0.52175  0.62054  1.0000
  N   N16       1.0  0.70737  0.47825  0.37946  1.0000
  O   O1        1.0  0.05979  0.93813  0.19234  1.0000
  O   O2        1.0  0.55980  0.06187  0.80766  1.0000
  O   O3        1.0  0.19018  0.43813  0.30766  1.0000
  O   O4        1.0  0.69020  0.56187  0.69234  1.0000
  O   O5        1.0  0.44018  0.80766  0.06187  1.0000
  O   O6        1.0  0.94019  0.19234  0.93813  1.0000
  O   O7        1.0  0.30980  0.69233  0.56187  1.0000
  O   O8        1.0  0.80980  0.30766  0.43813  1.0000
  O   O9        1.0  0.09650  0.13899  0.26335  1.0000
  O   O10       1.0  0.59653  0.86101  0.73665  1.0000
  O   O11       1.0  0.15349  0.63899  0.23664  1.0000
  O   O12       1.0  0.65353  0.36102  0.76336  1.0000
  O   O13       1.0  0.40353  0.73663  0.86102  1.0000
  O   O14       1.0  0.90348  0.26336  0.13899  1.0000
  O   O15       1.0  0.34648  0.76337  0.36102  1.0000
  O   O16       1.0  0.84651  0.23664  0.63899  1.0000
  O   O17       1.0  0.23250  0.22250  0.37885  1.0000
  O   O18       1.0  0.73253  0.77751  0.62116  1.0000
  O   O19       1.0  0.01746  0.72250  0.12116  1.0000
  O   O20       1.0  0.51756  0.27750  0.87885  1.0000
  O   O21       1.0  0.26758  0.62115  0.77749  1.0000
  O   O22       1.0  0.76749  0.37885  0.22250  1.0000
  O   O23       1.0  0.48245  0.87885  0.27750  1.0000
  O   O24       1.0  0.98253  0.12116  0.72250  1.0000
  O   O25       1.0  0.34312  0.23409  0.13288  1.0000
  O   O26       1.0  0.84317  0.76590  0.86713  1.0000
  O   O27       1.0  0.90686  0.73409  0.36712  1.0000
  O   O28       1.0  0.40688  0.26592  0.63288  1.0000
  O   O29       1.0  0.15690  0.86712  0.76592  1.0000
  O   O30       1.0  0.65686  0.13288  0.23409  1.0000
  O   O31       1.0  0.59312  0.63288  0.26592  1.0000
  O   O32       1.0  0.09314  0.36713  0.73409  1.0000
