data_image0
_chemical_formula_structural       Nd4H32C40N4O36
_chemical_formula_sum              "Nd4 H32 C40 N4 O36"
_cell_length_a       9.63675
_cell_length_b       11.1319
_cell_length_c       13.5243
_cell_angle_alpha    65.8035
_cell_angle_beta     69.1261
_cell_angle_gamma    64.349

_space_group_name_H-M_alt    "P 1"
_space_group_IT_number       1

loop_
  _space_group_symop_operation_xyz
  'x, y, z'

loop_
  _atom_site_type_symbol
  _atom_site_label
  _atom_site_symmetry_multiplicity
  _atom_site_fract_x
  _atom_site_fract_y
  _atom_site_fract_z
  _atom_site_occupancy
  Nd  Nd1       1.0  0.06615  0.92625  0.81257  1.0000
  Nd  Nd2       1.0  0.80501  0.57371  0.68745  1.0000
  Nd  Nd3       1.0  0.93385  0.07375  0.18743  1.0000
  Nd  Nd4       1.0  0.19499  0.42629  0.31256  1.0000
  H   H1        1.0  0.58581  0.30369  0.92045  1.0000
  H   H2        1.0  0.81009  0.19620  0.57959  1.0000
  H   H3        1.0  0.41419  0.69631  0.07955  1.0000
  H   H4        1.0  0.18991  0.80380  0.42041  1.0000
  H   H5        1.0  0.10411  0.35004  0.96074  1.0000
  H   H6        1.0  0.41504  0.14985  0.53926  1.0000
  H   H7        1.0  0.89590  0.64996  0.03926  1.0000
  H   H8        1.0  0.58496  0.85015  0.46075  1.0000
  H   H9        1.0  0.48047  0.01161  0.84954  1.0000
  H   H10       1.0  0.34168  0.48826  0.65049  1.0000
  H   H11       1.0  0.51953  0.98840  0.15046  1.0000
  H   H12       1.0  0.65832  0.51174  0.34951  1.0000
  H   H13       1.0  0.37102  0.48487  0.98406  1.0000
  H   H14       1.0  0.84005  0.01504  0.51592  1.0000
  H   H15       1.0  0.62898  0.51513  0.01594  1.0000
  H   H16       1.0  0.15995  0.98496  0.48409  1.0000
  H   H17       1.0  0.20157  0.45156  0.05013  1.0000
  H   H18       1.0  0.70328  0.04843  0.44988  1.0000
  H   H19       1.0  0.79843  0.54844  0.94987  1.0000
  H   H20       1.0  0.29672  0.95157  0.55012  1.0000
  H   H21       1.0  0.22078  0.55456  0.91767  1.0000
  H   H22       1.0  0.69312  0.94533  0.58231  1.0000
  H   H23       1.0  0.77923  0.44544  0.08233  1.0000
  H   H24       1.0  0.30688  0.05467  0.41769  1.0000
  H   H25       1.0  0.11019  0.18847  0.59592  1.0000
  H   H26       1.0  0.89453  0.31153  0.90409  1.0000
  H   H27       1.0  0.88981  0.81153  0.40408  1.0000
  H   H28       1.0  0.10548  0.68847  0.09591  1.0000
  H   H29       1.0  0.93693  0.22316  0.65710  1.0000
  H   H30       1.0  0.81715  0.27678  0.84294  1.0000
  H   H31       1.0  0.06307  0.77683  0.34290  1.0000
  H   H32       1.0  0.18285  0.72322  0.15706  1.0000
  C   C1        1.0  0.72372  0.07252  0.85206  1.0000
  C   C2        1.0  0.64829  0.42738  0.64801  1.0000
  C   C3        1.0  0.27629  0.92748  0.14794  1.0000
  C   C4        1.0  0.35171  0.57262  0.35199  1.0000
  C   C5        1.0  0.55114  0.15077  0.87948  1.0000
  C   C6        1.0  0.58146  0.34906  0.62058  1.0000
  C   C7        1.0  0.44887  0.84923  0.12052  1.0000
  C   C8        1.0  0.41854  0.65094  0.37942  1.0000
  C   C9        1.0  0.50082  0.26943  0.91310  1.0000
  C   C10       1.0  0.68351  0.23041  0.58699  1.0000
  C   C11       1.0  0.49918  0.73057  0.08690  1.0000
  C   C12       1.0  0.31649  0.76959  0.41301  1.0000
  C   C13       1.0  0.34054  0.34185  0.93801  1.0000
  C   C14       1.0  0.62049  0.15801  0.56212  1.0000
  C   C15       1.0  0.65947  0.65815  0.06199  1.0000
  C   C16       1.0  0.37951  0.84198  0.43789  1.0000
  C   C17       1.0  0.22942  0.29605  0.93548  1.0000
  C   C18       1.0  0.46106  0.20383  0.56456  1.0000
  C   C19       1.0  0.77058  0.70395  0.06452  1.0000
  C   C20       1.0  0.53893  0.79618  0.43544  1.0000
  C   C21       1.0  0.27935  0.17572  0.90488  1.0000
  C   C22       1.0  0.35997  0.32413  0.59518  1.0000
  C   C23       1.0  0.72066  0.82428  0.09512  1.0000
  C   C24       1.0  0.64003  0.67587  0.40482  1.0000
  C   C25       1.0  0.44039  0.10511  0.87406  1.0000
  C   C26       1.0  0.41961  0.39470  0.62604  1.0000
  C   C27       1.0  0.55961  0.89490  0.12594  1.0000
  C   C28       1.0  0.58039  0.60530  0.37396  1.0000
  C   C29       1.0  0.15637  0.12062  0.91442  1.0000
  C   C30       1.0  0.19147  0.37929  0.58556  1.0000
  C   C31       1.0  0.84363  0.87938  0.08558  1.0000
  C   C32       1.0  0.80853  0.62071  0.41444  1.0000
  C   C33       1.0  0.44071  0.72261  0.82567  1.0000
  C   C34       1.0  0.98900  0.77737  0.67432  1.0000
  C   C35       1.0  0.55929  0.27739  0.17433  1.0000
  C   C36       1.0  0.01100  0.22263  0.32568  1.0000
  C   C37       1.0  0.45740  0.82575  0.70644  1.0000
  C   C38       1.0  0.98975  0.67422  0.79352  1.0000
  C   C39       1.0  0.54260  0.17425  0.29356  1.0000
  C   C40       1.0  0.01025  0.32578  0.20648  1.0000
  N   N1        1.0  0.28285  0.46610  0.97283  1.0000
  N   N2        1.0  0.72185  0.03382  0.52719  1.0000
  N   N3        1.0  0.71716  0.53390  0.02717  1.0000
  N   N4        1.0  0.27815  0.96618  0.47281  1.0000
  O   O1        1.0  0.82050  0.12044  0.85686  1.0000
  O   O2        1.0  0.79783  0.37956  0.64310  1.0000
  O   O3        1.0  0.17950  0.87956  0.14314  1.0000
  O   O4        1.0  0.20217  0.62044  0.35690  1.0000
  O   O5        1.0  0.77431  0.96092  0.82643  1.0000
  O   O6        1.0  0.56158  0.53894  0.67369  1.0000
  O   O7        1.0  0.22570  0.03908  0.17357  1.0000
  O   O8        1.0  0.43842  0.46106  0.32630  1.0000
  O   O9        1.0  0.02636  0.15310  0.98533  1.0000
  O   O10       1.0  0.16487  0.34680  0.51465  1.0000
  O   O11       1.0  0.97364  0.84690  0.01467  1.0000
  O   O12       1.0  0.83512  0.65320  0.48536  1.0000
  O   O13       1.0  0.18695  0.04774  0.85366  1.0000
  O   O14       1.0  0.08837  0.45220  0.64629  1.0000
  O   O15       1.0  0.81306  0.95226  0.14634  1.0000
  O   O16       1.0  0.91163  0.54780  0.35371  1.0000
  O   O17       1.0  0.33034  0.90947  0.67446  1.0000
  O   O18       1.0  0.91450  0.59045  0.82552  1.0000
  O   O19       1.0  0.66966  0.09052  0.32555  1.0000
  O   O20       1.0  0.08550  0.40956  0.17448  1.0000
  O   O21       1.0  0.30296  0.74127  0.88593  1.0000
  O   O22       1.0  0.93015  0.75861  0.61413  1.0000
  O   O23       1.0  0.69703  0.25873  0.11407  1.0000
  O   O24       1.0  0.06986  0.24139  0.38587  1.0000
  O   O25       1.0  0.56598  0.62660  0.85199  1.0000
  O   O26       1.0  0.04441  0.87347  0.64797  1.0000
  O   O27       1.0  0.43402  0.37340  0.14802  1.0000
  O   O28       1.0  0.95559  0.12653  0.35203  1.0000
  O   O29       1.0  0.59600  0.81742  0.64948  1.0000
  O   O30       1.0  0.06308  0.68254  0.85047  1.0000
  O   O31       1.0  0.40400  0.18258  0.35053  1.0000
  O   O32       1.0  0.93692  0.31746  0.14953  1.0000
  O   O33       1.0  0.03634  0.14125  0.65196  1.0000
  O   O34       1.0  0.82948  0.35870  0.84806  1.0000
  O   O35       1.0  0.96366  0.85875  0.34804  1.0000
  O   O36       1.0  0.17052  0.64130  0.15194  1.0000
