data_image0
_chemical_formula_structural       Sm2H46C54O20
_chemical_formula_sum              "Sm2 H46 C54 O20"
_cell_length_a       7.77777
_cell_length_b       12.9442
_cell_length_c       13.676
_cell_angle_alpha    97.6668
_cell_angle_beta     97.3972
_cell_angle_gamma    103.558

_space_group_name_H-M_alt    "P 1"
_space_group_IT_number       1

loop_
  _space_group_symop_operation_xyz
  'x, y, z'

loop_
  _atom_site_type_symbol
  _atom_site_label
  _atom_site_symmetry_multiplicity
  _atom_site_fract_x
  _atom_site_fract_y
  _atom_site_fract_z
  _atom_site_occupancy
  Sm  Sm1       1.0  0.23137  0.46235  0.48161  1.0000
  Sm  Sm2       1.0  0.76863  0.53765  0.51839  1.0000
  H   H1        1.0  0.94346  0.31945  0.57155  1.0000
  H   H2        1.0  0.05654  0.68055  0.42844  1.0000
  H   H3        1.0  0.12515  0.32524  0.64207  1.0000
  H   H4        1.0  0.87485  0.67475  0.35793  1.0000
  H   H5        1.0  0.40830  0.52800  0.24445  1.0000
  H   H6        1.0  0.59170  0.47200  0.75555  1.0000
  H   H7        1.0  0.09702  0.17033  0.37695  1.0000
  H   H8        1.0  0.90298  0.82967  0.62305  1.0000
  H   H9        1.0  0.34399  0.08683  0.77662  1.0000
  H   H10       1.0  0.65600  0.91317  0.22338  1.0000
  H   H11       1.0  0.16443  0.61622  0.23680  1.0000
  H   H12       1.0  0.83558  0.38378  0.76320  1.0000
  H   H13       1.0  0.94048  0.66002  0.11216  1.0000
  H   H14       1.0  0.05952  0.33998  0.88784  1.0000
  H   H15       1.0  0.98481  0.65754  0.93583  1.0000
  H   H16       1.0  0.01519  0.34246  0.06416  1.0000
  H   H17       1.0  0.49137  0.57984  0.01084  1.0000
  H   H18       1.0  0.50864  0.42017  0.98917  1.0000
  H   H19       1.0  0.39356  0.57891  0.84508  1.0000
  H   H20       1.0  0.60646  0.42110  0.15492  1.0000
  H   H21       1.0  0.02225  0.61532  0.77966  1.0000
  H   H22       1.0  0.97777  0.38468  0.22034  1.0000
  H   H23       1.0  0.84758  0.23223  0.33742  1.0000
  H   H24       1.0  0.15242  0.76776  0.66258  1.0000
  H   H25       1.0  0.51602  0.19237  0.31800  1.0000
  H   H26       1.0  0.48398  0.80763  0.68200  1.0000
  H   H27       1.0  0.33792  0.01550  0.34754  1.0000
  H   H28       1.0  0.66207  0.98450  0.65246  1.0000
  H   H29       1.0  0.83356  0.92153  0.41726  1.0000
  H   H30       1.0  0.16644  0.07846  0.58274  1.0000
  H   H31       1.0  0.32117  0.83996  0.38692  1.0000
  H   H32       1.0  0.67882  0.16004  0.61308  1.0000
  H   H33       1.0  0.67976  0.78275  0.44711  1.0000
  H   H34       1.0  0.32024  0.21725  0.55288  1.0000
  H   H35       1.0  0.30583  0.92918  0.84622  1.0000
  H   H36       1.0  0.69415  0.07081  0.15378  1.0000
  H   H37       1.0  0.22958  0.84781  0.99494  1.0000
  H   H38       1.0  0.77040  0.15218  0.00506  1.0000
  H   H39       1.0  0.18360  0.96152  0.14591  1.0000
  H   H40       1.0  0.81639  0.03848  0.85410  1.0000
  H   H41       1.0  0.29429  0.23973  0.99763  1.0000
  H   H42       1.0  0.70571  0.76027  0.00237  1.0000
  H   H43       1.0  0.16873  0.12719  0.23147  1.0000
  H   H44       1.0  0.83127  0.87281  0.76853  1.0000
  H   H45       1.0  0.31544  0.33276  0.14518  1.0000
  H   H46       1.0  0.68456  0.66724  0.85482  1.0000
  C   C1        1.0  0.34234  0.59502  0.13127  1.0000
  C   C2        1.0  0.65766  0.40499  0.86873  1.0000
  C   C3        1.0  0.18658  0.61825  0.15987  1.0000
  C   C4        1.0  0.81342  0.38176  0.84012  1.0000
  C   C5        1.0  0.06133  0.64233  0.08928  1.0000
  C   C6        1.0  0.93868  0.35767  0.91072  1.0000
  C   C7        1.0  0.08617  0.64151  0.99027  1.0000
  C   C8        1.0  0.91383  0.35849  0.00972  1.0000
  C   C9        1.0  0.24148  0.61739  0.96049  1.0000
  C   C10       1.0  0.75853  0.38261  0.03951  1.0000
  C   C11       1.0  0.37029  0.59786  0.03260  1.0000
  C   C12       1.0  0.62972  0.40215  0.96739  1.0000
  C   C13       1.0  0.26975  0.60103  0.85725  1.0000
  C   C14       1.0  0.73026  0.39897  0.14275  1.0000
  C   C15       1.0  0.15264  0.60010  0.77472  1.0000
  C   C16       1.0  0.84737  0.39991  0.22528  1.0000
  C   C17       1.0  0.18820  0.56754  0.67448  1.0000
  C   C18       1.0  0.81182  0.43246  0.32552  1.0000
  C   C19       1.0  0.86028  0.07808  0.37794  1.0000
  C   C20       1.0  0.13971  0.92192  0.62206  1.0000
  C   C21       1.0  0.77001  0.15506  0.35024  1.0000
  C   C22       1.0  0.22998  0.84493  0.64976  1.0000
  C   C23       1.0  0.58362  0.13184  0.33909  1.0000
  C   C24       1.0  0.41637  0.86816  0.66091  1.0000
  C   C25       1.0  0.48358  0.03262  0.35453  1.0000
  C   C26       1.0  0.51642  0.96738  0.64547  1.0000
  C   C27       1.0  0.57210  0.95514  0.38266  1.0000
  C   C28       1.0  0.42790  0.04486  0.61734  1.0000
  C   C29       1.0  0.76086  0.97891  0.39414  1.0000
  C   C30       1.0  0.23914  0.02109  0.60585  1.0000
  C   C31       1.0  0.46687  0.85240  0.39986  1.0000
  C   C32       1.0  0.53313  0.14760  0.60014  1.0000
  C   C33       1.0  0.53552  0.77349  0.43114  1.0000
  C   C34       1.0  0.46447  0.22650  0.56886  1.0000
  C   C35       1.0  0.42684  0.67190  0.44823  1.0000
  C   C36       1.0  0.57316  0.32810  0.55177  1.0000
  C   C37       1.0  0.30178  0.08979  0.91370  1.0000
  C   C38       1.0  0.69822  0.91020  0.08630  1.0000
  C   C39       1.0  0.28501  0.97902  0.91242  1.0000
  C   C40       1.0  0.71498  0.02098  0.08759  1.0000
  C   C41       1.0  0.24268  0.93365  0.99598  1.0000
  C   C42       1.0  0.75731  0.06635  0.00403  1.0000
  C   C43       1.0  0.21737  0.99717  0.08075  1.0000
  C   C44       1.0  0.78263  0.00283  0.91926  1.0000
  C   C45       1.0  0.23819  0.10868  0.08344  1.0000
  C   C46       1.0  0.76181  0.89132  0.91656  1.0000
  C   C47       1.0  0.27999  0.15420  0.99898  1.0000
  C   C48       1.0  0.72000  0.84580  0.00103  1.0000
  C   C49       1.0  0.21925  0.17301  0.17488  1.0000
  C   C50       1.0  0.78074  0.82699  0.82512  1.0000
  C   C51       1.0  0.26222  0.28200  0.19740  1.0000
  C   C52       1.0  0.73777  0.71800  0.80261  1.0000
  C   C53       1.0  0.24526  0.34018  0.29310  1.0000
  C   C54       1.0  0.75475  0.65983  0.70690  1.0000
  O   O1        1.0  0.06257  0.55690  0.59755  1.0000
  O   O2        1.0  0.93744  0.44311  0.40246  1.0000
  O   O3        1.0  0.07293  0.32111  0.57261  1.0000
  O   O4        1.0  0.92707  0.67889  0.42739  1.0000
  O   O5        1.0  0.33369  0.54521  0.65857  1.0000
  O   O6        1.0  0.66632  0.45479  0.34142  1.0000
  O   O7        1.0  0.46785  0.56820  0.19507  1.0000
  O   O8        1.0  0.53216  0.43180  0.80493  1.0000
  O   O9        1.0  0.50841  0.60108  0.47523  1.0000
  O   O10       1.0  0.49159  0.39891  0.52477  1.0000
  O   O11       1.0  0.25538  0.64703  0.43792  1.0000
  O   O12       1.0  0.74462  0.35297  0.56208  1.0000
  O   O13       1.0  0.04101  0.09572  0.38897  1.0000
  O   O14       1.0  0.95899  0.90428  0.61103  1.0000
  O   O15       1.0  0.18999  0.29176  0.36417  1.0000
  O   O16       1.0  0.81001  0.70823  0.63583  1.0000
  O   O17       1.0  0.28384  0.44395  0.30808  1.0000
  O   O18       1.0  0.71617  0.55605  0.69192  1.0000
  O   O19       1.0  0.33962  0.13949  0.83418  1.0000
  O   O20       1.0  0.66038  0.86050  0.16583  1.0000
