data_image0
_chemical_formula_structural       Zn2H36C40N8Cl4
_chemical_formula_sum              "Zn2 H36 C40 N8 Cl4"
_cell_length_a       5.58504
_cell_length_b       12.0109
_cell_length_c       15.0179
_cell_angle_alpha    70.2919
_cell_angle_beta     79.2416
_cell_angle_gamma    76.5243

_space_group_name_H-M_alt    "P 1"
_space_group_IT_number       1

loop_
  _space_group_symop_operation_xyz
  'x, y, z'

loop_
  _atom_site_type_symbol
  _atom_site_label
  _atom_site_symmetry_multiplicity
  _atom_site_fract_x
  _atom_site_fract_y
  _atom_site_fract_z
  _atom_site_occupancy
  Zn  Zn1       1.0  0.33133  0.25015  0.75000  1.0000
  Zn  Zn2       1.0  0.66869  0.74985  0.25000  1.0000
  H   H1        1.0  0.54166  0.09890  0.95392  1.0000
  H   H2        1.0  0.59445  0.40139  0.54599  1.0000
  H   H3        1.0  0.45837  0.90110  0.04606  1.0000
  H   H4        1.0  0.40555  0.59862  0.45401  1.0000
  H   H5        1.0  0.97503  0.92491  0.96216  1.0000
  H   H6        1.0  0.86217  0.57525  0.53764  1.0000
  H   H7        1.0  0.02500  0.07510  0.03784  1.0000
  H   H8        1.0  0.13780  0.42476  0.46236  1.0000
  H   H9        1.0  0.79937  0.07355  0.67815  1.0000
  H   H10       1.0  0.55197  0.42625  0.82181  1.0000
  H   H11       1.0  0.20068  0.92644  0.32183  1.0000
  H   H12       1.0  0.44804  0.57374  0.17819  1.0000
  H   H13       1.0  0.32491  0.97062  0.75884  1.0000
  H   H14       1.0  0.05521  0.52933  0.74080  1.0000
  H   H15       1.0  0.67510  0.02937  0.24117  1.0000
  H   H16       1.0  0.94475  0.47067  0.25921  1.0000
  H   H17       1.0  0.15527  0.90262  0.70956  1.0000
  H   H18       1.0  0.76810  0.59731  0.79021  1.0000
  H   H19       1.0  0.84478  0.09740  0.29046  1.0000
  H   H20       1.0  0.23187  0.40268  0.20978  1.0000
  H   H21       1.0  0.54902  0.85092  0.89341  1.0000
  H   H22       1.0  0.29405  0.64915  0.60638  1.0000
  H   H23       1.0  0.45102  0.14907  0.10660  1.0000
  H   H24       1.0  0.70593  0.35085  0.39361  1.0000
  H   H25       1.0  0.69983  0.65412  0.00115  1.0000
  H   H26       1.0  0.35546  0.84605  0.49874  1.0000
  H   H27       1.0  0.30020  0.34586  0.99888  1.0000
  H   H28       1.0  0.64452  0.15395  0.50125  1.0000
  H   H29       1.0  0.16457  0.50567  0.92139  1.0000
  H   H30       1.0  0.59092  0.99412  0.57831  1.0000
  H   H31       1.0  0.83544  0.49432  0.07861  1.0000
  H   H32       1.0  0.40905  0.00589  0.42170  1.0000
  H   H33       1.0  0.01083  0.70640  0.81688  1.0000
  H   H34       1.0  0.53379  0.79323  0.68268  1.0000
  H   H35       1.0  0.98921  0.29361  0.18312  1.0000
  H   H36       1.0  0.46619  0.20677  0.31732  1.0000
  C   C1        1.0  0.65955  0.06704  0.89832  1.0000
  C   C2        1.0  0.62501  0.43316  0.60158  1.0000
  C   C3        1.0  0.34043  0.93297  0.10168  1.0000
  C   C4        1.0  0.37498  0.56684  0.39842  1.0000
  C   C5        1.0  0.87534  0.98322  0.90289  1.0000
  C   C6        1.0  0.76167  0.51687  0.59696  1.0000
  C   C7        1.0  0.12467  0.01679  0.09712  1.0000
  C   C8        1.0  0.23831  0.48313  0.40303  1.0000
  C   C9        1.0  0.78313  0.05683  0.75430  1.0000
  C   C10       1.0  0.59491  0.44308  0.74565  1.0000
  C   C11       1.0  0.21688  0.94317  0.24571  1.0000
  C   C12       1.0  0.40508  0.55692  0.25435  1.0000
  C   C13       1.0  0.18556  0.91293  0.77637  1.0000
  C   C14       1.0  0.87548  0.58696  0.72335  1.0000
  C   C15       1.0  0.81460  0.08702  0.22363  1.0000
  C   C16       1.0  0.12454  0.41307  0.27665  1.0000
  C   C17       1.0  0.27099  0.79249  0.84612  1.0000
  C   C18       1.0  0.90984  0.70748  0.65356  1.0000
  C   C19       1.0  0.72899  0.20754  0.15387  1.0000
  C   C20       1.0  0.09013  0.29251  0.34644  1.0000
  C   C21       1.0  0.46379  0.77512  0.89966  1.0000
  C   C22       1.0  0.13895  0.72490  0.60011  1.0000
  C   C23       1.0  0.53619  0.22489  0.10033  1.0000
  C   C24       1.0  0.86101  0.27510  0.39989  1.0000
  C   C25       1.0  0.55087  0.66184  0.96053  1.0000
  C   C26       1.0  0.17341  0.83825  0.53932  1.0000
  C   C27       1.0  0.44911  0.33816  0.03948  1.0000
  C   C28       1.0  0.82654  0.16175  0.46069  1.0000
  C   C29       1.0  0.45051  0.56084  0.96921  1.0000
  C   C30       1.0  0.98032  0.93913  0.53069  1.0000
  C   C31       1.0  0.54951  0.43913  0.03081  1.0000
  C   C32       1.0  0.01964  0.06090  0.46930  1.0000
  C   C33       1.0  0.25183  0.58010  0.91670  1.0000
  C   C34       1.0  0.74804  0.91974  0.58301  1.0000
  C   C35       1.0  0.74816  0.41991  0.08330  1.0000
  C   C36       1.0  0.25191  0.08026  0.41700  1.0000
  C   C37       1.0  0.16415  0.69362  0.85684  1.0000
  C   C38       1.0  0.71430  0.80620  0.64276  1.0000
  C   C39       1.0  0.83587  0.30641  0.14315  1.0000
  C   C40       1.0  0.28567  0.19379  0.35725  1.0000
  N   N1        1.0  0.60342  0.11127  0.80561  1.0000
  N   N2        1.0  0.52060  0.38883  0.69434  1.0000
  N   N3        1.0  0.39656  0.88873  0.19440  1.0000
  N   N4        1.0  0.47939  0.61115  0.30565  1.0000
  N   N5        1.0  0.95035  0.97813  0.81098  1.0000
  N   N6        1.0  0.74009  0.52174  0.68889  1.0000
  N   N7        1.0  0.04972  0.02186  0.18903  1.0000
  N   N8        1.0  0.25990  0.47826  0.31110  1.0000
  Cl  Cl1       1.0  0.07076  0.28512  0.87516  1.0000
  Cl  Cl2       1.0  0.23044  0.21534  0.62494  1.0000
  Cl  Cl3       1.0  0.92926  0.71487  0.12483  1.0000
  Cl  Cl4       1.0  0.76955  0.78465  0.37506  1.0000
