data_image0
_chemical_formula_structural       CdH18C20N12O2
_chemical_formula_sum              "Cd1 H18 C20 N12 O2"
_cell_length_a       7.64915
_cell_length_b       8.00703
_cell_length_c       8.96134
_cell_angle_alpha    102.263
_cell_angle_beta     95.3381
_cell_angle_gamma    107.668

_space_group_name_H-M_alt    "P 1"
_space_group_IT_number       1

loop_
  _space_group_symop_operation_xyz
  'x, y, z'

loop_
  _atom_site_type_symbol
  _atom_site_label
  _atom_site_symmetry_multiplicity
  _atom_site_fract_x
  _atom_site_fract_y
  _atom_site_fract_z
  _atom_site_occupancy
  Cd  Cd1       1.0  1.00000  1.00000  1.00000  1.0000
  H   H1        1.0  0.93922  0.04171  0.64596  1.0000
  H   H2        1.0  0.06078  0.95830  0.35404  1.0000
  H   H3        1.0  0.66779  0.75618  0.12252  1.0000
  H   H4        1.0  0.33221  0.24382  0.87748  1.0000
  H   H5        1.0  0.77250  0.62834  0.04373  1.0000
  H   H6        1.0  0.22750  0.37166  0.95627  1.0000
  H   H7        1.0  0.38955  0.22259  0.11596  1.0000
  H   H8        1.0  0.61045  0.77741  0.88404  1.0000
  H   H9        1.0  0.64993  0.97925  0.41486  1.0000
  H   H10       1.0  0.35007  0.02074  0.58514  1.0000
  H   H11       1.0  0.78131  0.75989  0.37936  1.0000
  H   H12       1.0  0.21869  0.24012  0.62064  1.0000
  H   H13       1.0  0.87918  0.54900  0.76436  1.0000
  H   H14       1.0  0.12082  0.45100  0.23564  1.0000
  H   H15       1.0  0.83177  0.28316  0.58170  1.0000
  H   H16       1.0  0.16824  0.71684  0.41830  1.0000
  H   H17       1.0  0.55911  0.52319  0.28494  1.0000
  H   H18       1.0  0.44089  0.47681  0.71506  1.0000
  C   C1        1.0  0.90215  0.89676  0.62957  1.0000
  C   C2        1.0  0.09785  0.10324  0.37043  1.0000
  C   C3        1.0  0.87552  0.64516  0.69637  1.0000
  C   C4        1.0  0.12448  0.35484  0.30363  1.0000
  C   C5        1.0  0.82107  0.75963  0.49847  1.0000
  C   C6        1.0  0.17893  0.24037  0.50154  1.0000
  C   C7        1.0  0.70779  0.42350  0.44471  1.0000
  C   C8        1.0  0.29221  0.57650  0.55529  1.0000
  C   C9        1.0  0.39232  0.90008  0.15668  1.0000
  C   C10       1.0  0.60768  0.09992  0.84332  1.0000
  C   C11       1.0  0.50648  0.07872  0.25314  1.0000
  C   C12       1.0  0.49352  0.92128  0.74686  1.0000
  C   C13       1.0  0.48546  0.23461  0.21810  1.0000
  C   C14       1.0  0.51453  0.76539  0.78190  1.0000
  C   C15       1.0  0.63314  0.09885  0.38492  1.0000
  C   C16       1.0  0.36686  0.90115  0.61507  1.0000
  C   C17       1.0  0.73362  0.26978  0.48017  1.0000
  C   C18       1.0  0.26638  0.73021  0.51983  1.0000
  C   C19       1.0  0.58325  0.40534  0.31302  1.0000
  C   C20       1.0  0.41675  0.59466  0.68698  1.0000
  N   N1        1.0  0.93528  0.82399  0.75128  1.0000
  N   N2        1.0  0.06473  0.17601  0.24872  1.0000
  N   N3        1.0  0.80353  0.59963  0.54199  1.0000
  N   N4        1.0  0.19647  0.40037  0.45801  1.0000
  N   N5        1.0  0.22663  0.86389  0.06596  1.0000
  N   N6        1.0  0.77336  0.13611  0.93404  1.0000
  N   N7        1.0  0.16518  0.68458  0.00031  1.0000
  N   N8        1.0  0.83482  0.31542  0.99969  1.0000
  N   N9        1.0  0.28810  0.61469  0.04823  1.0000
  N   N10       1.0  0.71190  0.38531  0.95177  1.0000
  N   N11       1.0  0.43330  0.74621  0.14687  1.0000
  N   N12       1.0  0.56670  0.25378  0.85313  1.0000
  O   O1        1.0  0.79352  0.75665  0.10025  1.0000
  O   O2        1.0  0.20647  0.24334  0.89975  1.0000
