data_image0
_chemical_formula_structural       Zn4H48C32O32
_chemical_formula_sum              "Zn4 H48 C32 O32"
_cell_length_a       8.05455
_cell_length_b       9.94969
_cell_length_c       13.908
_cell_angle_alpha    93.6073
_cell_angle_beta     90
_cell_angle_gamma    89.9999

_space_group_name_H-M_alt    "P 1"
_space_group_IT_number       1

loop_
  _space_group_symop_operation_xyz
  'x, y, z'

loop_
  _atom_site_type_symbol
  _atom_site_label
  _atom_site_symmetry_multiplicity
  _atom_site_fract_x
  _atom_site_fract_y
  _atom_site_fract_z
  _atom_site_occupancy
  Zn  Zn1       1.0  0.83727  0.24315  0.79993  1.0000
  Zn  Zn2       1.0  0.33727  0.25685  0.70007  1.0000
  Zn  Zn3       1.0  0.16273  0.75685  0.20007  1.0000
  Zn  Zn4       1.0  0.66273  0.74315  0.29993  1.0000
  H   H1        1.0  0.12245  0.22543  0.88880  1.0000
  H   H2        1.0  0.62245  0.27457  0.61120  1.0000
  H   H3        1.0  0.87755  0.77457  0.11120  1.0000
  H   H4        1.0  0.37754  0.72543  0.38880  1.0000
  H   H5        1.0  0.98221  0.19941  0.97009  1.0000
  H   H6        1.0  0.48222  0.30060  0.52991  1.0000
  H   H7        1.0  0.01779  0.80059  0.02992  1.0000
  H   H8        1.0  0.51778  0.69940  0.47009  1.0000
  H   H9        1.0  0.00621  0.40389  0.30290  1.0000
  H   H10       1.0  0.50620  0.09611  0.19709  1.0000
  H   H11       1.0  0.99379  0.59611  0.69709  1.0000
  H   H12       1.0  0.49379  0.90389  0.80291  1.0000
  H   H13       1.0  0.78482  0.34785  0.44264  1.0000
  H   H14       1.0  0.28480  0.15214  0.05736  1.0000
  H   H15       1.0  0.21519  0.65215  0.55736  1.0000
  H   H16       1.0  0.71519  0.84786  0.94264  1.0000
  H   H17       1.0  0.76124  0.50107  0.77215  1.0000
  H   H18       1.0  0.26124  0.99894  0.72785  1.0000
  H   H19       1.0  0.23876  0.49893  0.22785  1.0000
  H   H20       1.0  0.73876  0.00106  0.27215  1.0000
  H   H21       1.0  0.66683  0.51313  0.93086  1.0000
  H   H22       1.0  0.16683  0.98687  0.56914  1.0000
  H   H23       1.0  0.33317  0.48686  0.06914  1.0000
  H   H24       1.0  0.83318  0.01314  0.43086  1.0000
  H   H25       1.0  0.84105  0.62362  0.91923  1.0000
  H   H26       1.0  0.34105  0.87638  0.58077  1.0000
  H   H27       1.0  0.15895  0.37638  0.08077  1.0000
  H   H28       1.0  0.65896  0.12362  0.41923  1.0000
  H   H29       1.0  0.87000  0.46185  0.96621  1.0000
  H   H30       1.0  0.36999  0.03815  0.53379  1.0000
  H   H31       1.0  0.13001  0.53815  0.03379  1.0000
  H   H32       1.0  0.63001  0.96186  0.46622  1.0000
  H   H33       1.0  0.94867  0.99073  0.78103  1.0000
  H   H34       1.0  0.44867  0.50927  0.71897  1.0000
  H   H35       1.0  0.05133  0.00926  0.21897  1.0000
  H   H36       1.0  0.55134  0.49074  0.28103  1.0000
  H   H37       1.0  0.64165  0.01978  0.67507  1.0000
  H   H38       1.0  0.14165  0.48022  0.82494  1.0000
  H   H39       1.0  0.35835  0.98022  0.32493  1.0000
  H   H40       1.0  0.85835  0.51977  0.17506  1.0000
  H   H41       1.0  0.74751  0.86543  0.69391  1.0000
  H   H42       1.0  0.24752  0.63457  0.80610  1.0000
  H   H43       1.0  0.25248  0.13457  0.30609  1.0000
  H   H44       1.0  0.75248  0.36543  0.19391  1.0000
  H   H45       1.0  0.84043  0.98664  0.62080  1.0000
  H   H46       1.0  0.34044  0.51336  0.87920  1.0000
  H   H47       1.0  0.15956  0.01335  0.37920  1.0000
  H   H48       1.0  0.65956  0.48664  0.12080  1.0000
  C   C1        1.0  0.97193  0.28169  0.62498  1.0000
  C   C2        1.0  0.47193  0.21831  0.87501  1.0000
  C   C3        1.0  0.02807  0.71831  0.37501  1.0000
  C   C4        1.0  0.52807  0.78169  0.12499  1.0000
  C   C5        1.0  0.01280  0.31267  0.52645  1.0000
  C   C6        1.0  0.51280  0.18733  0.97354  1.0000
  C   C7        1.0  0.98720  0.68733  0.47354  1.0000
  C   C8        1.0  0.48720  0.81267  0.02646  1.0000
  C   C9        1.0  0.19113  0.36025  0.41292  1.0000
  C   C10       1.0  0.69112  0.13975  0.08708  1.0000
  C   C11       1.0  0.80887  0.63975  0.58707  1.0000
  C   C12       1.0  0.30887  0.86025  0.91293  1.0000
  C   C13       1.0  0.03434  0.37416  0.37476  1.0000
  C   C14       1.0  0.53433  0.12584  0.12524  1.0000
  C   C15       1.0  0.96566  0.62584  0.62524  1.0000
  C   C16       1.0  0.46566  0.87416  0.87476  1.0000
  C   C17       1.0  0.91942  0.34392  0.44760  1.0000
  C   C18       1.0  0.41941  0.15608  0.05240  1.0000
  C   C19       1.0  0.08058  0.65608  0.55240  1.0000
  C   C20       1.0  0.58058  0.84392  0.94760  1.0000
  C   C21       1.0  0.36136  0.37922  0.37543  1.0000
  C   C22       1.0  0.86135  0.12078  0.12457  1.0000
  C   C23       1.0  0.63864  0.62078  0.62457  1.0000
  C   C24       1.0  0.13864  0.87922  0.87543  1.0000
  C   C25       1.0  0.80041  0.51804  0.91430  1.0000
  C   C26       1.0  0.30040  0.98196  0.58570  1.0000
  C   C27       1.0  0.19959  0.48195  0.08570  1.0000
  C   C28       1.0  0.69960  0.01805  0.41430  1.0000
  C   C29       1.0  0.76334  0.97355  0.68499  1.0000
  C   C30       1.0  0.26334  0.52645  0.81501  1.0000
  C   C31       1.0  0.23666  0.02645  0.31501  1.0000
  C   C32       1.0  0.73666  0.47355  0.18499  1.0000
  O   O1        1.0  0.81944  0.27968  0.65066  1.0000
  O   O2        1.0  0.31944  0.22032  0.84933  1.0000
  O   O3        1.0  0.18056  0.72032  0.34933  1.0000
  O   O4        1.0  0.68056  0.77969  0.15067  1.0000
  O   O5        1.0  0.08527  0.25851  0.68577  1.0000
  O   O6        1.0  0.58527  0.24149  0.81423  1.0000
  O   O7        1.0  0.91473  0.74149  0.31423  1.0000
  O   O8        1.0  0.41473  0.75851  0.18577  1.0000
  O   O9        1.0  0.37283  0.42678  0.29197  1.0000
  O   O10       1.0  0.87283  0.07322  0.20803  1.0000
  O   O11       1.0  0.62717  0.57322  0.70803  1.0000
  O   O12       1.0  0.12717  0.92678  0.79197  1.0000
  O   O13       1.0  0.48455  0.34843  0.42548  1.0000
  O   O14       1.0  0.98455  0.15157  0.07452  1.0000
  O   O15       1.0  0.51544  0.65157  0.57452  1.0000
  O   O16       1.0  0.01545  0.84843  0.92548  1.0000
  O   O17       1.0  0.00380  0.23922  0.90569  1.0000
  O   O18       1.0  0.50380  0.26079  0.59431  1.0000
  O   O19       1.0  0.99620  0.76077  0.09431  1.0000
  O   O20       1.0  0.49619  0.73922  0.40569  1.0000
  O   O21       1.0  0.17880  0.32139  0.50535  1.0000
  O   O22       1.0  0.67879  0.17862  0.99465  1.0000
  O   O23       1.0  0.82120  0.67861  0.49464  1.0000
  O   O24       1.0  0.32121  0.82139  0.00536  1.0000
  O   O25       1.0  0.83523  0.45728  0.81996  1.0000
  O   O26       1.0  0.33523  0.04272  0.68004  1.0000
  O   O27       1.0  0.16477  0.54272  0.18004  1.0000
  O   O28       1.0  0.66477  0.95728  0.31997  1.0000
  O   O29       1.0  0.83756  0.03594  0.77019  1.0000
  O   O30       1.0  0.33756  0.46406  0.72981  1.0000
  O   O31       1.0  0.16244  0.96405  0.22981  1.0000
  O   O32       1.0  0.66245  0.53594  0.27019  1.0000
