data_image0
_chemical_formula_structural       ZnH30C32N4O4
_chemical_formula_sum              "Zn1 H30 C32 N4 O4"
_cell_length_a       8.48803
_cell_length_b       9.00062
_cell_length_c       10.4076
_cell_angle_alpha    80.1296
_cell_angle_beta     74.8541
_cell_angle_gamma    64.2508

_space_group_name_H-M_alt    "P 1"
_space_group_IT_number       1

loop_
  _space_group_symop_operation_xyz
  'x, y, z'

loop_
  _atom_site_type_symbol
  _atom_site_label
  _atom_site_symmetry_multiplicity
  _atom_site_fract_x
  _atom_site_fract_y
  _atom_site_fract_z
  _atom_site_occupancy
  Zn  Zn1       1.0  0.50000  0.50000  0.50000  1.0000
  H   H1        1.0  0.81509  0.99862  0.31115  1.0000
  H   H2        1.0  0.18491  0.00138  0.68885  1.0000
  H   H3        1.0  0.84616  0.86804  0.46040  1.0000
  H   H4        1.0  0.15384  0.13196  0.53960  1.0000
  H   H5        1.0  0.98009  0.98337  0.39202  1.0000
  H   H6        1.0  0.01991  0.01663  0.60798  1.0000
  H   H7        1.0  0.62583  0.97330  0.63864  1.0000
  H   H8        1.0  0.37417  0.02670  0.36136  1.0000
  H   H9        1.0  0.35439  0.21887  0.89824  1.0000
  H   H10       1.0  0.64561  0.78113  0.10176  1.0000
  H   H11       1.0  0.41339  0.02740  0.83184  1.0000
  H   H12       1.0  0.58661  0.97259  0.16816  1.0000
  H   H13       1.0  0.21321  0.20223  0.81000  1.0000
  H   H14       1.0  0.78679  0.79776  0.19000  1.0000
  H   H15       1.0  0.56872  0.29735  0.25863  1.0000
  H   H16       1.0  0.43128  0.70265  0.74137  1.0000
  H   H17       1.0  0.38644  0.22402  0.14441  1.0000
  H   H18       1.0  0.61356  0.77598  0.85559  1.0000
  H   H19       1.0  0.91408  0.59784  0.35860  1.0000
  H   H20       1.0  0.08593  0.40216  0.64140  1.0000
  H   H21       1.0  0.11738  0.65842  0.46128  1.0000
  H   H22       1.0  0.88262  0.34158  0.53872  1.0000
  H   H23       1.0  0.87421  0.42413  0.22821  1.0000
  H   H24       1.0  0.12579  0.57588  0.77179  1.0000
  H   H25       1.0  0.78710  0.44013  0.03494  1.0000
  H   H26       1.0  0.21290  0.55987  0.96506  1.0000
  H   H27       1.0  0.62033  0.35804  0.91685  1.0000
  H   H28       1.0  0.37967  0.64196  0.08315  1.0000
  H   H29       1.0  0.72588  0.06386  0.87114  1.0000
  H   H30       1.0  0.27412  0.93614  0.12886  1.0000
  C   C1        1.0  0.84574  0.98543  0.40991  1.0000
  C   C2        1.0  0.15426  0.01457  0.59009  1.0000
  C   C3        1.0  0.70920  0.13187  0.48760  1.0000
  C   C4        1.0  0.29080  0.86813  0.51240  1.0000
  C   C5        1.0  0.59761  0.10225  0.60619  1.0000
  C   C6        1.0  0.40239  0.89775  0.39381  1.0000
  C   C7        1.0  0.45053  0.22105  0.68558  1.0000
  C   C8        1.0  0.54947  0.77895  0.31442  1.0000
  C   C9        1.0  0.35448  0.16188  0.81286  1.0000
  C   C10       1.0  0.64552  0.83812  0.18714  1.0000
  C   C11       1.0  0.42316  0.36034  0.27742  1.0000
  C   C12       1.0  0.57684  0.63966  0.72257  1.0000
  C   C13       1.0  0.32249  0.32013  0.21509  1.0000
  C   C14       1.0  0.67751  0.67987  0.78491  1.0000
  C   C15       1.0  0.13484  0.40205  0.24654  1.0000
  C   C16       1.0  0.86516  0.59794  0.75347  1.0000
  C   C17       1.0  0.05886  0.52969  0.33343  1.0000
  C   C18       1.0  0.94115  0.47030  0.66658  1.0000
  C   C19       1.0  0.17009  0.56293  0.39074  1.0000
  C   C20       1.0  0.82991  0.43706  0.60926  1.0000
  C   C21       1.0  0.01962  0.35527  0.19441  1.0000
  C   C22       1.0  0.98038  0.64473  0.80559  1.0000
  C   C23       1.0  0.98475  0.19337  0.06019  1.0000
  C   C24       1.0  0.01525  0.80663  0.93981  1.0000
  C   C25       1.0  0.04864  0.02281  0.03399  1.0000
  C   C26       1.0  0.95136  0.97719  0.96600  1.0000
  C   C27       1.0  0.83125  0.31032  0.01850  1.0000
  C   C28       1.0  0.16875  0.68968  0.98150  1.0000
  C   C29       1.0  0.73807  0.26357  0.95084  1.0000
  C   C30       1.0  0.26192  0.73643  0.04916  1.0000
  C   C31       1.0  0.79637  0.10039  0.92475  1.0000
  C   C32       1.0  0.20363  0.89961  0.07526  1.0000
  N   N1        1.0  0.09018  0.23519  0.11707  1.0000
  N   N2        1.0  0.90982  0.76481  0.88293  1.0000
  N   N3        1.0  0.34819  0.47717  0.36685  1.0000
  N   N4        1.0  0.65181  0.52283  0.63315  1.0000
  O   O1        1.0  0.70586  0.27326  0.43738  1.0000
  O   O2        1.0  0.29414  0.72674  0.56261  1.0000
  O   O3        1.0  0.38648  0.37789  0.65947  1.0000
  O   O4        1.0  0.61352  0.62211  0.34053  1.0000
