data_image0
_chemical_formula_structural       CoH30C32N4O4
_chemical_formula_sum              "Co1 H30 C32 N4 O4"
_cell_length_a       8.57905
_cell_length_b       8.81693
_cell_length_c       10.3436
_cell_angle_alpha    79.2248
_cell_angle_beta     74.7364
_cell_angle_gamma    64.683

_space_group_name_H-M_alt    "P 1"
_space_group_IT_number       1

loop_
  _space_group_symop_operation_xyz
  'x, y, z'

loop_
  _atom_site_type_symbol
  _atom_site_label
  _atom_site_symmetry_multiplicity
  _atom_site_fract_x
  _atom_site_fract_y
  _atom_site_fract_z
  _atom_site_occupancy
  Co  Co1       1.0  1.00000  0.50000  0.50000  1.0000
  H   H1        1.0  0.89365  0.22986  0.14232  1.0000
  H   H2        1.0  0.10636  0.77013  0.85768  1.0000
  H   H3        1.0  0.42491  0.59373  0.36423  1.0000
  H   H4        1.0  0.57508  0.40626  0.63577  1.0000
  H   H5        1.0  0.62142  0.66142  0.46494  1.0000
  H   H6        1.0  0.37857  0.33858  0.53506  1.0000
  H   H7        1.0  0.38706  0.42364  0.22950  1.0000
  H   H8        1.0  0.61294  0.57635  0.77050  1.0000
  H   H9        1.0  0.77547  0.92857  0.12651  1.0000
  H   H10       1.0  0.22453  0.07142  0.87349  1.0000
  H   H11       1.0  0.29447  0.44554  0.04099  1.0000
  H   H12       1.0  0.70553  0.55445  0.95901  1.0000
  H   H13       1.0  0.07031  0.31617  0.24947  1.0000
  H   H14       1.0  0.92969  0.68383  0.75053  1.0000
  H   H15       1.0  0.87595  0.63208  0.07575  1.0000
  H   H16       1.0  0.12406  0.36791  0.92425  1.0000
  H   H17       1.0  0.87819  0.02119  0.35772  1.0000
  H   H18       1.0  0.12181  0.97882  0.64228  1.0000
  H   H19       1.0  0.29549  0.77488  0.18982  1.0000
  H   H20       1.0  0.70451  0.22513  0.81018  1.0000
  H   H21       1.0  0.10331  0.95936  0.16839  1.0000
  H   H22       1.0  0.89669  0.04065  0.83161  1.0000
  H   H23       1.0  0.14656  0.76820  0.10471  1.0000
  H   H24       1.0  0.85344  0.23181  0.89529  1.0000
  H   H25       1.0  0.53341  0.97942  0.61809  1.0000
  H   H26       1.0  0.46659  0.02059  0.38191  1.0000
  H   H27       1.0  0.64015  0.11793  0.53406  1.0000
  H   H28       1.0  0.35985  0.88208  0.46594  1.0000
  H   H29       1.0  0.69488  0.99359  0.68524  1.0000
  H   H30       1.0  0.30512  0.00642  0.31476  1.0000
  C   C1        1.0  0.64319  0.40133  0.24837  1.0000
  C   C2        1.0  0.35681  0.59866  0.75163  1.0000
  C   C3        1.0  0.82879  0.32444  0.21495  1.0000
  C   C4        1.0  0.17121  0.67556  0.78505  1.0000
  C   C5        1.0  0.48964  0.19335  0.06250  1.0000
  C   C6        1.0  0.51036  0.80664  0.93750  1.0000
  C   C7        1.0  0.54974  0.02137  0.03393  1.0000
  C   C8        1.0  0.45026  0.97862  0.96606  1.0000
  C   C9        1.0  0.56762  0.52830  0.33734  1.0000
  C   C10       1.0  0.43238  0.47169  0.66266  1.0000
  C   C11       1.0  0.67550  0.56688  0.39282  1.0000
  C   C12       1.0  0.32450  0.43312  0.60718  1.0000
  C   C13       1.0  0.53016  0.35398  0.19620  1.0000
  C   C14       1.0  0.46984  0.64601  0.80380  1.0000
  C   C15       1.0  0.80092  0.85368  0.51190  1.0000
  C   C16       1.0  0.19908  0.14633  0.48810  1.0000
  C   C17       1.0  0.70371  0.89414  0.07262  1.0000
  C   C18       1.0  0.29629  0.10586  0.92738  1.0000
  C   C19       1.0  0.33650  0.31429  0.02341  1.0000
  C   C20       1.0  0.66351  0.68571  0.97660  1.0000
  C   C21       1.0  0.92675  0.37193  0.27367  1.0000
  C   C22       1.0  0.07325  0.62807  0.72634  1.0000
  C   C23       1.0  0.05604  0.76799  0.31907  1.0000
  C   C24       1.0  0.94396  0.23202  0.68093  1.0000
  C   C25       1.0  0.75897  0.72987  0.04378  1.0000
  C   C26       1.0  0.24104  0.27013  0.95623  1.0000
  C   C27       1.0  0.90898  0.88948  0.39355  1.0000
  C   C28       1.0  0.09102  0.11052  0.60645  1.0000
  C   C29       1.0  0.15471  0.82229  0.18904  1.0000
  C   C30       1.0  0.84529  0.17772  0.81096  1.0000
  C   C31       1.0  0.65843  0.99545  0.59044  1.0000
  C   C32       1.0  0.34157  0.00456  0.40956  1.0000
  N   N1        1.0  0.85240  0.48949  0.36389  1.0000
  N   N2        1.0  0.14760  0.51051  0.63611  1.0000
  N   N3        1.0  0.59691  0.23180  0.11932  1.0000
  N   N4        1.0  0.40309  0.76820  0.88068  1.0000
  O   O1        1.0  0.81368  0.70497  0.56347  1.0000
  O   O2        1.0  0.18632  0.29504  0.43653  1.0000
  O   O3        1.0  0.11706  0.60834  0.35235  1.0000
  O   O4        1.0  0.88294  0.39167  0.64765  1.0000
