data_image0
_chemical_formula_structural       Cd2H36C52S4N12O8
_chemical_formula_sum              "Cd2 H36 C52 S4 N12 O8"
_cell_length_a       10.0348
_cell_length_b       11.5979
_cell_length_c       11.7676
_cell_angle_alpha    65.3137
_cell_angle_beta     77.4666
_cell_angle_gamma    77.0762

_space_group_name_H-M_alt    "P 1"
_space_group_IT_number       1

loop_
  _space_group_symop_operation_xyz
  'x, y, z'

loop_
  _atom_site_type_symbol
  _atom_site_label
  _atom_site_symmetry_multiplicity
  _atom_site_fract_x
  _atom_site_fract_y
  _atom_site_fract_z
  _atom_site_occupancy
  Cd  Cd1       1.0  0.30170  0.70439  0.09565  1.0000
  Cd  Cd2       1.0  0.69830  0.29561  0.90435  1.0000
  H   H1        1.0  0.43144  0.09484  0.06378  1.0000
  H   H2        1.0  0.56856  0.90516  0.93622  1.0000
  H   H3        1.0  0.46564  0.92579  0.11225  1.0000
  H   H4        1.0  0.53436  0.07421  0.88775  1.0000
  H   H5        1.0  0.41161  0.41170  0.14755  1.0000
  H   H6        1.0  0.58839  0.58830  0.85245  1.0000
  H   H7        1.0  0.34850  0.26313  0.20842  1.0000
  H   H8        1.0  0.65150  0.73687  0.79158  1.0000
  H   H9        1.0  0.13471  0.99143  0.03324  1.0000
  H   H10       1.0  0.86529  0.00857  0.96676  1.0000
  H   H11       1.0  0.01565  0.14308  0.13916  1.0000
  H   H12       1.0  0.98435  0.85692  0.86084  1.0000
  H   H13       1.0  0.96783  0.05601  0.37614  1.0000
  H   H14       1.0  0.03217  0.94399  0.62386  1.0000
  H   H15       1.0  0.03735  0.82168  0.49630  1.0000
  H   H16       1.0  0.96265  0.17831  0.50370  1.0000
  H   H17       1.0  0.02594  0.62081  0.56531  1.0000
  H   H18       1.0  0.97406  0.37919  0.43470  1.0000
  H   H19       1.0  0.13348  0.39441  0.67532  1.0000
  H   H20       1.0  0.86652  0.60559  0.32468  1.0000
  H   H21       1.0  0.34490  0.30345  0.56448  1.0000
  H   H22       1.0  0.65510  0.69655  0.43552  1.0000
  H   H23       1.0  0.42996  0.43904  0.33926  1.0000
  H   H24       1.0  0.57003  0.56096  0.66074  1.0000
  H   H25       1.0  0.00367  0.78862  0.07572  1.0000
  H   H26       1.0  0.99633  0.21138  0.92428  1.0000
  H   H27       1.0  0.74952  0.82574  0.07309  1.0000
  H   H28       1.0  0.25048  0.17426  0.92691  1.0000
  H   H29       1.0  0.75243  0.42454  0.16592  1.0000
  H   H30       1.0  0.24757  0.57546  0.83408  1.0000
  H   H31       1.0  0.27062  0.20601  0.46093  1.0000
  H   H32       1.0  0.72938  0.79399  0.53907  1.0000
  H   H33       1.0  0.25355  0.09155  0.69664  1.0000
  H   H34       1.0  0.74644  0.90845  0.30336  1.0000
  H   H35       1.0  0.38144  0.72720  0.66299  1.0000
  H   H36       1.0  0.61857  0.27280  0.33701  1.0000
  C   C1        1.0  0.11042  0.95911  0.13570  1.0000
  C   C2        1.0  0.88958  0.04089  0.86430  1.0000
  C   C3        1.0  0.04452  0.04213  0.19531  1.0000
  C   C4        1.0  0.95548  0.95787  0.80469  1.0000
  C   C5        1.0  0.01821  0.99334  0.32657  1.0000
  C   C6        1.0  0.98179  0.00666  0.67343  1.0000
  C   C7        1.0  0.05590  0.86284  0.39355  1.0000
  C   C8        1.0  0.94410  0.13716  0.60645  1.0000
  C   C9        1.0  0.12223  0.78511  0.32725  1.0000
  C   C10       1.0  0.87777  0.21489  0.67275  1.0000
  C   C11       1.0  0.17347  0.64786  0.39502  1.0000
  C   C12       1.0  0.82653  0.35214  0.60498  1.0000
  C   C13       1.0  0.11630  0.57784  0.51838  1.0000
  C   C14       1.0  0.88370  0.42216  0.48162  1.0000
  C   C15       1.0  0.17628  0.45179  0.57984  1.0000
  C   C16       1.0  0.82372  0.54821  0.42016  1.0000
  C   C17       1.0  0.29238  0.40009  0.51762  1.0000
  C   C18       1.0  0.70762  0.59991  0.48238  1.0000
  C   C19       1.0  0.34079  0.47485  0.39355  1.0000
  C   C20       1.0  0.65920  0.52515  0.60645  1.0000
  C   C21       1.0  0.02247  0.58484  0.12516  1.0000
  C   C22       1.0  0.97753  0.41515  0.87484  1.0000
  C   C23       1.0  0.94919  0.70943  0.09586  1.0000
  C   C24       1.0  0.05081  0.29057  0.90414  1.0000
  C   C25       1.0  0.80751  0.72949  0.09441  1.0000
  C   C26       1.0  0.19249  0.27051  0.90559  1.0000
  C   C27       1.0  0.73671  0.62777  0.11926  1.0000
  C   C28       1.0  0.26329  0.37223  0.88074  1.0000
  C   C29       1.0  0.80838  0.50190  0.14979  1.0000
  C   C30       1.0  0.19162  0.49811  0.85021  1.0000
  C   C31       1.0  0.94930  0.48193  0.15464  1.0000
  C   C32       1.0  0.05070  0.51807  0.84536  1.0000
  C   C33       1.0  0.20153  0.42440  0.16439  1.0000
  C   C34       1.0  0.79847  0.57560  0.83561  1.0000
  C   C35       1.0  0.33575  0.03125  0.42810  1.0000
  C   C36       1.0  0.66425  0.96875  0.57190  1.0000
  C   C37       1.0  0.29430  0.10184  0.50486  1.0000
  C   C38       1.0  0.70570  0.89816  0.49514  1.0000
  C   C39       1.0  0.28561  0.03820  0.63547  1.0000
  C   C40       1.0  0.71439  0.96180  0.36453  1.0000
  C   C41       1.0  0.31656  0.90375  0.69312  1.0000
  C   C42       1.0  0.68344  0.09625  0.30687  1.0000
  C   C43       1.0  0.35673  0.83125  0.61771  1.0000
  C   C44       1.0  0.64327  0.16875  0.38228  1.0000
  C   C45       1.0  0.36593  0.89505  0.48727  1.0000
  C   C46       1.0  0.63407  0.10495  0.51272  1.0000
  C   C47       1.0  0.39702  0.98883  0.25455  1.0000
  C   C48       1.0  0.60298  0.01117  0.74545  1.0000
  C   C49       1.0  0.30773  0.83752  0.83391  1.0000
  C   C50       1.0  0.69227  0.16248  0.16609  1.0000
  C   C51       1.0  0.58569  0.65256  0.11198  1.0000
  C   C52       1.0  0.41432  0.34744  0.88802  1.0000
  S   S1        1.0  0.41863  0.83131  0.37184  1.0000
  S   S2        1.0  0.58137  0.16869  0.62816  1.0000
  S   S3        1.0  0.06401  0.33813  0.19466  1.0000
  S   S4        1.0  0.93599  0.66187  0.80533  1.0000
  N   N1        1.0  0.14995  0.83365  0.19996  1.0000
  N   N2        1.0  0.85005  0.16635  0.80004  1.0000
  N   N3        1.0  0.28160  0.59525  0.33290  1.0000
  N   N4        1.0  0.71840  0.40475  0.66710  1.0000
  N   N5        1.0  0.35289  0.08133  0.29764  1.0000
  N   N6        1.0  0.64711  0.91867  0.70236  1.0000
  N   N7        1.0  0.42449  0.00470  0.13322  1.0000
  N   N8        1.0  0.57552  0.99530  0.86678  1.0000
  N   N9        1.0  0.16247  0.55030  0.13072  1.0000
  N   N10       1.0  0.83753  0.44970  0.86928  1.0000
  N   N11       1.0  0.32970  0.36249  0.17597  1.0000
  N   N12       1.0  0.67030  0.63751  0.82402  1.0000
  O   O1        1.0  0.35428  0.71761  0.88097  1.0000
  O   O2        1.0  0.64572  0.28239  0.11903  1.0000
  O   O3        1.0  0.25415  0.90178  0.90255  1.0000
  O   O4        1.0  0.74585  0.09822  0.09745  1.0000
  O   O5        1.0  0.52379  0.56034  0.13274  1.0000
  O   O6        1.0  0.47621  0.43966  0.86726  1.0000
  O   O7        1.0  0.52157  0.76909  0.08358  1.0000
  O   O8        1.0  0.47843  0.23091  0.91642  1.0000
