data_image0
_chemical_formula_structural       Bi2H26C20N4O16
_chemical_formula_sum              "Bi2 H26 C20 N4 O16"
_cell_length_a       6.87303
_cell_length_b       8.97083
_cell_length_c       13.0278
_cell_angle_alpha    105.488
_cell_angle_beta     89.9843
_cell_angle_gamma    112.553

_space_group_name_H-M_alt    "P 1"
_space_group_IT_number       1

loop_
  _space_group_symop_operation_xyz
  'x, y, z'

loop_
  _atom_site_type_symbol
  _atom_site_label
  _atom_site_symmetry_multiplicity
  _atom_site_fract_x
  _atom_site_fract_y
  _atom_site_fract_z
  _atom_site_occupancy
  Bi  Bi1       1.0  0.88446  0.04591  0.00704  1.0000
  Bi  Bi2       1.0  0.16143  0.04629  0.50719  1.0000
  H   H1        1.0  0.71585  0.65579  0.05561  1.0000
  H   H2        1.0  0.94112  0.65607  0.55602  1.0000
  H   H3        1.0  0.35384  0.58235  0.78813  1.0000
  H   H4        1.0  0.22895  0.58300  0.28829  1.0000
  H   H5        1.0  0.62828  0.66191  0.77915  1.0000
  H   H6        1.0  0.03404  0.66235  0.27928  1.0000
  H   H7        1.0  0.93156  0.45052  0.88537  1.0000
  H   H8        1.0  0.51923  0.45098  0.38559  1.0000
  H   H9        1.0  0.73317  0.36797  0.96560  1.0000
  H   H10       1.0  0.63483  0.36852  0.46590  1.0000
  H   H11       1.0  0.21464  0.83087  0.88271  1.0000
  H   H12       1.0  0.61682  0.83207  0.38314  1.0000
  H   H13       1.0  0.30166  0.75559  0.97887  1.0000
  H   H14       1.0  0.45431  0.75670  0.47925  1.0000
  H   H15       1.0  0.95964  0.20640  0.72516  1.0000
  H   H16       1.0  0.24682  0.20684  0.22536  1.0000
  H   H17       1.0  0.15557  0.28929  0.83823  1.0000
  H   H18       1.0  0.13333  0.28914  0.33844  1.0000
  H   H19       1.0  0.38362  0.86251  0.73760  1.0000
  H   H20       1.0  0.47979  0.86336  0.23787  1.0000
  H   H21       1.0  0.64318  0.87094  0.72817  1.0000
  H   H22       1.0  0.22846  0.87135  0.22823  1.0000
  H   H23       1.0  0.51643  0.14502  0.87100  1.0000
  H   H24       1.0  0.62906  0.14598  0.37114  1.0000
  H   H25       1.0  0.61411  0.14582  0.74597  1.0000
  H   H26       1.0  0.53192  0.14647  0.24608  1.0000
  C   C1        1.0  0.50885  0.66680  0.83489  1.0000
  C   C2        1.0  0.15837  0.66741  0.33505  1.0000
  C   C3        1.0  0.54638  0.59182  0.92015  1.0000
  C   C4        1.0  0.04577  0.59226  0.42027  1.0000
  C   C5        1.0  0.88201  0.36519  0.93632  1.0000
  C   C6        1.0  0.48323  0.36562  0.43651  1.0000
  C   C7        1.0  0.04478  0.43746  0.03581  1.0000
  C   C8        1.0  0.39241  0.43781  0.53591  1.0000
  C   C9        1.0  0.35307  0.85321  0.93642  1.0000
  C   C10       1.0  0.50050  0.85426  0.43676  1.0000
  C   C11       1.0  0.40387  0.01876  0.02376  1.0000
  C   C12       1.0  0.61511  0.01999  0.52399  1.0000
  C   C13       1.0  0.00273  0.18660  0.80027  1.0000
  C   C14       1.0  0.18386  0.18675  0.30042  1.0000
  C   C15       1.0  0.04538  0.02666  0.77418  1.0000
  C   C16       1.0  0.98148  0.02646  0.27419  1.0000
  C   C17       1.0  0.54182  0.91352  0.78295  1.0000
  C   C18       1.0  0.37228  0.91416  0.28313  1.0000
  C   C19       1.0  0.62097  0.10407  0.81757  1.0000
  C   C20       1.0  0.48344  0.10471  0.31771  1.0000
  N   N1        1.0  0.53089  0.84285  0.87514  1.0000
  N   N2        1.0  0.31234  0.84352  0.37532  1.0000
  N   N3        1.0  0.84035  0.19026  0.87477  1.0000
  N   N4        1.0  0.35003  0.19066  0.37493  1.0000
  O   O1        1.0  0.69224  0.70799  0.00220  1.0000
  O   O2        1.0  0.01671  0.70843  0.50259  1.0000
  O   O3        1.0  0.46477  0.44246  0.91470  1.0000
  O   O4        1.0  0.97755  0.44286  0.41464  1.0000
  O   O5        1.0  0.08241  0.33212  0.07583  1.0000
  O   O6        1.0  0.24950  0.33237  0.57598  1.0000
  O   O7        1.0  0.12457  0.59353  0.07532  1.0000
  O   O8        1.0  0.46833  0.59389  0.57532  1.0000
  O   O9        1.0  0.59799  0.11469  0.06193  1.0000
  O   O10       1.0  0.51678  0.11576  0.56215  1.0000
  O   O11       1.0  0.25122  0.05227  0.05975  1.0000
  O   O12       1.0  0.80146  0.05388  0.55991  1.0000
  O   O13       1.0  0.99119  0.93419  0.83806  1.0000
  O   O14       1.0  0.94318  0.93406  0.33811  1.0000
  O   O15       1.0  0.14120  0.99527  0.69419  1.0000
  O   O16       1.0  0.85445  0.99469  0.19407  1.0000
