data_image0
_chemical_formula_structural       La2H60C48N6O26
_chemical_formula_sum              "La2 H60 C48 N6 O26"
_cell_length_a       9.32256
_cell_length_b       11.835
_cell_length_c       15.2571
_cell_angle_alpha    112.817
_cell_angle_beta     104.831
_cell_angle_gamma    89.9947

_space_group_name_H-M_alt    "P 1"
_space_group_IT_number       1

loop_
  _space_group_symop_operation_xyz
  'x, y, z'

loop_
  _atom_site_type_symbol
  _atom_site_label
  _atom_site_symmetry_multiplicity
  _atom_site_fract_x
  _atom_site_fract_y
  _atom_site_fract_z
  _atom_site_occupancy
  La  La1       1.0  0.92130  0.68731  0.21363  1.0000
  La  La2       1.0  0.42098  0.52635  0.21373  1.0000
  H   H1        1.0  0.54723  0.78256  0.53221  1.0000
  H   H2        1.0  0.04726  0.74997  0.53201  1.0000
  H   H3        1.0  0.13142  0.92481  0.45701  1.0000
  H   H4        1.0  0.63176  0.53218  0.45681  1.0000
  H   H5        1.0  0.74904  0.41015  0.88262  1.0000
  H   H6        1.0  0.24942  0.47203  0.88220  1.0000
  H   H7        1.0  0.41313  0.30166  0.98948  1.0000
  H   H8        1.0  0.91340  0.68713  0.98917  1.0000
  H   H9        1.0  0.49282  0.67913  0.05745  1.0000
  H   H10       1.0  0.99278  0.37842  0.05762  1.0000
  H   H11       1.0  0.82347  0.25301  0.64621  1.0000
  H   H12       1.0  0.32366  0.39271  0.64592  1.0000
  H   H13       1.0  0.88258  0.26539  0.77160  1.0000
  H   H14       1.0  0.38307  0.50551  0.77136  1.0000
  H   H15       1.0  0.79471  0.38736  0.74322  1.0000
  H   H16       1.0  0.29427  0.35546  0.74283  1.0000
  H   H17       1.0  0.86464  0.93593  0.74816  1.0000
  H   H18       1.0  0.36470  0.81270  0.74799  1.0000
  H   H19       1.0  0.79243  0.90971  0.62009  1.0000
  H   H20       1.0  0.29243  0.71073  0.61994  1.0000
  H   H21       1.0  0.73411  0.80439  0.66643  1.0000
  H   H22       1.0  0.23401  0.86237  0.66619  1.0000
  H   H23       1.0  0.02145  0.22015  0.58796  1.0000
  H   H24       1.0  0.52200  0.36804  0.58812  1.0000
  H   H25       1.0  0.98410  0.05479  0.54100  1.0000
  H   H26       1.0  0.48462  0.48642  0.54116  1.0000
  H   H27       1.0  0.08274  0.12247  0.48409  1.0000
  H   H28       1.0  0.58274  0.36158  0.48400  1.0000
  H   H29       1.0  0.13279  0.04043  0.86280  1.0000
  H   H30       1.0  0.63275  0.82165  0.86264  1.0000
  H   H31       1.0  0.16338  0.20530  0.90467  1.0000
  H   H32       1.0  0.66373  0.69845  0.90426  1.0000
  H   H33       1.0  0.29249  0.12661  0.96329  1.0000
  H   H34       1.0  0.79231  0.83606  0.96323  1.0000
  H   H35       1.0  0.70556  0.97235  0.13277  1.0000
  H   H36       1.0  0.20518  0.16043  0.13299  1.0000
  H   H37       1.0  0.54248  0.04740  0.15038  1.0000
  H   H38       1.0  0.04202  0.10310  0.15055  1.0000
  H   H39       1.0  0.58193  0.00039  0.03357  1.0000
  H   H40       1.0  0.08157  0.03320  0.03379  1.0000
  H   H41       1.0  0.30276  0.74370  0.98310  1.0000
  H   H42       1.0  0.80261  0.23949  0.98306  1.0000
  H   H43       1.0  0.33829  0.86098  0.94284  1.0000
  H   H44       1.0  0.83811  0.08195  0.94289  1.0000
  H   H45       1.0  0.28616  0.90059  0.05533  1.0000
  H   H46       1.0  0.78579  0.15488  0.05530  1.0000
  H   H47       1.0  0.15657  0.51550  0.34512  1.0000
  H   H48       1.0  0.65595  0.82947  0.34478  1.0000
  H   H49       1.0  0.78833  0.35007  0.25409  1.0000
  H   H50       1.0  0.28777  0.90416  0.25394  1.0000
  H   H51       1.0  0.80358  0.35823  0.37559  1.0000
  H   H52       1.0  0.30315  0.01743  0.37548  1.0000
  H   H53       1.0  0.86244  0.22847  0.28953  1.0000
  H   H54       1.0  0.36194  0.06115  0.28940  1.0000
  H   H55       1.0  0.21992  0.42761  0.44474  1.0000
  H   H56       1.0  0.71952  0.01699  0.44440  1.0000
  H   H57       1.0  0.12549  0.27849  0.40915  1.0000
  H   H58       1.0  0.62507  0.13055  0.40880  1.0000
  H   H59       1.0  0.07280  0.41188  0.49677  1.0000
  H   H60       1.0  0.57250  0.08487  0.49652  1.0000
  C   C1        1.0  0.47653  0.85615  0.55240  1.0000
  C   C2        1.0  0.97666  0.69651  0.55221  1.0000
  C   C3        1.0  0.42583  0.05363  0.66658  1.0000
  C   C4        1.0  0.92621  0.61309  0.66639  1.0000
  C   C5        1.0  0.28564  0.04103  0.59908  1.0000
  C   C6        1.0  0.78610  0.55804  0.59884  1.0000
  C   C7        1.0  0.28468  0.73562  0.39111  1.0000
  C   C8        1.0  0.78466  0.65583  0.39098  1.0000
  C   C9        1.0  0.33586  0.84582  0.48728  1.0000
  C   C10       1.0  0.83604  0.64167  0.48710  1.0000
  C   C11       1.0  0.52029  0.95994  0.64213  1.0000
  C   C12       1.0  0.02049  0.68251  0.64198  1.0000
  C   C13       1.0  0.23980  0.93717  0.50979  1.0000
  C   C14       1.0  0.74012  0.57269  0.50959  1.0000
  C   C15       1.0  0.40930  0.18429  0.83798  1.0000
  C   C16       1.0  0.90972  0.65351  0.83779  1.0000
  C   C17       1.0  0.47629  0.16329  0.76083  1.0000
  C   C18       1.0  0.97674  0.59758  0.76064  1.0000
  C   C19       1.0  0.59745  0.24680  0.77660  1.0000
  C   C20       1.0  0.09792  0.52980  0.77636  1.0000
  C   C21       1.0  0.65334  0.34624  0.86772  1.0000
  C   C22       1.0  0.15372  0.52108  0.86735  1.0000
  C   C23       1.0  0.58563  0.36396  0.94336  1.0000
  C   C24       1.0  0.08584  0.57868  0.94297  1.0000
  C   C25       1.0  0.46218  0.28517  0.92884  1.0000
  C   C26       1.0  0.96245  0.64312  0.92852  1.0000
  C   C27       1.0  0.65431  0.46520  0.04278  1.0000
  C   C28       1.0  0.15438  0.57670  0.04238  1.0000
  C   C29       1.0  0.56839  0.76500  0.08610  1.0000
  C   C30       1.0  0.06819  0.32115  0.08632  1.0000
  C   C31       1.0  0.79719  0.28714  0.71734  1.0000
  C   C32       1.0  0.29734  0.42983  0.71704  1.0000
  C   C33       1.0  0.76615  0.90159  0.68387  1.0000
  C   C34       1.0  0.26619  0.78268  0.68370  1.0000
  C   C35       1.0  0.06468  0.13206  0.55500  1.0000
  C   C36       1.0  0.56512  0.42302  0.55500  1.0000
  C   C37       1.0  0.21756  0.11990  0.89228  1.0000
  C   C38       1.0  0.71770  0.77176  0.89211  1.0000
  C   C39       1.0  0.58884  0.97601  0.09707  1.0000
  C   C40       1.0  0.08845  0.12110  0.09725  1.0000
  C   C41       1.0  0.34979  0.83935  0.00808  1.0000
  C   C42       1.0  0.84953  0.16884  0.00810  1.0000
  C   C43       1.0  0.04064  0.47101  0.31172  1.0000
  C   C44       1.0  0.54002  0.84064  0.31144  1.0000
  C   C45       1.0  0.85553  0.32806  0.31431  1.0000
  C   C46       1.0  0.35501  0.98632  0.31416  1.0000
  C   C47       1.0  0.11201  0.37682  0.42979  1.0000
  C   C48       1.0  0.61161  0.05291  0.42950  1.0000
  N   N1        1.0  0.50617  0.85534  0.06285  1.0000
  N   N2        1.0  0.00588  0.20756  0.06296  1.0000
  N   N3        1.0  0.98450  0.96336  0.26434  1.0000
  N   N4        1.0  0.48460  0.30100  0.26439  1.0000
  N   N5        1.0  0.00483  0.39316  0.34864  1.0000
  N   N6        1.0  0.50431  0.95543  0.34840  1.0000
  O   O1        1.0  0.16314  0.73712  0.33050  1.0000
  O   O2        1.0  0.66296  0.59391  0.33049  1.0000
  O   O3        1.0  0.70082  0.77570  0.13640  1.0000
  O   O4        1.0  0.20053  0.36068  0.13682  1.0000
  O   O5        1.0  0.65294  0.97793  0.71248  1.0000
  O   O6        1.0  0.15305  0.73500  0.71237  1.0000
  O   O7        1.0  0.36365  0.64565  0.37399  1.0000
  O   O8        1.0  0.86357  0.72865  0.37379  1.0000
  O   O9        1.0  0.20146  0.13650  0.62593  1.0000
  O   O10       1.0  0.70217  0.48926  0.62571  1.0000
  O   O11       1.0  0.29522  0.09770  0.81876  1.0000
  O   O12       1.0  0.79572  0.72103  0.81871  1.0000
  O   O13       1.0  0.58741  0.49104  0.10998  1.0000
  O   O14       1.0  0.08761  0.61828  0.10965  1.0000
  O   O15       1.0  0.78020  0.51995  0.05547  1.0000
  O   O16       1.0  0.28014  0.53442  0.05502  1.0000
  O   O17       1.0  0.65423  0.22356  0.69783  1.0000
  O   O18       1.0  0.15478  0.47450  0.69759  1.0000
  O   O19       1.0  0.01047  0.88061  0.18757  1.0000
  O   O20       1.0  0.51026  0.30690  0.18751  1.0000
  O   O21       1.0  0.95259  0.49290  0.24382  1.0000
  O   O22       1.0  0.45191  0.75090  0.24354  1.0000
  O   O23       1.0  0.92995  0.92714  0.31899  1.0000
  O   O24       1.0  0.43020  0.39194  0.31913  1.0000
  O   O25       1.0  0.01277  0.07531  0.28527  1.0000
  O   O26       1.0  0.51298  0.21000  0.28535  1.0000
