data_image0
_chemical_formula_structural       Ca2H26C32N6O12
_chemical_formula_sum              "Ca2 H26 C32 N6 O12"
_cell_length_a       6.77671
_cell_length_b       7.66497
_cell_length_c       15.6416
_cell_angle_alpha    79.7085
_cell_angle_beta     86.0829
_cell_angle_gamma    74.4757

_space_group_name_H-M_alt    "P 1"
_space_group_IT_number       1

loop_
  _space_group_symop_operation_xyz
  'x, y, z'

loop_
  _atom_site_type_symbol
  _atom_site_label
  _atom_site_symmetry_multiplicity
  _atom_site_fract_x
  _atom_site_fract_y
  _atom_site_fract_z
  _atom_site_occupancy
  Ca  Ca1       1.0  0.23440  0.59478  0.45027  1.0000
  Ca  Ca2       1.0  0.76559  0.40522  0.54973  1.0000
  H   H1        1.0  0.12991  0.96433  0.17559  1.0000
  H   H2        1.0  0.87008  0.03566  0.82441  1.0000
  H   H3        1.0  0.54906  0.29455  0.07331  1.0000
  H   H4        1.0  0.45094  0.70547  0.92669  1.0000
  H   H5        1.0  0.30568  0.09285  0.05104  1.0000
  H   H6        1.0  0.69431  0.90714  0.94895  1.0000
  H   H7        1.0  0.72579  0.42009  0.94389  1.0000
  H   H8        1.0  0.27421  0.57992  0.05611  1.0000
  H   H9        1.0  0.44586  0.16450  0.94379  1.0000
  H   H10       1.0  0.55414  0.83550  0.05621  1.0000
  H   H11       1.0  0.87775  0.53892  0.84368  1.0000
  H   H12       1.0  0.12226  0.46108  0.15632  1.0000
  H   H13       1.0  0.62238  0.30412  0.81854  1.0000
  H   H14       1.0  0.37763  0.69587  0.18146  1.0000
  H   H15       1.0  0.07861  0.66049  0.72425  1.0000
  H   H16       1.0  0.92140  0.33951  0.27575  1.0000
  H   H17       1.0  0.96311  0.87141  0.29094  1.0000
  H   H18       1.0  0.03688  0.12860  0.70906  1.0000
  H   H19       1.0  0.32695  0.76516  0.58692  1.0000
  H   H20       1.0  0.67306  0.23483  0.41308  1.0000
  H   H21       1.0  0.07951  0.83062  0.59256  1.0000
  H   H22       1.0  0.92050  0.16938  0.40744  1.0000
  H   H23       1.0  0.32525  0.29013  0.34573  1.0000
  H   H24       1.0  0.67475  0.70987  0.65427  1.0000
  H   H25       1.0  0.48501  0.41732  0.30896  1.0000
  H   H26       1.0  0.51500  0.58268  0.69104  1.0000
  C   C1        1.0  0.70454  0.70896  0.40275  1.0000
  C   C2        1.0  0.29546  0.29104  0.59725  1.0000
  C   C3        1.0  0.65912  0.85913  0.32854  1.0000
  C   C4        1.0  0.34087  0.14086  0.67146  1.0000
  C   C5        1.0  0.47486  0.97279  0.29371  1.0000
  C   C6        1.0  0.52514  0.02721  0.70629  1.0000
  C   C7        1.0  0.26167  0.98514  0.32810  1.0000
  C   C8        1.0  0.73832  0.01486  0.67190  1.0000
  C   C9        1.0  0.71657  0.04336  0.20860  1.0000
  C   C10       1.0  0.28342  0.95665  0.79139  1.0000
  C   C11       1.0  0.82471  0.11911  0.13375  1.0000
  C   C12       1.0  0.17529  0.88089  0.86625  1.0000
  C   C13       1.0  0.03904  0.06399  0.12516  1.0000
  C   C14       1.0  0.96096  0.93600  0.87484  1.0000
  C   C15       1.0  0.71525  0.24939  0.06680  1.0000
  C   C16       1.0  0.28474  0.75062  0.93320  1.0000
  C   C17       1.0  0.13925  0.13642  0.05292  1.0000
  C   C18       1.0  0.86075  0.86357  0.94707  1.0000
  C   C19       1.0  0.81658  0.31985  0.99422  1.0000
  C   C20       1.0  0.18341  0.68016  0.00578  1.0000
  C   C21       1.0  0.03165  0.26456  0.98491  1.0000
  C   C22       1.0  0.96834  0.73544  0.01509  1.0000
  C   C23       1.0  0.14168  0.33881  0.90818  1.0000
  C   C24       1.0  0.85832  0.66119  0.09182  1.0000
  C   C25       1.0  0.35549  0.27487  0.89748  1.0000
  C   C26       1.0  0.64451  0.72513  0.10252  1.0000
  C   C27       1.0  0.04259  0.47849  0.84226  1.0000
  C   C28       1.0  0.95741  0.52152  0.15774  1.0000
  C   C29       1.0  0.45680  0.35349  0.82723  1.0000
  C   C30       1.0  0.54320  0.64650  0.17277  1.0000
  C   C31       1.0  0.15656  0.54977  0.77408  1.0000
  C   C32       1.0  0.84345  0.45023  0.22592  1.0000
  N   N1        1.0  0.80938  0.90972  0.27398  1.0000
  N   N2        1.0  0.19062  0.09028  0.72602  1.0000
  N   N3        1.0  0.51150  0.08643  0.22011  1.0000
  N   N4        1.0  0.48850  0.91357  0.77989  1.0000
  N   N5        1.0  0.36147  0.49133  0.76624  1.0000
  N   N6        1.0  0.63854  0.50866  0.23377  1.0000
  O   O1        1.0  0.89023  0.63304  0.42506  1.0000
  O   O2        1.0  0.10977  0.36696  0.57494  1.0000
  O   O3        1.0  0.55735  0.65324  0.44316  1.0000
  O   O4        1.0  0.44264  0.34677  0.55683  1.0000
  O   O5        1.0  0.19490  0.84223  0.33302  1.0000
  O   O6        1.0  0.80510  0.15777  0.66697  1.0000
  O   O7        1.0  0.16014  0.13738  0.34763  1.0000
  O   O8        1.0  0.83986  0.86261  0.65238  1.0000
  O   O9        1.0  0.20023  0.79121  0.55428  1.0000
  O   O10       1.0  0.79978  0.20879  0.44572  1.0000
  O   O11       1.0  0.40249  0.37293  0.36125  1.0000
  O   O12       1.0  0.59751  0.62707  0.63875  1.0000
