data_image0
_chemical_formula_structural       Fe6H6C18N18Cl6
_chemical_formula_sum              "Fe6 H6 C18 N18 Cl6"
_cell_length_a       8.10227
_cell_length_b       14.6458
_cell_length_c       14.7688
_cell_angle_alpha    116.907
_cell_angle_beta     100.669
_cell_angle_gamma    100.633

_space_group_name_H-M_alt    "P 1"
_space_group_IT_number       1

loop_
  _space_group_symop_operation_xyz
  'x, y, z'

loop_
  _atom_site_type_symbol
  _atom_site_label
  _atom_site_symmetry_multiplicity
  _atom_site_fract_x
  _atom_site_fract_y
  _atom_site_fract_z
  _atom_site_occupancy
  Fe  Fe1       1.0  0.71239  0.42629  0.71362  1.0000
  Fe  Fe2       1.0  0.28354  0.28957  0.58333  1.0000
  Fe  Fe3       1.0  0.00696  0.29065  0.70651  1.0000
  Fe  Fe4       1.0  0.28927  0.58006  0.28970  1.0000
  Fe  Fe5       1.0  0.71041  0.70936  0.41750  1.0000
  Fe  Fe6       1.0  0.99962  0.70965  0.29096  1.0000
  H   H1        1.0  0.80585  0.58154  0.00086  1.0000
  H   H2        1.0  0.19318  0.00154  0.42074  1.0000
  H   H3        1.0  0.81029  0.00152  0.58310  1.0000
  H   H4        1.0  0.22441  0.41644  0.41471  1.0000
  H   H5        1.0  0.77569  0.58349  0.58072  1.0000
  H   H6        1.0  0.19017  0.41422  0.00035  1.0000
  C   C1        1.0  0.53743  0.47393  0.90730  1.0000
  C   C2        1.0  0.46252  0.09574  0.52639  1.0000
  C   C3        1.0  0.63554  0.09579  0.57187  1.0000
  C   C4        1.0  0.06151  0.42848  0.52017  1.0000
  C   C5        1.0  0.93612  0.47585  0.56697  1.0000
  C   C6        1.0  0.36484  0.42646  0.90702  1.0000
  C   C7        1.0  0.45896  0.52161  0.09389  1.0000
  C   C8        1.0  0.54111  0.90735  0.47748  1.0000
  C   C9        1.0  0.36802  0.90735  0.43184  1.0000
  C   C10       1.0  0.93713  0.57040  0.47481  1.0000
  C   C11       1.0  0.06307  0.52335  0.42820  1.0000
  C   C12       1.0  0.63189  0.56825  0.09408  1.0000
  C   C13       1.0  0.67535  0.54635  0.00074  1.0000
  C   C14       1.0  0.32432  0.00163  0.45457  1.0000
  C   C15       1.0  0.67928  0.00165  0.54939  1.0000
  C   C16       1.0  0.12816  0.45088  0.44924  1.0000
  C   C17       1.0  0.87125  0.54854  0.54594  1.0000
  C   C18       1.0  0.32090  0.44879  0.00020  1.0000
  N   N1        1.0  0.53205  0.43444  0.80247  1.0000
  N   N2        1.0  0.46812  0.20182  0.56739  1.0000
  N   N3        1.0  0.73639  0.20195  0.63671  1.0000
  N   N4        1.0  0.09515  0.36317  0.56006  1.0000
  N   N5        1.0  0.90129  0.43632  0.63203  1.0000
  N   N6        1.0  0.26493  0.36107  0.80162  1.0000
  N   N7        1.0  0.46411  0.56269  0.19876  1.0000
  N   N8        1.0  0.53585  0.80141  0.43623  1.0000
  N   N9        1.0  0.26712  0.80143  0.36660  1.0000
  N   N10       1.0  0.90190  0.63565  0.43484  1.0000
  N   N11       1.0  0.09851  0.56390  0.36375  1.0000
  N   N12       1.0  0.73268  0.63375  0.19902  1.0000
  N   N13       1.0  0.36969  0.36839  0.74331  1.0000
  N   N14       1.0  0.63167  0.26113  0.63151  1.0000
  N   N15       1.0  0.99753  0.37062  0.62522  1.0000
  N   N16       1.0  0.62816  0.62803  0.25761  1.0000
  N   N17       1.0  0.37178  0.74236  0.37175  1.0000
  N   N18       1.0  0.00013  0.62924  0.37004  1.0000
  Cl  Cl1       1.0  0.50059  0.42859  0.58340  1.0000
  Cl  Cl2       1.0  0.92972  0.43132  0.84560  1.0000
  Cl  Cl3       1.0  0.07393  0.14624  0.57343  1.0000
  Cl  Cl4       1.0  0.49986  0.57328  0.42342  1.0000
  Cl  Cl5       1.0  0.07501  0.57493  0.14950  1.0000
  Cl  Cl6       1.0  0.92465  0.85154  0.42353  1.0000
