data_image0
_chemical_formula_structural       Ag2H24C16N24O4F6
_chemical_formula_sum              "Ag2 H24 C16 N24 O4 F6"
_cell_length_a       8.7626
_cell_length_b       8.80912
_cell_length_c       11.6662
_cell_angle_alpha    109.754
_cell_angle_beta     102.053
_cell_angle_gamma    95.6033

_space_group_name_H-M_alt    "P 1"
_space_group_IT_number       1

loop_
  _space_group_symop_operation_xyz
  'x, y, z'

loop_
  _atom_site_type_symbol
  _atom_site_label
  _atom_site_symmetry_multiplicity
  _atom_site_fract_x
  _atom_site_fract_y
  _atom_site_fract_z
  _atom_site_occupancy
  Ag  Ag1       1.0  0.99413  0.02153  0.75856  1.0000
  Ag  Ag2       1.0  0.00587  0.97847  0.24144  1.0000
  H   H1        1.0  0.11199  0.78130  0.00598  1.0000
  H   H2        1.0  0.88801  0.21870  0.99402  1.0000
  H   H3        1.0  0.11191  0.82276  0.86844  1.0000
  H   H4        1.0  0.88809  0.17724  0.13156  1.0000
  H   H5        1.0  0.47535  0.83772  0.04538  1.0000
  H   H6        1.0  0.52465  0.16228  0.95462  1.0000
  H   H7        1.0  0.64783  0.80813  0.13581  1.0000
  H   H8        1.0  0.35217  0.19188  0.86419  1.0000
  H   H9        1.0  0.49024  0.88748  0.66151  1.0000
  H   H10       1.0  0.50976  0.11252  0.33849  1.0000
  H   H11       1.0  0.67116  0.88308  0.61657  1.0000
  H   H12       1.0  0.32884  0.11692  0.38343  1.0000
  H   H13       1.0  0.18890  0.87557  0.60917  1.0000
  H   H14       1.0  0.81110  0.12443  0.39083  1.0000
  H   H15       1.0  0.21190  0.87140  0.46168  1.0000
  H   H16       1.0  0.78810  0.12860  0.53832  1.0000
  H   H17       1.0  0.11997  0.50277  0.46898  1.0000
  H   H18       1.0  0.88003  0.49723  0.53102  1.0000
  H   H19       1.0  0.14803  0.32097  0.35988  1.0000
  H   H20       1.0  0.85197  0.67903  0.64012  1.0000
  H   H21       1.0  0.15432  0.35267  0.91397  1.0000
  H   H22       1.0  0.84568  0.64733  0.08603  1.0000
  H   H23       1.0  0.14219  0.53186  0.87851  1.0000
  H   H24       1.0  0.85781  0.46815  0.12149  1.0000
  C   C1        1.0  0.73870  0.27128  0.78360  1.0000
  C   C2        1.0  0.26130  0.72872  0.21640  1.0000
  C   C3        1.0  0.61774  0.36675  0.73316  1.0000
  C   C4        1.0  0.38226  0.63324  0.26684  1.0000
  C   C5        1.0  0.89843  0.81611  0.90849  1.0000
  C   C6        1.0  0.10157  0.18389  0.09151  1.0000
  C   C7        1.0  0.66636  0.82329  0.96837  1.0000
  C   C8        1.0  0.33364  0.17670  0.03163  1.0000
  C   C9        1.0  0.67697  0.86425  0.78815  1.0000
  C   C10       1.0  0.32302  0.13575  0.21185  1.0000
  C   C11       1.0  0.18815  0.09221  0.58516  1.0000
  C   C12       1.0  0.81185  0.90779  0.41484  1.0000
  C   C13       1.0  0.15916  0.31933  0.53694  1.0000
  C   C14       1.0  0.84084  0.68067  0.46306  1.0000
  C   C15       1.0  0.15319  0.32967  0.73254  1.0000
  C   C16       1.0  0.84681  0.67033  0.26746  1.0000
  N   N1        1.0  0.83659  0.85949  0.80923  1.0000
  N   N2        1.0  0.16341  0.14051  0.19077  1.0000
  N   N3        1.0  0.81828  0.79465  0.98965  1.0000
  N   N4        1.0  0.18172  0.20534  0.01035  1.0000
  N   N5        1.0  0.58982  0.85267  0.86743  1.0000
  N   N6        1.0  0.41018  0.14733  0.13257  1.0000
  N   N7        1.0  0.16350  0.16621  0.70081  1.0000
  N   N8        1.0  0.83651  0.83379  0.29919  1.0000
  N   N9        1.0  0.18799  0.16327  0.50009  1.0000
  N   N10       1.0  0.81201  0.83673  0.49991  1.0000
  N   N11       1.0  0.14607  0.40904  0.65194  1.0000
  N   N12       1.0  0.85393  0.59096  0.34806  1.0000
  N   N13       1.0  0.04961  0.79220  0.92419  1.0000
  N   N14       1.0  0.95039  0.20780  0.07581  1.0000
  N   N15       1.0  0.58898  0.81954  0.05511  1.0000
  N   N16       1.0  0.41102  0.18046  0.94489  1.0000
  N   N17       1.0  0.60739  0.88225  0.68110  1.0000
  N   N18       1.0  0.39261  0.11775  0.31890  1.0000
  N   N19       1.0  0.21762  0.93713  0.55489  1.0000
  N   N20       1.0  0.78238  0.06287  0.44511  1.0000
  N   N21       1.0  0.14068  0.38687  0.44841  1.0000
  N   N22       1.0  0.85932  0.61313  0.55159  1.0000
  N   N23       1.0  0.15109  0.41174  0.85128  1.0000
  N   N24       1.0  0.84892  0.58827  0.14873  1.0000
  O   O1        1.0  0.81685  0.20649  0.70654  1.0000
  O   O2        1.0  0.18315  0.79351  0.29346  1.0000
  O   O3        1.0  0.74548  0.27024  0.89166  1.0000
  O   O4        1.0  0.25452  0.72976  0.10833  1.0000
  F   F1        1.0  0.52372  0.26978  0.61628  1.0000
  F   F2        1.0  0.47628  0.73022  0.38372  1.0000
  F   F3        1.0  0.52070  0.42238  0.80829  1.0000
  F   F4        1.0  0.47930  0.57762  0.19171  1.0000
  F   F5        1.0  0.69565  0.49957  0.71951  1.0000
  F   F6        1.0  0.30435  0.50043  0.28049  1.0000
