data_image0
_chemical_formula_structural       Ca2H32C32N4O20
_chemical_formula_sum              "Ca2 H32 C32 N4 O20"
_cell_length_a       7.69638
_cell_length_b       10.8166
_cell_length_c       12.0704
_cell_angle_alpha    107.751
_cell_angle_beta     104.956
_cell_angle_gamma    89.7549

_space_group_name_H-M_alt    "P 1"
_space_group_IT_number       1

loop_
  _space_group_symop_operation_xyz
  'x, y, z'

loop_
  _atom_site_type_symbol
  _atom_site_label
  _atom_site_symmetry_multiplicity
  _atom_site_fract_x
  _atom_site_fract_y
  _atom_site_fract_z
  _atom_site_occupancy
  Ca  Ca1       1.0  0.76361  0.46577  0.52854  1.0000
  Ca  Ca2       1.0  0.23639  0.53423  0.47146  1.0000
  H   H1        1.0  0.58545  0.24498  0.16387  1.0000
  H   H2        1.0  0.41455  0.75502  0.83613  1.0000
  H   H3        1.0  0.39474  0.07262  0.98598  1.0000
  H   H4        1.0  0.60525  0.92738  0.01402  1.0000
  H   H5        1.0  0.49304  0.27786  0.75024  1.0000
  H   H6        1.0  0.50696  0.72214  0.24976  1.0000
  H   H7        1.0  0.68524  0.44838  0.92663  1.0000
  H   H8        1.0  0.31476  0.55163  0.07337  1.0000
  H   H9        1.0  0.91015  0.45930  0.15130  1.0000
  H   H10       1.0  0.08984  0.54070  0.84870  1.0000
  H   H11       1.0  0.73258  0.55911  0.15299  1.0000
  H   H12       1.0  0.26742  0.44089  0.84701  1.0000
  H   H13       1.0  0.80921  0.08221  0.57047  1.0000
  H   H14       1.0  0.19078  0.91779  0.42953  1.0000
  H   H15       1.0  0.99246  0.25349  0.75010  1.0000
  H   H16       1.0  0.00753  0.74651  0.24990  1.0000
  H   H17       1.0  0.86617  0.05388  0.98241  1.0000
  H   H18       1.0  0.13383  0.94612  0.01759  1.0000
  H   H19       1.0  0.67818  0.88181  0.80154  1.0000
  H   H20       1.0  0.32183  0.11818  0.19846  1.0000
  H   H21       1.0  0.60770  0.89010  0.48298  1.0000
  H   H22       1.0  0.39231  0.10990  0.51702  1.0000
  H   H23       1.0  0.46340  0.87888  0.57233  1.0000
  H   H24       1.0  0.53661  0.12112  0.42767  1.0000
  H   H25       1.0  0.58789  0.53434  0.72294  1.0000
  H   H26       1.0  0.41210  0.46566  0.27706  1.0000
  H   H27       1.0  0.78647  0.59635  0.79152  1.0000
  H   H28       1.0  0.21353  0.40365  0.20848  1.0000
  H   H29       1.0  0.99344  0.25901  0.44683  1.0000
  H   H30       1.0  0.00656  0.74099  0.55317  1.0000
  H   H31       1.0  0.80744  0.18032  0.38252  1.0000
  H   H32       1.0  0.19257  0.81968  0.61748  1.0000
  C   C1        1.0  0.64843  0.35934  0.05829  1.0000
  C   C2        1.0  0.35157  0.64066  0.94171  1.0000
  C   C3        1.0  0.56548  0.25251  0.07373  1.0000
  C   C4        1.0  0.43452  0.74749  0.92626  1.0000
  C   C5        1.0  0.45836  0.15612  0.97505  1.0000
  C   C6        1.0  0.54164  0.84388  0.02494  1.0000
  C   C7        1.0  0.43253  0.16697  0.85968  1.0000
  C   C8        1.0  0.56747  0.83303  0.14032  1.0000
  C   C9        1.0  0.51186  0.27237  0.84109  1.0000
  C   C10       1.0  0.48814  0.72764  0.15891  1.0000
  C   C11       1.0  0.61978  0.36735  0.94067  1.0000
  C   C12       1.0  0.38022  0.63265  0.05932  1.0000
  C   C13       1.0  0.77213  0.46360  0.16125  1.0000
  C   C14       1.0  0.22787  0.53640  0.83875  1.0000
  C   C15       1.0  0.77880  0.46857  0.28920  1.0000
  C   C16       1.0  0.22120  0.53143  0.71080  1.0000
  C   C17       1.0  0.72719  0.97134  0.67370  1.0000
  C   C18       1.0  0.27281  0.02866  0.32630  1.0000
  C   C19       1.0  0.81929  0.07533  0.66015  1.0000
  C   C20       1.0  0.18070  0.92467  0.33985  1.0000
  C   C21       1.0  0.92425  0.17142  0.76039  1.0000
  C   C22       1.0  0.07575  0.82858  0.23962  1.0000
  C   C23       1.0  0.93964  0.16105  0.87510  1.0000
  C   C24       1.0  0.06036  0.83895  0.12490  1.0000
  C   C25       1.0  0.85251  0.05731  0.89147  1.0000
  C   C26       1.0  0.14749  0.94269  0.10854  1.0000
  C   C27       1.0  0.74721  0.96319  0.79039  1.0000
  C   C28       1.0  0.25279  0.03681  0.20961  1.0000
  C   C29       1.0  0.60368  0.87184  0.56699  1.0000
  C   C30       1.0  0.39633  0.12816  0.43301  1.0000
  C   C31       1.0  0.64750  0.73087  0.55266  1.0000
  C   C32       1.0  0.35250  0.26913  0.44735  1.0000
  N   N1        1.0  0.32731  0.06352  0.75619  1.0000
  N   N2        1.0  0.67269  0.93648  0.24381  1.0000
  N   N3        1.0  0.04666  0.26186  0.98059  1.0000
  N   N4        1.0  0.95334  0.73814  0.01941  1.0000
  O   O1        1.0  0.63484  0.44327  0.31444  1.0000
  O   O2        1.0  0.36516  0.55673  0.68556  1.0000
  O   O3        1.0  0.92832  0.50216  0.36951  1.0000
  O   O4        1.0  0.07168  0.49784  0.63049  1.0000
  O   O5        1.0  0.27816  0.08302  0.65690  1.0000
  O   O6        1.0  0.72185  0.91698  0.34310  1.0000
  O   O7        1.0  0.29238  0.95754  0.77104  1.0000
  O   O8        1.0  0.70762  0.04247  0.22896  1.0000
  O   O9        1.0  0.51756  0.64348  0.51172  1.0000
  O   O10       1.0  0.48245  0.35652  0.48828  1.0000
  O   O11       1.0  0.81121  0.70456  0.57971  1.0000
  O   O12       1.0  0.18879  0.29544  0.42030  1.0000
  O   O13       1.0  0.11109  0.35902  0.96614  1.0000
  O   O14       1.0  0.88890  0.64098  0.03386  1.0000
  O   O15       1.0  0.06952  0.24703  0.08225  1.0000
  O   O16       1.0  0.93048  0.75297  0.91775  1.0000
  O   O17       1.0  0.71739  0.51931  0.72880  1.0000
  O   O18       1.0  0.28261  0.48069  0.27120  1.0000
  O   O19       1.0  0.86923  0.25034  0.45591  1.0000
  O   O20       1.0  0.13077  0.74965  0.54408  1.0000
