data_image0
_chemical_formula_structural       Fe6H12C42N18Cl6O12
_chemical_formula_sum              "Fe6 H12 C42 N18 Cl6 O12"
_cell_length_a       7.9409
_cell_length_b       22.1842
_cell_length_c       22.1842
_cell_angle_alpha    118.602
_cell_angle_beta     96.8531
_cell_angle_gamma    96.8531

_space_group_name_H-M_alt    "P 1"
_space_group_IT_number       1

loop_
  _space_group_symop_operation_xyz
  'x, y, z'

loop_
  _atom_site_type_symbol
  _atom_site_label
  _atom_site_symmetry_multiplicity
  _atom_site_fract_x
  _atom_site_fract_y
  _atom_site_fract_z
  _atom_site_occupancy
  Fe  Fe1       1.0  0.19887  0.39773  0.69887  1.0000
  Fe  Fe2       1.0  0.80113  0.30113  0.60227  1.0000
  Fe  Fe3       1.0  0.50000  0.30115  0.69885  1.0000
  Fe  Fe4       1.0  0.80113  0.60227  0.30113  1.0000
  Fe  Fe5       1.0  0.19887  0.69887  0.39773  1.0000
  Fe  Fe6       1.0  0.50000  0.69885  0.30115  1.0000
  H   H1        1.0  0.24121  0.48634  0.60807  1.0000
  H   H2        1.0  0.75879  0.39193  0.51366  1.0000
  H   H3        1.0  0.63320  0.39192  0.87829  1.0000
  H   H4        1.0  0.75485  0.12173  0.51362  1.0000
  H   H5        1.0  0.24514  0.48638  0.87827  1.0000
  H   H6        1.0  0.36680  0.12171  0.60808  1.0000
  H   H7        1.0  0.75879  0.51366  0.39193  1.0000
  H   H8        1.0  0.24121  0.60807  0.48634  1.0000
  H   H9        1.0  0.36680  0.60808  0.12171  1.0000
  H   H10       1.0  0.24515  0.87827  0.48638  1.0000
  H   H11       1.0  0.75485  0.51362  0.12173  1.0000
  H   H12       1.0  0.63320  0.87829  0.39192  1.0000
  C   C1        1.0  0.42730  0.42002  0.60633  1.0000
  C   C2        1.0  0.57270  0.39367  0.57998  1.0000
  C   C3        1.0  0.82102  0.39365  0.81370  1.0000
  C   C4        1.0  0.00727  0.18629  0.57995  1.0000
  C   C5        1.0  0.99273  0.42005  0.81371  1.0000
  C   C6        1.0  0.17898  0.18630  0.60635  1.0000
  C   C7        1.0  0.57270  0.57998  0.39367  1.0000
  C   C8        1.0  0.42730  0.60633  0.42002  1.0000
  C   C9        1.0  0.17898  0.60635  0.18630  1.0000
  C   C10       1.0  0.99274  0.81371  0.42005  1.0000
  C   C11       1.0  0.00726  0.57995  0.18629  1.0000
  C   C12       1.0  0.82102  0.81370  0.39365  1.0000
  C   C13       1.0  0.35274  0.46529  0.58880  1.0000
  C   C14       1.0  0.64726  0.41120  0.53471  1.0000
  C   C15       1.0  0.76401  0.41116  0.87651  1.0000
  C   C16       1.0  0.88741  0.12349  0.53466  1.0000
  C   C17       1.0  0.11259  0.46534  0.87651  1.0000
  C   C18       1.0  0.23599  0.12349  0.58884  1.0000
  C   C19       1.0  0.64726  0.53471  0.41120  1.0000
  C   C20       1.0  0.35274  0.58880  0.46529  1.0000
  C   C21       1.0  0.23599  0.58884  0.12349  1.0000
  C   C22       1.0  0.11259  0.87651  0.46534  1.0000
  C   C23       1.0  0.88741  0.53466  0.12349  1.0000
  C   C24       1.0  0.76402  0.87651  0.41116  1.0000
  C   C25       1.0  0.42719  0.48235  0.54437  1.0000
  C   C26       1.0  0.57280  0.45563  0.51765  1.0000
  C   C27       1.0  0.88291  0.45560  0.93798  1.0000
  C   C28       1.0  0.94480  0.06201  0.51762  1.0000
  C   C29       1.0  0.05520  0.48238  0.93799  1.0000
  C   C30       1.0  0.11709  0.06202  0.54440  1.0000
  C   C31       1.0  0.57280  0.51765  0.45563  1.0000
  C   C32       1.0  0.42719  0.54437  0.48235  1.0000
  C   C33       1.0  0.11709  0.54440  0.06202  1.0000
  C   C34       1.0  0.05520  0.93799  0.48238  1.0000
  C   C35       1.0  0.94480  0.51762  0.06201  1.0000
  C   C36       1.0  0.88291  0.93798  0.45560  1.0000
  C   C37       1.0  0.24482  0.48965  0.74485  1.0000
  C   C38       1.0  0.75518  0.25514  0.51035  1.0000
  C   C39       1.0  0.50000  0.25520  0.74480  1.0000
  C   C40       1.0  0.75518  0.51035  0.25514  1.0000
  C   C41       1.0  0.24482  0.74485  0.48965  1.0000
  C   C42       1.0  0.50000  0.74480  0.25520  1.0000
  N   N1        1.0  0.38618  0.39279  0.64768  1.0000
  N   N2        1.0  0.61382  0.35232  0.60721  1.0000
  N   N3        1.0  0.73854  0.35232  0.74512  1.0000
  N   N4        1.0  0.99339  0.25487  0.60719  1.0000
  N   N5        1.0  0.00661  0.39281  0.74513  1.0000
  N   N6        1.0  0.26146  0.25488  0.64768  1.0000
  N   N7        1.0  0.61382  0.60721  0.35232  1.0000
  N   N8        1.0  0.38618  0.64768  0.39279  1.0000
  N   N9        1.0  0.26146  0.64768  0.25488  1.0000
  N   N10       1.0  0.00661  0.74513  0.39281  1.0000
  N   N11       1.0  0.99339  0.60719  0.25487  1.0000
  N   N12       1.0  0.73854  0.74512  0.35232  1.0000
  N   N13       1.0  0.50000  0.35298  0.64703  1.0000
  N   N14       1.0  0.85299  0.35298  0.70595  1.0000
  N   N15       1.0  0.14701  0.29405  0.64702  1.0000
  N   N16       1.0  0.50000  0.64702  0.35298  1.0000
  N   N17       1.0  0.14701  0.64702  0.29405  1.0000
  N   N18       1.0  0.85299  0.70595  0.35298  1.0000
  Cl  Cl1       1.0  0.38910  0.38909  0.77816  1.0000
  Cl  Cl2       1.0  0.61090  0.22184  0.61091  1.0000
  Cl  Cl3       1.0  0.00000  0.38907  0.61093  1.0000
  Cl  Cl4       1.0  0.61090  0.61091  0.22184  1.0000
  Cl  Cl5       1.0  0.38910  0.77816  0.38909  1.0000
  Cl  Cl6       1.0  1.00000  0.61093  0.38907  1.0000
  O   O1        1.0  0.35448  0.52651  0.52651  1.0000
  O   O2        1.0  0.64551  0.47349  0.47349  1.0000
  O   O3        1.0  0.82797  0.47346  0.99998  1.0000
  O   O4        1.0  0.82797  0.99998  0.47346  1.0000
  O   O5        1.0  0.17203  0.52654  0.00002  1.0000
  O   O6        1.0  0.17203  0.00002  0.52654  1.0000
  O   O7        1.0  0.27531  0.55070  0.77542  1.0000
  O   O8        1.0  0.72469  0.22458  0.44930  1.0000
  O   O9        1.0  0.50000  0.22468  0.77532  1.0000
  O   O10       1.0  0.72469  0.44930  0.22458  1.0000
  O   O11       1.0  0.27531  0.77542  0.55070  1.0000
  O   O12       1.0  0.50000  0.77532  0.22468  1.0000
