data_image0
_chemical_formula_structural       Ag8H24C40N24O24
_chemical_formula_sum              "Ag8 H24 C40 N24 O24"
_cell_length_a       6.71132
_cell_length_b       9.77799
_cell_length_c       19.8181
_cell_angle_alpha    89.9999
_cell_angle_beta     90
_cell_angle_gamma    97.8063

_space_group_name_H-M_alt    "P 1"
_space_group_IT_number       1

loop_
  _space_group_symop_operation_xyz
  'x, y, z'

loop_
  _atom_site_type_symbol
  _atom_site_label
  _atom_site_symmetry_multiplicity
  _atom_site_fract_x
  _atom_site_fract_y
  _atom_site_fract_z
  _atom_site_occupancy
  Ag  Ag1       1.0  0.24450  0.36568  0.67179  1.0000
  Ag  Ag2       1.0  0.75550  0.13432  0.17179  1.0000
  Ag  Ag3       1.0  0.75550  0.63431  0.32821  1.0000
  Ag  Ag4       1.0  0.24450  0.86569  0.82821  1.0000
  Ag  Ag5       1.0  0.28948  0.23047  0.30296  1.0000
  Ag  Ag6       1.0  0.71054  0.26953  0.80296  1.0000
  Ag  Ag7       1.0  0.71053  0.76953  0.69704  1.0000
  Ag  Ag8       1.0  0.28947  0.73047  0.19704  1.0000
  H   H1        1.0  0.30497  0.09898  0.56166  1.0000
  H   H2        1.0  0.69505  0.40102  0.06167  1.0000
  H   H3        1.0  0.69502  0.90101  0.43833  1.0000
  H   H4        1.0  0.30497  0.59898  0.93834  1.0000
  H   H5        1.0  0.32094  0.06591  0.43540  1.0000
  H   H6        1.0  0.67907  0.43411  0.93540  1.0000
  H   H7        1.0  0.67905  0.93409  0.56459  1.0000
  H   H8        1.0  0.32094  0.56590  0.06460  1.0000
  H   H9        1.0  0.28269  0.49676  0.34309  1.0000
  H   H10       1.0  0.71729  0.00324  0.84309  1.0000
  H   H11       1.0  0.71730  0.50324  0.65691  1.0000
  H   H12       1.0  0.28271  0.99676  0.15691  1.0000
  H   H13       1.0  0.24399  0.72856  0.39008  1.0000
  H   H14       1.0  0.75599  0.77144  0.89009  1.0000
  H   H15       1.0  0.75598  0.27144  0.60991  1.0000
  H   H16       1.0  0.24401  0.22855  0.10992  1.0000
  H   H17       1.0  0.17471  0.69790  0.68315  1.0000
  H   H18       1.0  0.82530  0.80211  0.18315  1.0000
  H   H19       1.0  0.82529  0.30209  0.31685  1.0000
  H   H20       1.0  0.17470  0.19790  0.81685  1.0000
  H   H21       1.0  0.15311  0.89578  0.60507  1.0000
  H   H22       1.0  0.84691  0.60423  0.10507  1.0000
  H   H23       1.0  0.84690  0.10421  0.39494  1.0000
  H   H24       1.0  0.15310  0.39578  0.89494  1.0000
  C   C1        1.0  0.26355  0.41278  0.51195  1.0000
  C   C2        1.0  0.73645  0.08723  0.01195  1.0000
  C   C3        1.0  0.73645  0.58722  0.48805  1.0000
  C   C4        1.0  0.26355  0.91278  0.98805  1.0000
  C   C5        1.0  0.29319  0.18431  0.52736  1.0000
  C   C6        1.0  0.70681  0.31569  0.02736  1.0000
  C   C7        1.0  0.70680  0.81568  0.47264  1.0000
  C   C8        1.0  0.29319  0.68431  0.97264  1.0000
  C   C9        1.0  0.30501  0.16638  0.45701  1.0000
  C   C10       1.0  0.69499  0.33363  0.95701  1.0000
  C   C11       1.0  0.69498  0.83362  0.54299  1.0000
  C   C12       1.0  0.30501  0.66638  0.04299  1.0000
  C   C13       1.0  0.27920  0.39749  0.44080  1.0000
  C   C14       1.0  0.72080  0.10251  0.94080  1.0000
  C   C15       1.0  0.72080  0.60251  0.55920  1.0000
  C   C16       1.0  0.27921  0.89749  0.05920  1.0000
  C   C17       1.0  0.27267  0.51313  0.39736  1.0000
  C   C18       1.0  0.72732  0.98687  0.89736  1.0000
  C   C19       1.0  0.72732  0.48687  0.60264  1.0000
  C   C20       1.0  0.27269  0.01313  0.10264  1.0000
  C   C21       1.0  0.24846  0.63977  0.42297  1.0000
  C   C22       1.0  0.75153  0.86023  0.92297  1.0000
  C   C23       1.0  0.75153  0.36023  0.57703  1.0000
  C   C24       1.0  0.24847  0.13977  0.07703  1.0000
  C   C25       1.0  0.22856  0.65920  0.49406  1.0000
  C   C26       1.0  0.77143  0.84081  0.99406  1.0000
  C   C27       1.0  0.77143  0.34081  0.50594  1.0000
  C   C28       1.0  0.22857  0.15919  0.00594  1.0000
  C   C29       1.0  0.23648  0.54625  0.53884  1.0000
  C   C30       1.0  0.76352  0.95376  0.03884  1.0000
  C   C31       1.0  0.76352  0.45375  0.46116  1.0000
  C   C32       1.0  0.23647  0.04624  0.96116  1.0000
  C   C33       1.0  0.18920  0.68486  0.62897  1.0000
  C   C34       1.0  0.81080  0.81515  0.12897  1.0000
  C   C35       1.0  0.81079  0.31514  0.37104  1.0000
  C   C36       1.0  0.18920  0.18486  0.87104  1.0000
  C   C37       1.0  0.18032  0.79664  0.58439  1.0000
  C   C38       1.0  0.81968  0.70337  0.08439  1.0000
  C   C39       1.0  0.81968  0.20336  0.41561  1.0000
  C   C40       1.0  0.18032  0.29663  0.91561  1.0000
  N   N1        1.0  0.27294  0.30571  0.55461  1.0000
  N   N2        1.0  0.72706  0.19429  0.05461  1.0000
  N   N3        1.0  0.72705  0.69428  0.44539  1.0000
  N   N4        1.0  0.27294  0.80571  0.94539  1.0000
  N   N5        1.0  0.29930  0.27091  0.41422  1.0000
  N   N6        1.0  0.70069  0.22910  0.91422  1.0000
  N   N7        1.0  0.70070  0.72910  0.58578  1.0000
  N   N8        1.0  0.29931  0.77091  0.08578  1.0000
  N   N9        1.0  0.21745  0.56129  0.60639  1.0000
  N   N10       1.0  0.78256  0.93872  0.10639  1.0000
  N   N11       1.0  0.78254  0.43871  0.39361  1.0000
  N   N12       1.0  0.21744  0.06128  0.89361  1.0000
  N   N13       1.0  0.20089  0.78596  0.51813  1.0000
  N   N14       1.0  0.79910  0.71404  0.01813  1.0000
  N   N15       1.0  0.79910  0.21405  0.48188  1.0000
  N   N16       1.0  0.20089  0.28595  0.98188  1.0000
  N   N17       1.0  0.45188  0.52903  0.79702  1.0000
  N   N18       1.0  0.54812  0.97097  0.29701  1.0000
  N   N19       1.0  0.54812  0.47097  0.20299  1.0000
  N   N20       1.0  0.45189  0.02903  0.70299  1.0000
  N   N21       1.0  0.94450  0.09564  0.70288  1.0000
  N   N22       1.0  0.05551  0.40435  0.20287  1.0000
  N   N23       1.0  0.05550  0.90436  0.29712  1.0000
  N   N24       1.0  0.94449  0.59564  0.79713  1.0000
  O   O1        1.0  0.41571  0.40350  0.77489  1.0000
  O   O2        1.0  0.58428  0.09650  0.27488  1.0000
  O   O3        1.0  0.58428  0.59650  0.22511  1.0000
  O   O4        1.0  0.41572  0.90350  0.72511  1.0000
  O   O5        1.0  0.41231  0.62666  0.75976  1.0000
  O   O6        1.0  0.58769  0.87334  0.25976  1.0000
  O   O7        1.0  0.58769  0.37333  0.24024  1.0000
  O   O8        1.0  0.41234  0.12667  0.74024  1.0000
  O   O9        1.0  0.52651  0.55052  0.85465  1.0000
  O   O10       1.0  0.47348  0.94947  0.35464  1.0000
  O   O11       1.0  0.47349  0.44947  0.14535  1.0000
  O   O12       1.0  0.52652  0.05053  0.64535  1.0000
  O   O13       1.0  0.94786  0.22463  0.71959  1.0000
  O   O14       1.0  0.05219  0.27536  0.21958  1.0000
  O   O15       1.0  0.05215  0.77537  0.28041  1.0000
  O   O16       1.0  0.94785  0.72463  0.78041  1.0000
  O   O17       1.0  0.85671  0.00482  0.74205  1.0000
  O   O18       1.0  0.14328  0.49517  0.24205  1.0000
  O   O19       1.0  0.14328  0.99518  0.25795  1.0000
  O   O20       1.0  0.85671  0.50482  0.75796  1.0000
  O   O21       1.0  0.02757  0.06653  0.64957  1.0000
  O   O22       1.0  0.97244  0.43347  0.14957  1.0000
  O   O23       1.0  0.97243  0.93347  0.35043  1.0000
  O   O24       1.0  0.02756  0.56653  0.85043  1.0000
