data_image0
_chemical_formula_structural       Sm2H10C20O18
_chemical_formula_sum              "Sm2 H10 C20 O18"
_cell_length_a       6.28602
_cell_length_b       9.2967
_cell_length_c       9.66259
_cell_angle_alpha    87.9373
_cell_angle_beta     73.8692
_cell_angle_gamma    76.9494

_space_group_name_H-M_alt    "P 1"
_space_group_IT_number       1

loop_
  _space_group_symop_operation_xyz
  'x, y, z'

loop_
  _atom_site_type_symbol
  _atom_site_label
  _atom_site_symmetry_multiplicity
  _atom_site_fract_x
  _atom_site_fract_y
  _atom_site_fract_z
  _atom_site_occupancy
  Sm  Sm1       1.0  0.14994  0.05818  0.77938  1.0000
  Sm  Sm2       1.0  0.85007  0.94182  0.22062  1.0000
  H   H1        1.0  0.20536  0.56545  0.86961  1.0000
  H   H2        1.0  0.79464  0.43455  0.13039  1.0000
  H   H3        1.0  0.68312  0.65920  0.60650  1.0000
  H   H4        1.0  0.31688  0.34080  0.39350  1.0000
  H   H5        1.0  0.73149  0.92722  0.88317  1.0000
  H   H6        1.0  0.26851  0.07278  0.11683  1.0000
  H   H7        1.0  0.01982  0.42356  0.75947  1.0000
  H   H8        1.0  0.98017  0.57644  0.24053  1.0000
  H   H9        1.0  0.76387  0.94168  0.71663  1.0000
  H   H10       1.0  0.23613  0.05832  0.28337  1.0000
  C   C1        1.0  0.40396  0.38965  0.96202  1.0000
  C   C2        1.0  0.59604  0.61035  0.03799  1.0000
  C   C3        1.0  0.33432  0.53680  0.92754  1.0000
  C   C4        1.0  0.66568  0.46320  0.07246  1.0000
  C   C5        1.0  0.57152  0.35302  0.03586  1.0000
  C   C6        1.0  0.42848  0.64698  0.96414  1.0000
  C   C7        1.0  0.30153  0.27646  0.91623  1.0000
  C   C8        1.0  0.69847  0.72354  0.08377  1.0000
  C   C9        1.0  0.65643  0.20200  0.08475  1.0000
  C   C10       1.0  0.34357  0.79800  0.91525  1.0000
  C   C11       1.0  0.60337  0.59001  0.55786  1.0000
  C   C12       1.0  0.39664  0.40999  0.44214  1.0000
  C   C13       1.0  0.66324  0.43608  0.57065  1.0000
  C   C14       1.0  0.33675  0.56392  0.42935  1.0000
  C   C15       1.0  0.44115  0.65671  0.48794  1.0000
  C   C16       1.0  0.55886  0.34329  0.51206  1.0000
  C   C17       1.0  0.83523  0.37411  0.64844  1.0000
  C   C18       1.0  0.16476  0.62589  0.35156  1.0000
  C   C19       1.0  0.39207  0.82428  0.47880  1.0000
  C   C20       1.0  0.60794  0.17572  0.52120  1.0000
  O   O1        1.0  0.36485  0.14077  0.94175  1.0000
  O   O2        1.0  0.63515  0.85923  0.05825  1.0000
  O   O3        1.0  0.83880  0.94524  0.79170  1.0000
  O   O4        1.0  0.16120  0.05476  0.20830  1.0000
  O   O5        1.0  0.15056  0.31654  0.84819  1.0000
  O   O6        1.0  0.84943  0.68346  0.15181  1.0000
  O   O7        1.0  0.54643  0.15773  0.20235  1.0000
  O   O8        1.0  0.45357  0.84226  0.79765  1.0000
  O   O9        1.0  0.85255  0.12710  0.01525  1.0000
  O   O10       1.0  0.14745  0.87290  0.98475  1.0000
  O   O11       1.0  0.91240  0.47479  0.70171  1.0000
  O   O12       1.0  0.08760  0.52521  0.29829  1.0000
  O   O13       1.0  0.89958  0.23869  0.66259  1.0000
  O   O14       1.0  0.10042  0.76131  0.33741  1.0000
  O   O15       1.0  0.52693  0.87816  0.37868  1.0000
  O   O16       1.0  0.47307  0.12184  0.62132  1.0000
  O   O17       1.0  0.22789  0.89864  0.57449  1.0000
  O   O18       1.0  0.77211  0.10136  0.42551  1.0000
