data_image0
_chemical_formula_structural       Sr2H36C32N4O22
_chemical_formula_sum              "Sr2 H36 C32 N4 O22"
_cell_length_a       7.85302
_cell_length_b       11.0006
_cell_length_c       14.9388
_cell_angle_alpha    112.514
_cell_angle_beta     94.6893
_cell_angle_gamma    93.4073

_space_group_name_H-M_alt    "P 1"
_space_group_IT_number       1

loop_
  _space_group_symop_operation_xyz
  'x, y, z'

loop_
  _atom_site_type_symbol
  _atom_site_label
  _atom_site_symmetry_multiplicity
  _atom_site_fract_x
  _atom_site_fract_y
  _atom_site_fract_z
  _atom_site_occupancy
  Sr  Sr1       1.0  0.76306  0.57770  0.01554  1.0000
  Sr  Sr2       1.0  0.23707  0.42243  0.98450  1.0000
  H   H1        1.0  0.00491  0.29151  0.18579  1.0000
  H   H2        1.0  0.49046  0.11877  0.81027  1.0000
  H   H3        1.0  0.99433  0.70817  0.81409  1.0000
  H   H4        1.0  0.50996  0.88131  0.18979  1.0000
  H   H5        1.0  0.13048  0.44498  0.22157  1.0000
  H   H6        1.0  0.37540  0.22110  0.76586  1.0000
  H   H7        1.0  0.86925  0.55453  0.77840  1.0000
  H   H8        1.0  0.62488  0.77882  0.23411  1.0000
  H   H9        1.0  0.79285  0.25886  0.28817  1.0000
  H   H10       1.0  0.70187  0.98591  0.71385  1.0000
  H   H11       1.0  0.20642  0.74109  0.71179  1.0000
  H   H12       1.0  0.29861  0.01419  0.28623  1.0000
  H   H13       1.0  0.66210  0.34618  0.44359  1.0000
  H   H14       1.0  0.83143  0.90393  0.55863  1.0000
  H   H15       1.0  0.33722  0.65388  0.55637  1.0000
  H   H16       1.0  0.16894  0.09611  0.44140  1.0000
  H   H17       1.0  0.91821  0.73204  0.51112  1.0000
  H   H18       1.0  0.61393  0.20269  0.47888  1.0000
  H   H19       1.0  0.08170  0.26780  0.48882  1.0000
  H   H20       1.0  0.38644  0.79734  0.52113  1.0000
  H   H21       1.0  0.04350  0.64759  0.35347  1.0000
  H   H22       1.0  0.48453  0.28753  0.63560  1.0000
  H   H23       1.0  0.95647  0.35214  0.64650  1.0000
  H   H24       1.0  0.51591  0.71252  0.36444  1.0000
  H   H25       1.0  0.79416  0.84400  0.97120  1.0000
  H   H26       1.0  0.64207  0.73634  0.90731  1.0000
  H   H27       1.0  0.20581  0.15608  0.02878  1.0000
  H   H28       1.0  0.35787  0.26374  0.09273  1.0000
  H   H29       1.0  0.06745  0.72604  0.17418  1.0000
  H   H30       1.0  0.42795  0.57378  0.81245  1.0000
  H   H31       1.0  0.93265  0.27405  0.82586  1.0000
  H   H32       1.0  0.57194  0.42631  0.18759  1.0000
  H   H33       1.0  0.92900  0.80701  0.23670  1.0000
  H   H34       1.0  0.55848  0.58790  0.73947  1.0000
  H   H35       1.0  0.07110  0.19307  0.76335  1.0000
  H   H36       1.0  0.44135  0.41228  0.26056  1.0000
  C   C1        1.0  0.89472  0.43224  0.13638  1.0000
  C   C2        1.0  0.60556  0.31715  0.85680  1.0000
  C   C3        1.0  0.10515  0.56775  0.86361  1.0000
  C   C4        1.0  0.39461  0.68298  0.14318  1.0000
  C   C5        1.0  0.99899  0.39920  0.21434  1.0000
  C   C6        1.0  0.50477  0.19343  0.77846  1.0000
  C   C7        1.0  0.00062  0.60055  0.78562  1.0000
  C   C8        1.0  0.49558  0.80662  0.22156  1.0000
  C   C9        1.0  0.92617  0.44768  0.30977  1.0000
  C   C10       1.0  0.58458  0.14259  0.68546  1.0000
  C   C11       1.0  0.07340  0.55211  0.69018  1.0000
  C   C12       1.0  0.41582  0.85748  0.31457  1.0000
  C   C13       1.0  0.81895  0.36307  0.33603  1.0000
  C   C14       1.0  0.68376  0.03503  0.66322  1.0000
  C   C15       1.0  0.18043  0.63683  0.66390  1.0000
  C   C16       1.0  0.31666  0.96504  0.33682  1.0000
  C   C17       1.0  0.74585  0.41051  0.42287  1.0000
  C   C18       1.0  0.75737  0.98853  0.57645  1.0000
  C   C19       1.0  0.25361  0.58950  0.57707  1.0000
  C   C20       1.0  0.24302  0.01151  0.42359  1.0000
  C   C21       1.0  0.78134  0.54374  0.48463  1.0000
  C   C22       1.0  0.73231  0.05115  0.51156  1.0000
  C   C23       1.0  0.21833  0.45625  0.51535  1.0000
  C   C24       1.0  0.26804  0.94886  0.48846  1.0000
  C   C25       1.0  0.88869  0.62991  0.46059  1.0000
  C   C26       1.0  0.63544  0.15919  0.53235  1.0000
  C   C27       1.0  0.11113  0.36998  0.53938  1.0000
  C   C28       1.0  0.36495  0.84085  0.46768  1.0000
  C   C29       1.0  0.95957  0.58138  0.37309  1.0000
  C   C30       1.0  0.56257  0.20452  0.61927  1.0000
  C   C31       1.0  0.04022  0.41841  0.62689  1.0000
  C   C32       1.0  0.43784  0.79554  0.38077  1.0000
  N   N1        1.0  0.70773  0.59327  0.57647  1.0000
  N   N2        1.0  0.80329  0.00126  0.41874  1.0000
  N   N3        1.0  0.29197  0.40676  0.42352  1.0000
  N   N4        1.0  0.19701  0.99871  0.58128  1.0000
  O   O1        1.0  0.95925  0.41125  0.05708  1.0000
  O   O2        1.0  0.53139  0.37586  0.93195  1.0000
  O   O3        1.0  0.04080  0.58890  0.94297  1.0000
  O   O4        1.0  0.46870  0.62425  0.06801  1.0000
  O   O5        1.0  0.75354  0.48229  0.15408  1.0000
  O   O6        1.0  0.75343  0.35742  0.84500  1.0000
  O   O7        1.0  0.24633  0.51771  0.84586  1.0000
  O   O8        1.0  0.24673  0.64276  0.15499  1.0000
  O   O9        1.0  0.62870  0.51160  0.60194  1.0000
  O   O10       1.0  0.86333  0.89164  0.39291  1.0000
  O   O11       1.0  0.37101  0.48847  0.39808  1.0000
  O   O12       1.0  0.13696  0.10832  0.60711  1.0000
  O   O13       1.0  0.72593  0.71422  0.62645  1.0000
  O   O14       1.0  0.80054  0.06899  0.36841  1.0000
  O   O15       1.0  0.27386  0.28581  0.37351  1.0000
  O   O16       1.0  0.19973  0.93095  0.63159  1.0000
  O   O17       1.0  0.70271  0.78338  0.97481  1.0000
  O   O18       1.0  0.29729  0.21670  0.02520  1.0000
  O   O19       1.0  0.95111  0.75655  0.16980  1.0000
  O   O20       1.0  0.54540  0.60898  0.80820  1.0000
  O   O21       1.0  0.04894  0.24348  0.83026  1.0000
  O   O22       1.0  0.45448  0.39113  0.19183  1.0000
