data_image0
_chemical_formula_structural       Cd4H48C52Br8N8O24
_chemical_formula_sum              "Cd4 H48 C52 Br8 N8 O24"
_cell_length_a       8.04619
_cell_length_b       13.8301
_cell_length_c       15.3555
_cell_angle_alpha    90
_cell_angle_beta     89.9999
_cell_angle_gamma    105.064

_space_group_name_H-M_alt    "P 1"
_space_group_IT_number       1

loop_
  _space_group_symop_operation_xyz
  'x, y, z'

loop_
  _atom_site_type_symbol
  _atom_site_label
  _atom_site_symmetry_multiplicity
  _atom_site_fract_x
  _atom_site_fract_y
  _atom_site_fract_z
  _atom_site_occupancy
  Cd  Cd1       1.0  0.39175  0.63897  0.05905  1.0000
  Cd  Cd2       1.0  0.60825  0.86103  0.55904  1.0000
  Cd  Cd3       1.0  0.60826  0.36103  0.94096  1.0000
  Cd  Cd4       1.0  0.39175  0.13897  0.44096  1.0000
  H   H1        1.0  0.27155  0.43170  0.03108  1.0000
  H   H2        1.0  0.72845  0.06830  0.53109  1.0000
  H   H3        1.0  0.72845  0.56830  0.96891  1.0000
  H   H4        1.0  0.27155  0.93170  0.46891  1.0000
  H   H5        1.0  0.40674  0.44235  0.10317  1.0000
  H   H6        1.0  0.59326  0.05765  0.60317  1.0000
  H   H7        1.0  0.59326  0.55765  0.89683  1.0000
  H   H8        1.0  0.40674  0.94235  0.39683  1.0000
  H   H9        1.0  0.55326  0.85963  0.06961  1.0000
  H   H10       1.0  0.44673  0.64037  0.56961  1.0000
  H   H11       1.0  0.44673  0.14037  0.93039  1.0000
  H   H12       1.0  0.55327  0.35963  0.43039  1.0000
  H   H13       1.0  0.47301  0.60575  0.74317  1.0000
  H   H14       1.0  0.52699  0.89425  0.24317  1.0000
  H   H15       1.0  0.52699  0.39425  0.25683  1.0000
  H   H16       1.0  0.47300  0.10575  0.75683  1.0000
  H   H17       1.0  0.09887  0.56229  0.55050  1.0000
  H   H18       1.0  0.90113  0.93771  0.05050  1.0000
  H   H19       1.0  0.90112  0.43771  0.44949  1.0000
  H   H20       1.0  0.09887  0.06228  0.94949  1.0000
  H   H21       1.0  0.94589  0.57542  0.82020  1.0000
  H   H22       1.0  0.05411  0.92458  0.32020  1.0000
  H   H23       1.0  0.05411  0.42459  0.17980  1.0000
  H   H24       1.0  0.94589  0.07541  0.67980  1.0000
  H   H25       1.0  0.81864  0.68730  0.31283  1.0000
  H   H26       1.0  0.18136  0.81270  0.81282  1.0000
  H   H27       1.0  0.18136  0.31270  0.68718  1.0000
  H   H28       1.0  0.81864  0.18730  0.18718  1.0000
  H   H29       1.0  0.34576  0.68054  0.26101  1.0000
  H   H30       1.0  0.65425  0.81946  0.76101  1.0000
  H   H31       1.0  0.65425  0.31946  0.73899  1.0000
  H   H32       1.0  0.34575  0.18054  0.23899  1.0000
  H   H33       1.0  0.99892  0.63933  0.05623  1.0000
  H   H34       1.0  0.00108  0.86067  0.55623  1.0000
  H   H35       1.0  0.00108  0.36067  0.94377  1.0000
  H   H36       1.0  0.99892  0.13933  0.44377  1.0000
  H   H37       1.0  0.47437  0.82975  0.90102  1.0000
  H   H38       1.0  0.52563  0.67025  0.40102  1.0000
  H   H39       1.0  0.52563  0.17025  0.09898  1.0000
  H   H40       1.0  0.47437  0.32975  0.59898  1.0000
  H   H41       1.0  0.45649  0.93793  0.96004  1.0000
  H   H42       1.0  0.54351  0.56206  0.46004  1.0000
  H   H43       1.0  0.54351  0.06206  0.03996  1.0000
  H   H44       1.0  0.45649  0.43794  0.53996  1.0000
  H   H45       1.0  0.27347  0.83383  0.94998  1.0000
  H   H46       1.0  0.72653  0.66617  0.44998  1.0000
  H   H47       1.0  0.72653  0.16617  0.05002  1.0000
  H   H48       1.0  0.27347  0.33383  0.55002  1.0000
  C   C1        1.0  0.27034  0.60620  0.88639  1.0000
  C   C2        1.0  0.72967  0.89380  0.38639  1.0000
  C   C3        1.0  0.72966  0.39380  0.11361  1.0000
  C   C4        1.0  0.27034  0.10620  0.61361  1.0000
  C   C5        1.0  0.21563  0.59016  0.79289  1.0000
  C   C6        1.0  0.78437  0.90984  0.29289  1.0000
  C   C7        1.0  0.78437  0.40984  0.20711  1.0000
  C   C8        1.0  0.21563  0.09016  0.70711  1.0000
  C   C9        1.0  0.33713  0.59345  0.72699  1.0000
  C   C10       1.0  0.66287  0.90655  0.22699  1.0000
  C   C11       1.0  0.66287  0.40655  0.27301  1.0000
  C   C12       1.0  0.33713  0.09345  0.77301  1.0000
  C   C13       1.0  0.12888  0.56942  0.61986  1.0000
  C   C14       1.0  0.87113  0.93058  0.11986  1.0000
  C   C15       1.0  0.87112  0.43058  0.38014  1.0000
  C   C16       1.0  0.12888  0.06942  0.88014  1.0000
  C   C17       1.0  0.00102  0.56643  0.68198  1.0000
  C   C18       1.0  0.99898  0.93357  0.18198  1.0000
  C   C19       1.0  0.99898  0.43357  0.31802  1.0000
  C   C20       1.0  0.00102  0.06643  0.81802  1.0000
  C   C21       1.0  0.04278  0.57674  0.77002  1.0000
  C   C22       1.0  0.95722  0.92326  0.27002  1.0000
  C   C23       1.0  0.95723  0.42326  0.22998  1.0000
  C   C24       1.0  0.04277  0.07674  0.72998  1.0000
  C   C25       1.0  0.70911  0.65559  0.14619  1.0000
  C   C26       1.0  0.29088  0.84442  0.64619  1.0000
  C   C27       1.0  0.29089  0.34442  0.85381  1.0000
  C   C28       1.0  0.70912  0.15558  0.35381  1.0000
  C   C29       1.0  0.88655  0.66271  0.18076  1.0000
  C   C30       1.0  0.11345  0.83729  0.68076  1.0000
  C   C31       1.0  0.11346  0.33729  0.81924  1.0000
  C   C32       1.0  0.88654  0.16270  0.31924  1.0000
  C   C33       1.0  0.92114  0.67945  0.26941  1.0000
  C   C34       1.0  0.07886  0.82055  0.76941  1.0000
  C   C35       1.0  0.07886  0.32055  0.73059  1.0000
  C   C36       1.0  0.92114  0.17945  0.23059  1.0000
  C   C37       1.0  0.08703  0.68617  0.29908  1.0000
  C   C38       1.0  0.91297  0.81383  0.79908  1.0000
  C   C39       1.0  0.91297  0.31383  0.70092  1.0000
  C   C40       1.0  0.08703  0.18617  0.20092  1.0000
  C   C41       1.0  0.21425  0.67598  0.24057  1.0000
  C   C42       1.0  0.78575  0.82403  0.74056  1.0000
  C   C43       1.0  0.78575  0.32403  0.75944  1.0000
  C   C44       1.0  0.21425  0.17597  0.25944  1.0000
  C   C45       1.0  0.01956  0.65301  0.12570  1.0000
  C   C46       1.0  0.98044  0.84700  0.62570  1.0000
  C   C47       1.0  0.98044  0.34700  0.87430  1.0000
  C   C48       1.0  0.01956  0.15300  0.37430  1.0000
  C   C49       1.0  0.41404  0.85582  0.95759  1.0000
  C   C50       1.0  0.58595  0.64418  0.45759  1.0000
  C   C51       1.0  0.58595  0.14418  0.04241  1.0000
  C   C52       1.0  0.41404  0.35582  0.54241  1.0000
  Br  Br1       1.0  0.77237  0.55423  0.64426  1.0000
  Br  Br2       1.0  0.22763  0.94577  0.14425  1.0000
  Br  Br3       1.0  0.22763  0.44579  0.35575  1.0000
  Br  Br4       1.0  0.77237  0.05421  0.85575  1.0000
  Br  Br5       1.0  0.14430  0.71117  0.41781  1.0000
  Br  Br6       1.0  0.85569  0.78884  0.91781  1.0000
  Br  Br7       1.0  0.85570  0.28883  0.58219  1.0000
  Br  Br8       1.0  0.14429  0.21118  0.08219  1.0000
  N   N1        1.0  0.29468  0.58352  0.64234  1.0000
  N   N2        1.0  0.70532  0.91648  0.14234  1.0000
  N   N3        1.0  0.70532  0.41647  0.35766  1.0000
  N   N4        1.0  0.29468  0.08353  0.85766  1.0000
  N   N5        1.0  0.17902  0.65927  0.15555  1.0000
  N   N6        1.0  0.82098  0.84073  0.65554  1.0000
  N   N7        1.0  0.82098  0.34073  0.84446  1.0000
  N   N8        1.0  0.17902  0.15927  0.34445  1.0000
  O   O1        1.0  0.42931  0.61543  0.90443  1.0000
  O   O2        1.0  0.57069  0.88457  0.40444  1.0000
  O   O3        1.0  0.57069  0.38458  0.09556  1.0000
  O   O4        1.0  0.42931  0.11542  0.59556  1.0000
  O   O5        1.0  0.15979  0.61261  0.94301  1.0000
  O   O6        1.0  0.84021  0.88738  0.44301  1.0000
  O   O7        1.0  0.84021  0.38739  0.05699  1.0000
  O   O8        1.0  0.15979  0.11261  0.55699  1.0000
  O   O9        1.0  0.68477  0.64003  0.06406  1.0000
  O   O10       1.0  0.31522  0.85996  0.56406  1.0000
  O   O11       1.0  0.31522  0.35996  0.93594  1.0000
  O   O12       1.0  0.68478  0.14004  0.43594  1.0000
  O   O13       1.0  0.59305  0.66579  0.19783  1.0000
  O   O14       1.0  0.40696  0.83421  0.69783  1.0000
  O   O15       1.0  0.40696  0.33421  0.80217  1.0000
  O   O16       1.0  0.59304  0.16578  0.30217  1.0000
  O   O17       1.0  0.30528  0.46702  0.08686  1.0000
  O   O18       1.0  0.69472  0.03297  0.58686  1.0000
  O   O19       1.0  0.69472  0.53298  0.91314  1.0000
  O   O20       1.0  0.30528  0.96702  0.41314  1.0000
  O   O21       1.0  0.45560  0.81302  0.03678  1.0000
  O   O22       1.0  0.54440  0.68698  0.53678  1.0000
  O   O23       1.0  0.54440  0.18698  0.96322  1.0000
  O   O24       1.0  0.45560  0.31302  0.46322  1.0000
