data_image0
_chemical_formula_structural       Cd4H28C48Br8N8O18
_chemical_formula_sum              "Cd4 H28 C48 Br8 N8 O18"
_cell_length_a       11.7067
_cell_length_b       11.7067
_cell_length_c       14.7708
_cell_angle_alpha    109.123
_cell_angle_beta     109.123
_cell_angle_gamma    98.4901

_space_group_name_H-M_alt    "P 1"
_space_group_IT_number       1

loop_
  _space_group_symop_operation_xyz
  'x, y, z'

loop_
  _atom_site_type_symbol
  _atom_site_label
  _atom_site_symmetry_multiplicity
  _atom_site_fract_x
  _atom_site_fract_y
  _atom_site_fract_z
  _atom_site_occupancy
  Cd  Cd1       1.0  0.02326  0.78041  0.78615  1.0000
  Cd  Cd2       1.0  0.21959  0.97674  0.71385  1.0000
  Cd  Cd3       1.0  0.97674  0.21958  0.21385  1.0000
  Cd  Cd4       1.0  0.78042  0.02326  0.28615  1.0000
  H   H1        1.0  0.26537  0.79893  0.81800  1.0000
  H   H2        1.0  0.20107  0.73463  0.68200  1.0000
  H   H3        1.0  0.73463  0.20107  0.18200  1.0000
  H   H4        1.0  0.79893  0.26537  0.31800  1.0000
  H   H5        1.0  0.03193  0.11802  0.01736  1.0000
  H   H6        1.0  0.88197  0.96807  0.48264  1.0000
  H   H7        1.0  0.96807  0.88198  0.98264  1.0000
  H   H8        1.0  0.11803  0.03193  0.51736  1.0000
  H   H9        1.0  0.43066  0.19658  0.08822  1.0000
  H   H10       1.0  0.80342  0.56934  0.41178  1.0000
  H   H11       1.0  0.56934  0.80342  0.91178  1.0000
  H   H12       1.0  0.19658  0.43066  0.58822  1.0000
  H   H13       1.0  0.28343  0.30173  0.32853  1.0000
  H   H14       1.0  0.69827  0.71657  0.17147  1.0000
  H   H15       1.0  0.71657  0.69827  0.67147  1.0000
  H   H16       1.0  0.30173  0.28343  0.82853  1.0000
  H   H17       1.0  0.52970  0.90636  0.08870  1.0000
  H   H18       1.0  0.09364  0.47030  0.41130  1.0000
  H   H19       1.0  0.47030  0.09365  0.91130  1.0000
  H   H20       1.0  0.90636  0.52970  0.58870  1.0000
  H   H21       1.0  0.19576  0.90130  0.15292  1.0000
  H   H22       1.0  0.09870  0.80424  0.34708  1.0000
  H   H23       1.0  0.80424  0.09870  0.84708  1.0000
  H   H24       1.0  0.90131  0.19576  0.65292  1.0000
  H   H25       1.0  0.57381  0.05339  0.39863  1.0000
  H   H26       1.0  0.94661  0.42619  0.10137  1.0000
  H   H27       1.0  0.42619  0.94661  0.60137  1.0000
  H   H28       1.0  0.05339  0.57381  0.89863  1.0000
  C   C1        1.0  0.13017  0.15768  0.07285  1.0000
  C   C2        1.0  0.84232  0.86983  0.42715  1.0000
  C   C3        1.0  0.86983  0.84232  0.92715  1.0000
  C   C4        1.0  0.15768  0.13017  0.57285  1.0000
  C   C5        1.0  0.22766  0.15006  0.03847  1.0000
  C   C6        1.0  0.84994  0.77233  0.46153  1.0000
  C   C7        1.0  0.77234  0.84994  0.96153  1.0000
  C   C8        1.0  0.15006  0.22766  0.53847  1.0000
  C   C9        1.0  0.35249  0.20169  0.11271  1.0000
  C   C10       1.0  0.79831  0.64751  0.38728  1.0000
  C   C11       1.0  0.64751  0.79831  0.88729  1.0000
  C   C12       1.0  0.20169  0.35249  0.61271  1.0000
  C   C13       1.0  0.37318  0.25564  0.21830  1.0000
  C   C14       1.0  0.74436  0.62682  0.28170  1.0000
  C   C15       1.0  0.62682  0.74436  0.78170  1.0000
  C   C16       1.0  0.25564  0.37318  0.71830  1.0000
  C   C17       1.0  0.27101  0.26071  0.24693  1.0000
  C   C18       1.0  0.73929  0.72899  0.25307  1.0000
  C   C19       1.0  0.72899  0.73929  0.75307  1.0000
  C   C20       1.0  0.26071  0.27101  0.74693  1.0000
  C   C21       1.0  0.19378  0.08013  0.92327  1.0000
  C   C22       1.0  0.91987  0.80622  0.57673  1.0000
  C   C23       1.0  0.80622  0.91987  0.07673  1.0000
  C   C24       1.0  0.08013  0.19378  0.42327  1.0000
  C   C25       1.0  0.48403  0.92585  0.14317  1.0000
  C   C26       1.0  0.07415  0.51597  0.35683  1.0000
  C   C27       1.0  0.51597  0.07415  0.85683  1.0000
  C   C28       1.0  0.92585  0.48403  0.64317  1.0000
  C   C29       1.0  0.35274  0.89497  0.10644  1.0000
  C   C30       1.0  0.10503  0.64726  0.39356  1.0000
  C   C31       1.0  0.64726  0.10503  0.89356  1.0000
  C   C32       1.0  0.89497  0.35274  0.60644  1.0000
  C   C33       1.0  0.29796  0.92307  0.17922  1.0000
  C   C34       1.0  0.07693  0.70204  0.32078  1.0000
  C   C35       1.0  0.70204  0.07693  0.82078  1.0000
  C   C36       1.0  0.92307  0.29796  0.67922  1.0000
  C   C37       1.0  0.37821  0.98022  0.28519  1.0000
  C   C38       1.0  0.01978  0.62179  0.21481  1.0000
  C   C39       1.0  0.62180  0.01978  0.71481  1.0000
  C   C40       1.0  0.98022  0.37821  0.78519  1.0000
  C   C41       1.0  0.50879  0.00777  0.31635  1.0000
  C   C42       1.0  0.99223  0.49121  0.18365  1.0000
  C   C43       1.0  0.49121  0.99223  0.68365  1.0000
  C   C44       1.0  0.00777  0.50879  0.81635  1.0000
  C   C45       1.0  0.27587  0.83698  0.98957  1.0000
  C   C46       1.0  0.16302  0.72413  0.51043  1.0000
  C   C47       1.0  0.72413  0.16302  0.01043  1.0000
  C   C48       1.0  0.83698  0.27587  0.48957  1.0000
  Br  Br1       1.0  0.53898  0.31841  0.32459  1.0000
  Br  Br2       1.0  0.68159  0.46102  0.17541  1.0000
  Br  Br3       1.0  0.46102  0.68159  0.67542  1.0000
  Br  Br4       1.0  0.31841  0.53898  0.82459  1.0000
  Br  Br5       1.0  0.31275  0.02462  0.38987  1.0000
  Br  Br6       1.0  0.97538  0.68725  0.11013  1.0000
  Br  Br7       1.0  0.68725  0.97538  0.61013  1.0000
  Br  Br8       1.0  0.02462  0.31275  0.88987  1.0000
  N   N1        1.0  0.15188  0.21307  0.17428  1.0000
  N   N2        1.0  0.78693  0.84812  0.32572  1.0000
  N   N3        1.0  0.84812  0.78693  0.82572  1.0000
  N   N4        1.0  0.21307  0.15188  0.67428  1.0000
  N   N5        1.0  0.55983  0.98039  0.24544  1.0000
  N   N6        1.0  0.01961  0.44017  0.25456  1.0000
  N   N7        1.0  0.44017  0.01961  0.75456  1.0000
  N   N8        1.0  0.98039  0.55983  0.74544  1.0000
  O   O1        1.0  0.08480  0.00289  0.87006  1.0000
  O   O2        1.0  0.99711  0.91520  0.62994  1.0000
  O   O3        1.0  0.91520  0.99711  0.12994  1.0000
  O   O4        1.0  0.00289  0.08480  0.37006  1.0000
  O   O5        1.0  0.27760  0.10378  0.88933  1.0000
  O   O6        1.0  0.89621  0.72240  0.61067  1.0000
  O   O7        1.0  0.72241  0.89622  0.11067  1.0000
  O   O8        1.0  0.10378  0.27760  0.38933  1.0000
  O   O9        1.0  0.33846  0.82045  0.93262  1.0000
  O   O10       1.0  0.17955  0.66154  0.56739  1.0000
  O   O11       1.0  0.66154  0.17955  0.06738  1.0000
  O   O12       1.0  0.82045  0.33846  0.43262  1.0000
  O   O13       1.0  0.15652  0.81173  0.95851  1.0000
  O   O14       1.0  0.18827  0.84348  0.54149  1.0000
  O   O15       1.0  0.84348  0.18827  0.04149  1.0000
  O   O16       1.0  0.81173  0.15652  0.45851  1.0000
  O   O17       1.0  0.20217  0.79783  0.75000  1.0000
  O   O18       1.0  0.79783  0.20217  0.25000  1.0000
