data_image0
_chemical_formula_structural       CdH6C12Br2N2O4
_chemical_formula_sum              "Cd1 H6 C12 Br2 N2 O4"
_cell_length_a       7.9064
_cell_length_b       7.90644
_cell_length_c       9.03523
_cell_angle_alpha    67.9851
_cell_angle_beta     67.9856
_cell_angle_gamma    80.6691

_space_group_name_H-M_alt    "P 1"
_space_group_IT_number       1

loop_
  _space_group_symop_operation_xyz
  'x, y, z'

loop_
  _atom_site_type_symbol
  _atom_site_label
  _atom_site_symmetry_multiplicity
  _atom_site_fract_x
  _atom_site_fract_y
  _atom_site_fract_z
  _atom_site_occupancy
  Cd  Cd1       1.0  0.46617  0.53383  0.00000  1.0000
  H   H1        1.0  0.86764  0.53473  0.99909  1.0000
  H   H2        1.0  0.46527  0.13236  0.00091  1.0000
  H   H3        1.0  0.68741  0.49418  0.63686  1.0000
  H   H4        1.0  0.50582  0.31259  0.36314  1.0000
  H   H5        1.0  0.26961  0.48060  0.53834  1.0000
  H   H6        1.0  0.51940  0.73040  0.46166  1.0000
  C   C1        1.0  0.23482  0.50872  0.84115  1.0000
  C   C2        1.0  0.49128  0.76517  0.15886  1.0000
  C   C3        1.0  0.08601  0.50498  0.77732  1.0000
  C   C4        1.0  0.49501  0.91399  0.22268  1.0000
  C   C5        1.0  0.90329  0.51929  0.87588  1.0000
  C   C6        1.0  0.48071  0.09671  0.12411  1.0000
  C   C7        1.0  0.80386  0.49818  0.67203  1.0000
  C   C8        1.0  0.50182  0.19614  0.32797  1.0000
  C   C9        1.0  0.98340  0.48602  0.56620  1.0000
  C   C10       1.0  0.51399  0.01660  0.43380  1.0000
  C   C11       1.0  0.12764  0.48864  0.61839  1.0000
  C   C12       1.0  0.51136  0.87236  0.38161  1.0000
  Br  Br1       1.0  0.02502  0.47187  0.35053  1.0000
  Br  Br2       1.0  0.52813  0.97498  0.64947  1.0000
  N   N1        1.0  0.76609  0.51527  0.82384  1.0000
  N   N2        1.0  0.48473  0.23391  0.17615  1.0000
  O   O1        1.0  0.39905  0.49103  0.75235  1.0000
  O   O2        1.0  0.50897  0.60095  0.24765  1.0000
  O   O3        1.0  0.18556  0.53078  0.98538  1.0000
  O   O4        1.0  0.46922  0.81444  0.01462  1.0000
