data_image0
_chemical_formula_structural       Cd4H24C48Br8N8O16
_chemical_formula_sum              "Cd4 H24 C48 Br8 N8 O16"
_cell_length_a       9.86123
_cell_length_b       11.3387
_cell_length_c       13.4335
_cell_angle_alpha    108.961
_cell_angle_beta     90
_cell_angle_gamma    90

_space_group_name_H-M_alt    "P 1"
_space_group_IT_number       1

loop_
  _space_group_symop_operation_xyz
  'x, y, z'

loop_
  _atom_site_type_symbol
  _atom_site_label
  _atom_site_symmetry_multiplicity
  _atom_site_fract_x
  _atom_site_fract_y
  _atom_site_fract_z
  _atom_site_occupancy
  Cd  Cd1       1.0  0.62145  0.41338  0.60129  1.0000
  Cd  Cd2       1.0  0.12145  0.08662  0.89871  1.0000
  Cd  Cd3       1.0  0.37855  0.58662  0.39871  1.0000
  Cd  Cd4       1.0  0.87855  0.91338  0.10130  1.0000
  H   H1        1.0  0.40999  0.29216  0.71943  1.0000
  H   H2        1.0  0.90999  0.20784  0.78057  1.0000
  H   H3        1.0  0.59001  0.70784  0.28057  1.0000
  H   H4        1.0  0.09001  0.79216  0.21943  1.0000
  H   H5        1.0  0.71393  0.65387  0.79036  1.0000
  H   H6        1.0  0.21393  0.84613  0.70964  1.0000
  H   H7        1.0  0.28607  0.34613  0.20964  1.0000
  H   H8        1.0  0.78607  0.15387  0.29036  1.0000
  H   H9        1.0  0.20489  0.97642  0.50286  1.0000
  H   H10       1.0  0.70489  0.52358  0.99714  1.0000
  H   H11       1.0  0.79511  0.02358  0.49714  1.0000
  H   H12       1.0  0.29511  0.47642  0.00286  1.0000
  H   H13       1.0  0.98347  0.88463  0.67961  1.0000
  H   H14       1.0  0.48347  0.61537  0.82039  1.0000
  H   H15       1.0  0.01653  0.11537  0.32039  1.0000
  H   H16       1.0  0.51653  0.38463  0.17961  1.0000
  H   H17       1.0  0.51647  0.18390  0.40344  1.0000
  H   H18       1.0  0.01647  0.31610  0.09656  1.0000
  H   H19       1.0  0.48353  0.81610  0.59656  1.0000
  H   H20       1.0  0.98353  0.68390  0.90344  1.0000
  H   H21       1.0  0.81377  0.53929  0.47291  1.0000
  H   H22       1.0  0.31378  0.96071  0.02710  1.0000
  H   H23       1.0  0.18622  0.46071  0.52710  1.0000
  H   H24       1.0  0.68622  0.03929  0.97290  1.0000
  C   C1        1.0  0.39355  0.22806  0.64009  1.0000
  C   C2        1.0  0.89355  0.27194  0.85991  1.0000
  C   C3        1.0  0.60645  0.77194  0.35991  1.0000
  C   C4        1.0  0.10645  0.72806  0.14009  1.0000
  C   C5        1.0  0.76905  0.67372  0.72734  1.0000
  C   C6        1.0  0.26905  0.82628  0.77266  1.0000
  C   C7        1.0  0.23095  0.32628  0.27266  1.0000
  C   C8        1.0  0.73095  0.17372  0.22734  1.0000
  C   C9        1.0  0.29872  0.13157  0.62157  1.0000
  C   C10       1.0  0.79872  0.36843  0.87843  1.0000
  C   C11       1.0  0.70128  0.86843  0.37843  1.0000
  C   C12       1.0  0.20128  0.63157  0.12157  1.0000
  C   C13       1.0  0.85033  0.78001  0.74844  1.0000
  C   C14       1.0  0.35033  0.71999  0.75156  1.0000
  C   C15       1.0  0.14967  0.21999  0.25156  1.0000
  C   C16       1.0  0.64967  0.28001  0.24844  1.0000
  C   C17       1.0  0.27945  0.05131  0.51856  1.0000
  C   C18       1.0  0.77945  0.44869  0.98144  1.0000
  C   C19       1.0  0.72055  0.94869  0.48144  1.0000
  C   C20       1.0  0.22055  0.55131  0.01856  1.0000
  C   C21       1.0  0.92126  0.80125  0.66569  1.0000
  C   C22       1.0  0.42125  0.69875  0.83431  1.0000
  C   C23       1.0  0.07875  0.19875  0.33431  1.0000
  C   C24       1.0  0.57875  0.30125  0.16569  1.0000
  C   C25       1.0  0.35873  0.07046  0.43926  1.0000
  C   C26       1.0  0.85873  0.42954  0.06074  1.0000
  C   C27       1.0  0.64127  0.92954  0.56074  1.0000
  C   C28       1.0  0.14127  0.57046  0.93926  1.0000
  C   C29       1.0  0.91014  0.71269  0.56589  1.0000
  C   C30       1.0  0.41014  0.78730  0.93411  1.0000
  C   C31       1.0  0.08986  0.28730  0.43411  1.0000
  C   C32       1.0  0.58986  0.21269  0.06588  1.0000
  C   C33       1.0  0.45204  0.16816  0.46370  1.0000
  C   C34       1.0  0.95204  0.33184  0.03630  1.0000
  C   C35       1.0  0.54796  0.83183  0.53630  1.0000
  C   C36       1.0  0.04796  0.66817  0.96370  1.0000
  C   C37       1.0  0.82590  0.60922  0.55021  1.0000
  C   C38       1.0  0.32590  0.89078  0.94979  1.0000
  C   C39       1.0  0.17410  0.39078  0.44979  1.0000
  C   C40       1.0  0.67410  0.10922  0.05021  1.0000
  C   C41       1.0  0.22206  0.11382  0.71245  1.0000
  C   C42       1.0  0.72206  0.38618  0.78755  1.0000
  C   C43       1.0  0.77794  0.88618  0.28755  1.0000
  C   C44       1.0  0.27794  0.61382  0.21245  1.0000
  C   C45       1.0  0.86286  0.86764  0.85977  1.0000
  C   C46       1.0  0.36286  0.63236  0.64023  1.0000
  C   C47       1.0  0.13714  0.13236  0.14023  1.0000
  C   C48       1.0  0.63714  0.36764  0.35977  1.0000
  Br  Br1       1.0  0.34710  0.96617  0.29708  1.0000
  Br  Br2       1.0  0.84710  0.53383  0.20292  1.0000
  Br  Br3       1.0  0.65290  0.03383  0.70292  1.0000
  Br  Br4       1.0  0.15290  0.46617  0.79708  1.0000
  Br  Br5       1.0  0.01234  0.72619  0.45085  1.0000
  Br  Br6       1.0  0.51234  0.77381  0.04915  1.0000
  Br  Br7       1.0  0.98766  0.27381  0.54915  1.0000
  Br  Br8       1.0  0.48766  0.22619  0.95085  1.0000
  N   N1        1.0  0.46763  0.24608  0.56243  1.0000
  N   N2        1.0  0.96762  0.25392  0.93757  1.0000
  N   N3        1.0  0.53238  0.75392  0.43757  1.0000
  N   N4        1.0  0.03238  0.74608  0.06243  1.0000
  N   N5        1.0  0.75589  0.59139  0.62996  1.0000
  N   N6        1.0  0.25589  0.90861  0.87004  1.0000
  N   N7        1.0  0.24411  0.40861  0.37004  1.0000
  N   N8        1.0  0.74411  0.09139  0.12996  1.0000
  O   O1        1.0  0.26233  0.17749  0.80484  1.0000
  O   O2        1.0  0.76233  0.32251  0.69516  1.0000
  O   O3        1.0  0.73767  0.82251  0.19516  1.0000
  O   O4        1.0  0.23767  0.67749  0.30484  1.0000
  O   O5        1.0  0.80800  0.83012  0.93033  1.0000
  O   O6        1.0  0.30800  0.66988  0.56967  1.0000
  O   O7        1.0  0.19200  0.16988  0.06967  1.0000
  O   O8        1.0  0.69200  0.33012  0.43033  1.0000
  O   O9        1.0  0.12474  0.03690  0.69452  1.0000
  O   O10       1.0  0.62474  0.46310  0.80548  1.0000
  O   O11       1.0  0.87525  0.96310  0.30548  1.0000
  O   O12       1.0  0.37525  0.53690  0.19452  1.0000
  O   O13       1.0  0.92439  0.96986  0.87673  1.0000
  O   O14       1.0  0.42439  0.53014  0.62327  1.0000
  O   O15       1.0  0.07561  0.03014  0.12327  1.0000
  O   O16       1.0  0.57561  0.46986  0.37673  1.0000
