data_image0
_chemical_formula_structural       Cu12H40W2C40S8I8N8
_chemical_formula_sum              "Cu12 H40 W2 C40 S8 I8 N8"
_cell_length_a       12.8686
_cell_length_b       12.8686
_cell_length_c       12.8686
_cell_angle_alpha    69.6412
_cell_angle_beta     72.2892
_cell_angle_gamma    110.359

_space_group_name_H-M_alt    "P 1"
_space_group_IT_number       1

loop_
  _space_group_symop_operation_xyz
  'x, y, z'

loop_
  _atom_site_type_symbol
  _atom_site_label
  _atom_site_symmetry_multiplicity
  _atom_site_fract_x
  _atom_site_fract_y
  _atom_site_fract_z
  _atom_site_occupancy
  Cu  Cu1       1.0  0.57513  0.50000  0.92487  1.0000
  Cu  Cu2       1.0  0.92487  0.50000  0.57513  1.0000
  Cu  Cu3       1.0  0.32516  1.00000  0.67484  1.0000
  Cu  Cu4       1.0  0.67484  0.00000  0.32517  1.0000
  Cu  Cu5       1.0  0.62383  0.45645  0.62527  1.0000
  Cu  Cu6       1.0  0.83261  0.75090  0.62384  1.0000
  Cu  Cu7       1.0  0.91829  0.54355  0.83261  1.0000
  Cu  Cu8       1.0  0.62526  0.24910  0.91829  1.0000
  Cu  Cu9       1.0  0.41715  0.04348  0.33177  1.0000
  Cu  Cu10      1.0  0.33178  0.74892  0.62474  1.0000
  Cu  Cu11      1.0  0.62474  0.95652  0.62634  1.0000
  Cu  Cu12      1.0  0.62633  0.25108  0.41715  1.0000
  H   H1        1.0  0.39473  0.29956  0.62539  1.0000
  H   H2        1.0  0.90484  0.97989  0.39472  1.0000
  H   H3        1.0  0.07505  0.70044  0.90484  1.0000
  H   H4        1.0  0.62538  0.02011  0.07506  1.0000
  H   H5        1.0  0.34494  0.20044  0.17487  1.0000
  H   H6        1.0  0.17487  0.51981  0.62469  1.0000
  H   H7        1.0  0.62468  0.79956  0.85550  1.0000
  H   H8        1.0  0.85550  0.48019  0.34494  1.0000
  H   H9        1.0  0.28024  0.33920  0.50410  1.0000
  H   H10       1.0  0.05896  0.21566  0.28023  1.0000
  H   H11       1.0  0.15670  0.66080  0.05896  1.0000
  H   H12       1.0  0.50410  0.78434  0.15671  1.0000
  H   H13       1.0  0.19086  0.16082  0.09320  1.0000
  H   H14       1.0  0.09321  0.28406  0.74599  1.0000
  H   H15       1.0  0.74598  0.83918  0.96995  1.0000
  H   H16       1.0  0.96995  0.71594  0.19085  1.0000
  H   H17       1.0  0.36806  0.56246  0.33060  1.0000
  H   H18       1.0  0.19440  0.30134  0.36805  1.0000
  H   H19       1.0  0.10693  0.43754  0.19440  1.0000
  H   H20       1.0  0.33061  0.69866  0.10694  1.0000
  H   H21       1.0  0.05554  0.93760  0.14283  1.0000
  H   H22       1.0  0.14284  0.19837  0.91957  1.0000
  H   H23       1.0  0.91956  0.06240  0.88206  1.0000
  H   H24       1.0  0.88206  0.80163  0.05553  1.0000
  H   H25       1.0  0.57319  0.74098  0.28575  1.0000
  H   H26       1.0  0.16779  0.14107  0.57318  1.0000
  H   H27       1.0  0.97327  0.25902  0.16779  1.0000
  H   H28       1.0  0.28575  0.85893  0.97328  1.0000
  H   H29       1.0  0.08217  0.75908  0.27648  1.0000
  H   H30       1.0  0.27649  0.35866  0.96444  1.0000
  H   H31       1.0  0.96443  0.24092  0.67691  1.0000
  H   H32       1.0  0.67691  0.64134  0.08217  1.0000
  H   H33       1.0  0.67290  0.68671  0.41549  1.0000
  H   H34       1.0  0.01380  0.91161  0.67290  1.0000
  H   H35       1.0  0.89780  0.31330  0.01380  1.0000
  H   H36       1.0  0.41549  0.08838  0.89782  1.0000
  H   H37       1.0  0.23598  0.81330  0.35213  1.0000
  H   H38       1.0  0.35212  0.58812  0.83458  1.0000
  H   H39       1.0  0.83458  0.18671  0.57730  1.0000
  H   H40       1.0  0.57730  0.41188  0.23599  1.0000
  W   W1        1.0  0.74999  0.50000  0.75000  1.0000
  W   W2        1.0  0.50000  0.00000  0.50000  1.0000
  C   C1        1.0  0.43005  0.39595  0.54960  1.0000
  C   C2        1.0  0.96590  0.02035  0.43004  1.0000
  C   C3        1.0  0.05445  0.60405  0.96590  1.0000
  C   C4        1.0  0.54960  0.97965  0.05446  1.0000
  C   C5        1.0  0.28391  0.10406  0.19547  1.0000
  C   C6        1.0  0.19547  0.47938  0.70048  1.0000
  C   C7        1.0  0.70047  0.89594  0.82014  1.0000
  C   C8        1.0  0.82014  0.52062  0.28391  1.0000
  C   C9        1.0  0.36751  0.41864  0.48096  1.0000
  C   C10       1.0  0.05113  0.15153  0.36749  1.0000
  C   C11       1.0  0.10040  0.58136  0.05113  1.0000
  C   C12       1.0  0.48097  0.84847  0.10040  1.0000
  C   C13       1.0  0.19870  0.08138  0.14950  1.0000
  C   C14       1.0  0.14950  0.34820  0.76913  1.0000
  C   C15       1.0  0.76912  0.91862  0.88267  1.0000
  C   C16       1.0  0.88268  0.65181  0.19869  1.0000
  C   C17       1.0  0.41673  0.54331  0.38453  1.0000
  C   C18       1.0  0.12659  0.19875  0.41671  1.0000
  C   C19       1.0  0.07215  0.45669  0.12658  1.0000
  C   C20       1.0  0.38454  0.80125  0.07216  1.0000
  C   C21       1.0  0.12332  0.95674  0.17764  1.0000
  C   C22       1.0  0.17766  0.30096  0.86563  1.0000
  C   C23       1.0  0.86562  0.04326  0.83341  1.0000
  C   C24       1.0  0.83341  0.69904  0.12330  1.0000
  C   C25       1.0  0.52831  0.64136  0.35986  1.0000
  C   C26       1.0  0.11305  0.11183  0.52830  1.0000
  C   C27       1.0  0.99878  0.35864  0.11305  1.0000
  C   C28       1.0  0.35986  0.88817  0.99877  1.0000
  C   C29       1.0  0.13688  0.85869  0.25101  1.0000
  C   C30       1.0  0.25101  0.38788  0.89032  1.0000
  C   C31       1.0  0.89031  0.14132  0.72180  1.0000
  C   C32       1.0  0.72180  0.61212  0.13687  1.0000
  C   C33       1.0  0.58585  0.61200  0.43228  1.0000
  C   C34       1.0  0.02615  0.98187  0.58584  1.0000
  C   C35       1.0  0.95571  0.38800  0.02615  1.0000
  C   C36       1.0  0.43228  0.01813  0.95573  1.0000
  C   C37       1.0  0.22372  0.88803  0.29416  1.0000
  C   C38       1.0  0.29415  0.51787  0.81783  1.0000
  C   C39       1.0  0.81782  0.11198  0.66430  1.0000
  C   C40       1.0  0.66430  0.48213  0.22372  1.0000
  S   S1        1.0  0.53620  0.36677  0.84580  1.0000
  S   S2        1.0  0.83058  0.61799  0.53621  1.0000
  S   S3        1.0  0.78743  0.63322  0.83057  1.0000
  S   S4        1.0  0.84581  0.38201  0.78740  1.0000
  S   S5        1.0  0.41950  0.13327  0.46253  1.0000
  S   S6        1.0  0.46253  0.88203  0.40420  1.0000
  S   S7        1.0  0.40420  0.86673  0.71378  1.0000
  S   S8        1.0  0.71378  0.11798  0.41950  1.0000
  I   I1        1.0  0.41254  0.50000  0.08746  1.0000
  I   I2        1.0  0.08745  0.50000  0.41255  1.0000
  I   I3        1.0  0.16257  1.00000  0.83743  1.0000
  I   I4        1.0  0.83743  0.00000  0.16257  1.0000
  I   I5        1.0  0.62505  0.24741  0.62755  1.0000
  I   I6        1.0  0.62236  0.74740  0.62505  1.0000
  I   I7        1.0  0.12504  0.75259  0.62236  1.0000
  I   I8        1.0  0.62755  0.25260  0.12504  1.0000
  N   N1        1.0  0.53755  0.49156  0.52636  1.0000
  N   N2        1.0  0.95400  0.93610  0.53755  1.0000
  N   N3        1.0  0.98209  0.50845  0.95400  1.0000
  N   N4        1.0  0.52635  0.06390  0.98210  1.0000
  N   N5        1.0  0.29583  0.00847  0.26783  1.0000
  N   N6        1.0  0.26783  0.56366  0.72371  1.0000
  N   N7        1.0  0.72371  0.99153  0.71264  1.0000
  N   N8        1.0  0.71264  0.43635  0.29583  1.0000
