data_image0
_chemical_formula_structural       Zn8H36C44N4O28
_chemical_formula_sum              "Zn8 H36 C44 N4 O28"
_cell_length_a       7.4666
_cell_length_b       11.815
_cell_length_c       13.715
_cell_angle_alpha    94.0582
_cell_angle_beta     90.0002
_cell_angle_gamma    89.9999

_space_group_name_H-M_alt    "P 1"
_space_group_IT_number       1

loop_
  _space_group_symop_operation_xyz
  'x, y, z'

loop_
  _atom_site_type_symbol
  _atom_site_label
  _atom_site_symmetry_multiplicity
  _atom_site_fract_x
  _atom_site_fract_y
  _atom_site_fract_z
  _atom_site_occupancy
  Zn  Zn1       1.0  0.44079  0.82520  0.89611  1.0000
  Zn  Zn2       1.0  0.94079  0.17480  0.60390  1.0000
  Zn  Zn3       1.0  0.55921  0.17480  0.10389  1.0000
  Zn  Zn4       1.0  0.05921  0.82520  0.39611  1.0000
  Zn  Zn5       1.0  0.22190  0.91215  0.21098  1.0000
  Zn  Zn6       1.0  0.72191  0.08785  0.28902  1.0000
  Zn  Zn7       1.0  0.77809  0.08785  0.78902  1.0000
  Zn  Zn8       1.0  0.27809  0.91215  0.71098  1.0000
  H   H1        1.0  0.16150  0.95192  0.87373  1.0000
  H   H2        1.0  0.66150  0.04808  0.62627  1.0000
  H   H3        1.0  0.83850  0.04808  0.12627  1.0000
  H   H4        1.0  0.33850  0.95192  0.37373  1.0000
  H   H5        1.0  0.77961  0.77602  0.14466  1.0000
  H   H6        1.0  0.27962  0.22398  0.35534  1.0000
  H   H7        1.0  0.22038  0.22398  0.85534  1.0000
  H   H8        1.0  0.72038  0.77602  0.64466  1.0000
  H   H9        1.0  0.64577  0.65788  0.11130  1.0000
  H   H10       1.0  0.14578  0.34212  0.38870  1.0000
  H   H11       1.0  0.35423  0.34212  0.88870  1.0000
  H   H12       1.0  0.85422  0.65787  0.61130  1.0000
  H   H13       1.0  0.00653  0.80350  0.95592  1.0000
  H   H14       1.0  0.50654  0.19651  0.54408  1.0000
  H   H15       1.0  0.99346  0.19651  0.04408  1.0000
  H   H16       1.0  0.49346  0.80349  0.45592  1.0000
  H   H17       1.0  0.88389  0.88775  0.04194  1.0000
  H   H18       1.0  0.38389  0.11225  0.45806  1.0000
  H   H19       1.0  0.11611  0.11225  0.95806  1.0000
  H   H20       1.0  0.61611  0.88775  0.54194  1.0000
  H   H21       1.0  0.90157  0.71555  0.81501  1.0000
  H   H22       1.0  0.40157  0.28446  0.68499  1.0000
  H   H23       1.0  0.09843  0.28446  0.18499  1.0000
  H   H24       1.0  0.59843  0.71554  0.31501  1.0000
  H   H25       1.0  0.96525  0.53772  0.71898  1.0000
  H   H26       1.0  0.46525  0.46228  0.78102  1.0000
  H   H27       1.0  0.03475  0.46228  0.28101  1.0000
  H   H28       1.0  0.53475  0.53772  0.21899  1.0000
  H   H29       1.0  0.68590  0.52143  0.04642  1.0000
  H   H30       1.0  0.18590  0.47857  0.45358  1.0000
  H   H31       1.0  0.31410  0.47857  0.95358  1.0000
  H   H32       1.0  0.81410  0.52143  0.54642  1.0000
  H   H33       1.0  0.76271  0.34794  0.95082  1.0000
  H   H34       1.0  0.26271  0.65206  0.54918  1.0000
  H   H35       1.0  0.23729  0.65206  0.04918  1.0000
  H   H36       1.0  0.73729  0.34794  0.45082  1.0000
  C   C1        1.0  0.50870  0.81239  0.10755  1.0000
  C   C2        1.0  0.00870  0.18761  0.39245  1.0000
  C   C3        1.0  0.49130  0.18761  0.89245  1.0000
  C   C4        1.0  0.99130  0.81239  0.60755  1.0000
  C   C5        1.0  0.67963  0.74326  0.09093  1.0000
  C   C6        1.0  0.17963  0.25674  0.40907  1.0000
  C   C7        1.0  0.32037  0.25674  0.90907  1.0000
  C   C8        1.0  0.82037  0.74325  0.59093  1.0000
  C   C9        1.0  0.81129  0.91098  0.89696  1.0000
  C   C10       1.0  0.31131  0.08902  0.60304  1.0000
  C   C11       1.0  0.18870  0.08902  0.10304  1.0000
  C   C12       1.0  0.68870  0.91098  0.39696  1.0000
  C   C13       1.0  0.86995  0.83336  0.97421  1.0000
  C   C14       1.0  0.36995  0.16664  0.52579  1.0000
  C   C15       1.0  0.13005  0.16665  0.02579  1.0000
  C   C16       1.0  0.63005  0.83335  0.47421  1.0000
  C   C17       1.0  0.78720  0.63516  0.93942  1.0000
  C   C18       1.0  0.28720  0.36484  0.56059  1.0000
  C   C19       1.0  0.21281  0.36484  0.06059  1.0000
  C   C20       1.0  0.71281  0.63516  0.43941  1.0000
  C   C21       1.0  0.86801  0.63596  0.84609  1.0000
  C   C22       1.0  0.36801  0.36404  0.65391  1.0000
  C   C23       1.0  0.13199  0.36404  0.15391  1.0000
  C   C24       1.0  0.63199  0.63596  0.34609  1.0000
  C   C25       1.0  0.90323  0.53565  0.79080  1.0000
  C   C26       1.0  0.40323  0.46435  0.70920  1.0000
  C   C27       1.0  0.09678  0.46435  0.20920  1.0000
  C   C28       1.0  0.59678  0.53565  0.29080  1.0000
  C   C29       1.0  0.74654  0.52896  0.97503  1.0000
  C   C30       1.0  0.24654  0.47104  0.52497  1.0000
  C   C31       1.0  0.25346  0.47105  0.02497  1.0000
  C   C32       1.0  0.75346  0.52895  0.47503  1.0000
  C   C33       1.0  0.78919  0.42912  0.92063  1.0000
  C   C34       1.0  0.28919  0.57088  0.57937  1.0000
  C   C35       1.0  0.21081  0.57088  0.07937  1.0000
  C   C36       1.0  0.71081  0.42912  0.42063  1.0000
  C   C37       1.0  0.86519  0.43032  0.82709  1.0000
  C   C38       1.0  0.36520  0.56968  0.67291  1.0000
  C   C39       1.0  0.13481  0.56968  0.17291  1.0000
  C   C40       1.0  0.63481  0.43032  0.32709  1.0000
  C   C41       1.0  0.89809  0.32245  0.76890  1.0000
  C   C42       1.0  0.39809  0.67756  0.73110  1.0000
  C   C43       1.0  0.10190  0.67756  0.23110  1.0000
  C   C44       1.0  0.60191  0.32244  0.26890  1.0000
  N   N1        1.0  0.75245  0.73885  0.99231  1.0000
  N   N2        1.0  0.25245  0.26115  0.50769  1.0000
  N   N3        1.0  0.24755  0.26115  0.00769  1.0000
  N   N4        1.0  0.74755  0.73885  0.49231  1.0000
  O   O1        1.0  0.40954  0.84085  0.03780  1.0000
  O   O2        1.0  0.90955  0.15915  0.46220  1.0000
  O   O3        1.0  0.59045  0.15915  0.96220  1.0000
  O   O4        1.0  0.09045  0.84085  0.53780  1.0000
  O   O5        1.0  0.46535  0.83571  0.19616  1.0000
  O   O6        1.0  0.96535  0.16429  0.30384  1.0000
  O   O7        1.0  0.53465  0.16429  0.80384  1.0000
  O   O8        1.0  0.03464  0.83571  0.69616  1.0000
  O   O9        1.0  0.66270  0.90121  0.85278  1.0000
  O   O10       1.0  0.16270  0.09880  0.64722  1.0000
  O   O11       1.0  0.33730  0.09880  0.14722  1.0000
  O   O12       1.0  0.83730  0.90120  0.35278  1.0000
  O   O13       1.0  0.91870  0.99126  0.87871  1.0000
  O   O14       1.0  0.41870  0.00874  0.62129  1.0000
  O   O15       1.0  0.08130  0.00874  0.12129  1.0000
  O   O16       1.0  0.58130  0.99126  0.37871  1.0000
  O   O17       1.0  0.90176  0.32355  0.67502  1.0000
  O   O18       1.0  0.40175  0.67645  0.82498  1.0000
  O   O19       1.0  0.09824  0.67645  0.32498  1.0000
  O   O20       1.0  0.59824  0.32355  0.17502  1.0000
  O   O21       1.0  0.91994  0.23272  0.81481  1.0000
  O   O22       1.0  0.41994  0.76728  0.68519  1.0000
  O   O23       1.0  0.08005  0.76728  0.18519  1.0000
  O   O24       1.0  0.58006  0.23272  0.31481  1.0000
  O   O25       1.0  0.28642  0.94660  0.85171  1.0000
  O   O26       1.0  0.78642  0.05341  0.64829  1.0000
  O   O27       1.0  0.71358  0.05341  0.14829  1.0000
  O   O28       1.0  0.21358  0.94659  0.35171  1.0000
