data_image0
_chemical_formula_structural       Ag4H44C52N8O12
_chemical_formula_sum              "Ag4 H44 C52 N8 O12"
_cell_length_a       7.1967
_cell_length_b       10.729
_cell_length_c       16.6112
_cell_angle_alpha    107.803
_cell_angle_beta     89.9996
_cell_angle_gamma    90

_space_group_name_H-M_alt    "P 1"
_space_group_IT_number       1

loop_
  _space_group_symop_operation_xyz
  'x, y, z'

loop_
  _atom_site_type_symbol
  _atom_site_label
  _atom_site_symmetry_multiplicity
  _atom_site_fract_x
  _atom_site_fract_y
  _atom_site_fract_z
  _atom_site_occupancy
  Ag  Ag1       1.0  0.21368  0.95127  0.83557  1.0000
  Ag  Ag2       1.0  0.71367  0.04872  0.66442  1.0000
  Ag  Ag3       1.0  0.78633  0.04872  0.16442  1.0000
  Ag  Ag4       1.0  0.28633  0.95129  0.33557  1.0000
  H   H1        1.0  0.04074  0.69843  0.84002  1.0000
  H   H2        1.0  0.54075  0.30158  0.65999  1.0000
  H   H3        1.0  0.95924  0.30158  0.15999  1.0000
  H   H4        1.0  0.45924  0.69842  0.34001  1.0000
  H   H5        1.0  0.97640  0.56982  0.93913  1.0000
  H   H6        1.0  0.47640  0.43020  0.56088  1.0000
  H   H7        1.0  0.02358  0.43020  0.06088  1.0000
  H   H8        1.0  0.52358  0.56981  0.43911  1.0000
  H   H9        1.0  0.05621  0.67148  0.09371  1.0000
  H   H10       1.0  0.55620  0.32853  0.40630  1.0000
  H   H11       1.0  0.94379  0.32853  0.90630  1.0000
  H   H12       1.0  0.44379  0.67147  0.59370  1.0000
  H   H13       1.0  0.19740  0.89241  0.13986  1.0000
  H   H14       1.0  0.69739  0.10760  0.36014  1.0000
  H   H15       1.0  0.80261  0.10760  0.86014  1.0000
  H   H16       1.0  0.30261  0.89240  0.63985  1.0000
  H   H17       1.0  0.28828  0.08595  0.98471  1.0000
  H   H18       1.0  0.78829  0.91405  0.51529  1.0000
  H   H19       1.0  0.71173  0.91405  0.01529  1.0000
  H   H20       1.0  0.21173  0.08596  0.48471  1.0000
  H   H21       1.0  0.33189  0.06777  0.16569  1.0000
  H   H22       1.0  0.83191  0.93223  0.33431  1.0000
  H   H23       1.0  0.66811  0.93223  0.83431  1.0000
  H   H24       1.0  0.16810  0.06776  0.66569  1.0000
  H   H25       1.0  0.49572  0.22702  0.26245  1.0000
  H   H26       1.0  0.99574  0.77298  0.23755  1.0000
  H   H27       1.0  0.50427  0.77297  0.73754  1.0000
  H   H28       1.0  0.00427  0.22702  0.76245  1.0000
  H   H29       1.0  0.66590  0.43993  0.30837  1.0000
  H   H30       1.0  0.16590  0.56006  0.19162  1.0000
  H   H31       1.0  0.33410  0.56006  0.69163  1.0000
  H   H32       1.0  0.83410  0.43993  0.80837  1.0000
  H   H33       1.0  0.67386  0.58101  0.21420  1.0000
  H   H34       1.0  0.17387  0.41899  0.28580  1.0000
  H   H35       1.0  0.32613  0.41898  0.78580  1.0000
  H   H36       1.0  0.82613  0.58101  0.71420  1.0000
  H   H37       1.0  0.52310  0.50755  0.07395  1.0000
  H   H38       1.0  0.02310  0.49245  0.42605  1.0000
  H   H39       1.0  0.47690  0.49245  0.92605  1.0000
  H   H40       1.0  0.97690  0.50755  0.57395  1.0000
  H   H41       1.0  0.36930  0.29062  0.02398  1.0000
  H   H42       1.0  0.86930  0.70938  0.47602  1.0000
  H   H43       1.0  0.63071  0.70938  0.97602  1.0000
  H   H44       1.0  0.13070  0.29062  0.52398  1.0000
  C   C1        1.0  0.07376  0.73785  0.90704  1.0000
  C   C2        1.0  0.57376  0.26216  0.59296  1.0000
  C   C3        1.0  0.92624  0.26215  0.09296  1.0000
  C   C4        1.0  0.42624  0.73784  0.40703  1.0000
  C   C5        1.0  0.03851  0.66666  0.96262  1.0000
  C   C6        1.0  0.53851  0.33334  0.53739  1.0000
  C   C7        1.0  0.96149  0.33334  0.03739  1.0000
  C   C8        1.0  0.46148  0.66666  0.46261  1.0000
  C   C9        1.0  0.08364  0.72295  0.04770  1.0000
  C   C10       1.0  0.58364  0.27706  0.45231  1.0000
  C   C11       1.0  0.91635  0.27706  0.95231  1.0000
  C   C12       1.0  0.41636  0.72294  0.54769  1.0000
  C   C13       1.0  0.16238  0.84685  0.07370  1.0000
  C   C14       1.0  0.66238  0.15315  0.42631  1.0000
  C   C15       1.0  0.83762  0.15315  0.92630  1.0000
  C   C16       1.0  0.33761  0.84685  0.57369  1.0000
  C   C17       1.0  0.19654  0.91421  0.01463  1.0000
  C   C18       1.0  0.69655  0.08580  0.48537  1.0000
  C   C19       1.0  0.80347  0.08579  0.98537  1.0000
  C   C20       1.0  0.30346  0.91421  0.51463  1.0000
  C   C21       1.0  0.27824  0.04423  0.03713  1.0000
  C   C22       1.0  0.77824  0.95577  0.46287  1.0000
  C   C23       1.0  0.72177  0.95576  0.96287  1.0000
  C   C24       1.0  0.22177  0.04424  0.53713  1.0000
  C   C25       1.0  0.33973  0.11278  0.11500  1.0000
  C   C26       1.0  0.83973  0.88722  0.38500  1.0000
  C   C27       1.0  0.66027  0.88721  0.88500  1.0000
  C   C28       1.0  0.16027  0.11278  0.61500  1.0000
  C   C29       1.0  0.42243  0.24273  0.14003  1.0000
  C   C30       1.0  0.92243  0.75726  0.35997  1.0000
  C   C31       1.0  0.57757  0.75726  0.85996  1.0000
  C   C32       1.0  0.07756  0.24273  0.64003  1.0000
  C   C33       1.0  0.50440  0.28841  0.22090  1.0000
  C   C34       1.0  0.00440  0.71159  0.27910  1.0000
  C   C35       1.0  0.49560  0.71158  0.77909  1.0000
  C   C36       1.0  0.99559  0.28841  0.72090  1.0000
  C   C37       1.0  0.59577  0.40862  0.24733  1.0000
  C   C38       1.0  0.09577  0.59137  0.25267  1.0000
  C   C39       1.0  0.40423  0.59137  0.75267  1.0000
  C   C40       1.0  0.90423  0.40862  0.74733  1.0000
  C   C41       1.0  0.60231  0.48726  0.19430  1.0000
  C   C42       1.0  0.10231  0.51274  0.30570  1.0000
  C   C43       1.0  0.39769  0.51274  0.80570  1.0000
  C   C44       1.0  0.89769  0.48726  0.69430  1.0000
  C   C45       1.0  0.51816  0.44465  0.11453  1.0000
  C   C46       1.0  0.01817  0.55535  0.38547  1.0000
  C   C47       1.0  0.48184  0.55535  0.88547  1.0000
  C   C48       1.0  0.98183  0.44465  0.61453  1.0000
  C   C49       1.0  0.43046  0.32344  0.08705  1.0000
  C   C50       1.0  0.93047  0.67656  0.41295  1.0000
  C   C51       1.0  0.56954  0.67656  0.91295  1.0000
  C   C52       1.0  0.06953  0.32344  0.58705  1.0000
  N   N1        1.0  0.15023  0.85798  0.93183  1.0000
  N   N2        1.0  0.65024  0.14203  0.56817  1.0000
  N   N3        1.0  0.84976  0.14202  0.06817  1.0000
  N   N4        1.0  0.34977  0.85798  0.43183  1.0000
  N   N5        1.0  0.43493  0.16781  0.80996  1.0000
  N   N6        1.0  0.93493  0.83219  0.69004  1.0000
  N   N7        1.0  0.56507  0.83219  0.19004  1.0000
  N   N8        1.0  0.06507  0.16782  0.30996  1.0000
  O   O1        1.0  0.31952  0.21814  0.86706  1.0000
  O   O2        1.0  0.81952  0.78185  0.63295  1.0000
  O   O3        1.0  0.68049  0.78185  0.13295  1.0000
  O   O4        1.0  0.18048  0.21816  0.36706  1.0000
  O   O5        1.0  0.56346  0.23194  0.78998  1.0000
  O   O6        1.0  0.06346  0.76806  0.71002  1.0000
  O   O7        1.0  0.43654  0.76806  0.21002  1.0000
  O   O8        1.0  0.93653  0.23194  0.28998  1.0000
  O   O9        1.0  0.42309  0.04289  0.76892  1.0000
  O   O10       1.0  0.92309  0.95710  0.73108  1.0000
  O   O11       1.0  0.57691  0.95710  0.23108  1.0000
  O   O12       1.0  0.07691  0.04290  0.26892  1.0000
