data_image0
_chemical_formula_structural       Ag4H28C20N24O8
_chemical_formula_sum              "Ag4 H28 C20 N24 O8"
_cell_length_a       7.06397
_cell_length_b       10.0789
_cell_length_c       11.622
_cell_angle_alpha    109.334
_cell_angle_beta     90.0002
_cell_angle_gamma    90.0001

_space_group_name_H-M_alt    "P 1"
_space_group_IT_number       1

loop_
  _space_group_symop_operation_xyz
  'x, y, z'

loop_
  _atom_site_type_symbol
  _atom_site_label
  _atom_site_symmetry_multiplicity
  _atom_site_fract_x
  _atom_site_fract_y
  _atom_site_fract_z
  _atom_site_occupancy
  Ag  Ag1       1.0  0.80448  0.10801  0.62670  1.0000
  Ag  Ag2       1.0  0.30448  0.39199  0.87330  1.0000
  Ag  Ag3       1.0  0.19552  0.89199  0.37330  1.0000
  Ag  Ag4       1.0  0.69552  0.60801  0.12670  1.0000
  H   H1        1.0  0.11017  0.41701  0.38451  1.0000
  H   H2        1.0  0.61017  0.08299  0.11550  1.0000
  H   H3        1.0  0.88983  0.58300  0.61550  1.0000
  H   H4        1.0  0.38983  0.91700  0.88450  1.0000
  H   H5        1.0  0.60635  0.78935  0.74970  1.0000
  H   H6        1.0  0.10634  0.71065  0.75030  1.0000
  H   H7        1.0  0.39366  0.21065  0.25030  1.0000
  H   H8        1.0  0.89366  0.28935  0.24970  1.0000
  H   H9        1.0  0.66892  0.95638  0.74820  1.0000
  H   H10       1.0  0.16892  0.54362  0.75180  1.0000
  H   H11       1.0  0.33108  0.04362  0.25180  1.0000
  H   H12       1.0  0.83109  0.45638  0.24820  1.0000
  H   H13       1.0  0.50988  0.46146  0.25096  1.0000
  H   H14       1.0  0.00988  0.03854  0.24904  1.0000
  H   H15       1.0  0.49012  0.53854  0.74904  1.0000
  H   H16       1.0  0.99012  0.96146  0.75096  1.0000
  H   H17       1.0  0.48921  0.43780  0.39440  1.0000
  H   H18       1.0  0.98921  0.06220  0.10560  1.0000
  H   H19       1.0  0.51079  0.56220  0.60560  1.0000
  H   H20       1.0  0.01079  0.93780  0.89440  1.0000
  H   H21       1.0  0.69313  0.90317  0.24289  1.0000
  H   H22       1.0  0.19312  0.59682  0.25711  1.0000
  H   H23       1.0  0.30688  0.09683  0.75711  1.0000
  H   H24       1.0  0.80688  0.40317  0.74289  1.0000
  H   H25       1.0  0.76245  0.03866  0.37675  1.0000
  H   H26       1.0  0.26245  0.46134  0.12325  1.0000
  H   H27       1.0  0.23755  0.96135  0.62325  1.0000
  H   H28       1.0  0.73755  0.53865  0.87675  1.0000
  C   C1        1.0  0.62663  0.81242  0.57963  1.0000
  C   C2        1.0  0.12663  0.68758  0.92037  1.0000
  C   C3        1.0  0.37337  0.18758  0.42038  1.0000
  C   C4        1.0  0.87337  0.31242  0.07962  1.0000
  C   C5        1.0  0.57169  0.63576  0.39979  1.0000
  C   C6        1.0  0.07169  0.86424  0.10021  1.0000
  C   C7        1.0  0.42831  0.36424  0.60021  1.0000
  C   C8        1.0  0.92830  0.13576  0.89979  1.0000
  C   C9        1.0  0.67594  0.85135  0.39712  1.0000
  C   C10       1.0  0.17595  0.64865  0.10288  1.0000
  C   C11       1.0  0.32405  0.14865  0.60288  1.0000
  C   C12       1.0  0.82405  0.35135  0.89712  1.0000
  C   C13       1.0  0.92964  0.30668  0.47856  1.0000
  C   C14       1.0  0.42965  0.19332  0.02145  1.0000
  C   C15       1.0  0.07036  0.69332  0.52145  1.0000
  C   C16       1.0  0.57036  0.80668  0.97855  1.0000
  C   C17       1.0  0.01807  0.43442  0.46342  1.0000
  C   C18       1.0  0.51807  0.06558  0.03658  1.0000
  C   C19       1.0  0.98193  0.56558  0.53659  1.0000
  C   C20       1.0  0.48193  0.93442  0.96341  1.0000
  N   N1        1.0  0.68449  0.90265  0.52139  1.0000
  N   N2        1.0  0.18449  0.59735  0.97861  1.0000
  N   N3        1.0  0.31551  0.09735  0.47861  1.0000
  N   N4        1.0  0.81550  0.40265  0.02139  1.0000
  N   N5        1.0  0.56812  0.68052  0.52259  1.0000
  N   N6        1.0  0.06812  0.81948  0.97741  1.0000
  N   N7        1.0  0.43188  0.31947  0.47740  1.0000
  N   N8        1.0  0.93188  0.18053  0.02260  1.0000
  N   N9        1.0  0.62493  0.71706  0.33258  1.0000
  N   N10       1.0  0.12493  0.78294  0.16742  1.0000
  N   N11       1.0  0.37507  0.28295  0.66742  1.0000
  N   N12       1.0  0.87506  0.21705  0.83258  1.0000
  N   N13       1.0  0.62546  0.85726  0.70154  1.0000
  N   N14       1.0  0.12546  0.64274  0.79846  1.0000
  N   N15       1.0  0.37454  0.14274  0.29846  1.0000
  N   N16       1.0  0.87454  0.35726  0.20154  1.0000
  N   N17       1.0  0.52136  0.50249  0.34330  1.0000
  N   N18       1.0  0.02137  0.99751  0.15670  1.0000
  N   N19       1.0  0.47864  0.49751  0.65670  1.0000
  N   N20       1.0  0.97863  0.00249  0.84330  1.0000
  N   N21       1.0  0.72179  0.93602  0.33450  1.0000
  N   N22       1.0  0.22179  0.56398  0.16550  1.0000
  N   N23       1.0  0.27821  0.06399  0.66550  1.0000
  N   N24       1.0  0.77821  0.43601  0.83450  1.0000
  O   O1        1.0  0.89325  0.30758  0.58644  1.0000
  O   O2        1.0  0.39325  0.19242  0.91356  1.0000
  O   O3        1.0  0.10675  0.69242  0.41356  1.0000
  O   O4        1.0  0.60675  0.80758  0.08644  1.0000
  O   O5        1.0  0.89675  0.20495  0.38110  1.0000
  O   O6        1.0  0.39675  0.29505  0.11890  1.0000
  O   O7        1.0  0.10325  0.79505  0.61890  1.0000
  O   O8        1.0  0.60326  0.70495  0.88110  1.0000
