data_image0
_chemical_formula_structural       Cd4H68C48N8Cl4O8
_chemical_formula_sum              "Cd4 H68 C48 N8 Cl4 O8"
_cell_length_a       6.90466
_cell_length_b       14.029
_cell_length_c       16.0729
_cell_angle_alpha    90.0001
_cell_angle_beta     90.0002
_cell_angle_gamma    89.9998

_space_group_name_H-M_alt    "P 1"
_space_group_IT_number       1

loop_
  _space_group_symop_operation_xyz
  'x, y, z'

loop_
  _atom_site_type_symbol
  _atom_site_label
  _atom_site_symmetry_multiplicity
  _atom_site_fract_x
  _atom_site_fract_y
  _atom_site_fract_z
  _atom_site_occupancy
  Cd  Cd1       1.0  0.64635  0.26645  0.11020  1.0000
  Cd  Cd2       1.0  0.85364  0.73355  0.61019  1.0000
  Cd  Cd3       1.0  0.14635  0.23355  0.88981  1.0000
  Cd  Cd4       1.0  0.35365  0.76645  0.38981  1.0000
  H   H1        1.0  0.64675  0.07572  0.17089  1.0000
  H   H2        1.0  0.85325  0.92428  0.67089  1.0000
  H   H3        1.0  0.14675  0.42428  0.82911  1.0000
  H   H4        1.0  0.35326  0.57572  0.32911  1.0000
  H   H5        1.0  0.90114  0.84271  0.36833  1.0000
  H   H6        1.0  0.59886  0.15729  0.86833  1.0000
  H   H7        1.0  0.40114  0.65729  0.63167  1.0000
  H   H8        1.0  0.09885  0.34271  0.13168  1.0000
  H   H9        1.0  0.73505  0.98742  0.31425  1.0000
  H   H10       1.0  0.76496  0.01259  0.81425  1.0000
  H   H11       1.0  0.23504  0.51259  0.68574  1.0000
  H   H12       1.0  0.26496  0.48741  0.18575  1.0000
  H   H13       1.0  0.27398  0.06855  0.19790  1.0000
  H   H14       1.0  0.22602  0.93145  0.69790  1.0000
  H   H15       1.0  0.77397  0.43145  0.80210  1.0000
  H   H16       1.0  0.72603  0.56855  0.30210  1.0000
  H   H17       1.0  0.41657  0.91476  0.25339  1.0000
  H   H18       1.0  0.08343  0.08523  0.75340  1.0000
  H   H19       1.0  0.91656  0.58524  0.74661  1.0000
  H   H20       1.0  0.58343  0.41476  0.24661  1.0000
  H   H21       1.0  0.82064  0.16716  0.26691  1.0000
  H   H22       1.0  0.67936  0.83283  0.76691  1.0000
  H   H23       1.0  0.32064  0.33284  0.73309  1.0000
  H   H24       1.0  0.17937  0.66716  0.23309  1.0000
  H   H25       1.0  0.01581  0.17825  0.19568  1.0000
  H   H26       1.0  0.48419  0.82176  0.69568  1.0000
  H   H27       1.0  0.51580  0.32175  0.80432  1.0000
  H   H28       1.0  0.98420  0.67825  0.30432  1.0000
  H   H29       1.0  0.95222  0.01029  0.09294  1.0000
  H   H30       1.0  0.54778  0.98972  0.59294  1.0000
  H   H31       1.0  0.45222  0.48971  0.90706  1.0000
  H   H32       1.0  0.04778  0.51029  0.40706  1.0000
  H   H33       1.0  0.56940  0.07085  0.01196  1.0000
  H   H34       1.0  0.93059  0.92914  0.51196  1.0000
  H   H35       1.0  0.06941  0.42914  0.98803  1.0000
  H   H36       1.0  0.43060  0.57086  0.48803  1.0000
  H   H37       1.0  0.74303  0.99555  0.96479  1.0000
  H   H38       1.0  0.75697  0.00445  0.46480  1.0000
  H   H39       1.0  0.24303  0.50445  0.03520  1.0000
  H   H40       1.0  0.25697  0.49555  0.53520  1.0000
  H   H41       1.0  0.54187  0.94764  0.12936  1.0000
  H   H42       1.0  0.95813  0.05236  0.62936  1.0000
  H   H43       1.0  0.04187  0.55236  0.87064  1.0000
  H   H44       1.0  0.45812  0.44764  0.37064  1.0000
  H   H45       1.0  0.44572  0.87719  0.95358  1.0000
  H   H46       1.0  0.05427  0.12281  0.45358  1.0000
  H   H47       1.0  0.94573  0.62281  0.04642  1.0000
  H   H48       1.0  0.55428  0.37719  0.54642  1.0000
  H   H49       1.0  0.30485  0.96015  0.01091  1.0000
  H   H50       1.0  0.19515  0.03985  0.51091  1.0000
  H   H51       1.0  0.80485  0.53984  0.98909  1.0000
  H   H52       1.0  0.69515  0.46016  0.48909  1.0000
  H   H53       1.0  0.33231  0.84082  0.04737  1.0000
  H   H54       1.0  0.16769  0.15918  0.54737  1.0000
  H   H55       1.0  0.83231  0.65918  0.95263  1.0000
  H   H56       1.0  0.66769  0.34082  0.45263  1.0000
  H   H57       1.0  0.78471  0.82554  0.01022  1.0000
  H   H58       1.0  0.71529  0.17446  0.51022  1.0000
  H   H59       1.0  0.28471  0.67446  0.98978  1.0000
  H   H60       1.0  0.21529  0.32554  0.48978  1.0000
  H   H61       1.0  0.66229  0.78344  0.10085  1.0000
  H   H62       1.0  0.83771  0.21656  0.60085  1.0000
  H   H63       1.0  0.16229  0.71656  0.89915  1.0000
  H   H64       1.0  0.33771  0.28344  0.39915  1.0000
  H   H65       1.0  0.85788  0.86338  0.11107  1.0000
  H   H66       1.0  0.64212  0.13662  0.61107  1.0000
  H   H67       1.0  0.35788  0.63662  0.88893  1.0000
  H   H68       1.0  0.14212  0.36338  0.38893  1.0000
  C   C1        1.0  0.97867  0.89397  0.32984  1.0000
  C   C2        1.0  0.52132  0.10603  0.82984  1.0000
  C   C3        1.0  0.47867  0.60603  0.67016  1.0000
  C   C4        1.0  0.02133  0.39397  0.17016  1.0000
  C   C5        1.0  0.88732  0.97525  0.29939  1.0000
  C   C6        1.0  0.61269  0.02475  0.79940  1.0000
  C   C7        1.0  0.38732  0.52475  0.70061  1.0000
  C   C8        1.0  0.11268  0.47525  0.20061  1.0000
  C   C9        1.0  0.99284  0.04017  0.25149  1.0000
  C   C10       1.0  0.50716  0.95983  0.75149  1.0000
  C   C11       1.0  0.49282  0.45983  0.74851  1.0000
  C   C12       1.0  0.00718  0.54017  0.24851  1.0000
  C   C13       1.0  0.18652  0.01853  0.23381  1.0000
  C   C14       1.0  0.31349  0.98147  0.73381  1.0000
  C   C15       1.0  0.68652  0.48147  0.76619  1.0000
  C   C16       1.0  0.81348  0.51853  0.26620  1.0000
  C   C17       1.0  0.26653  0.93532  0.26551  1.0000
  C   C18       1.0  0.23347  0.06467  0.76552  1.0000
  C   C19       1.0  0.76652  0.56468  0.73449  1.0000
  C   C20       1.0  0.73348  0.43532  0.23449  1.0000
  C   C21       1.0  0.90167  0.12989  0.21778  1.0000
  C   C22       1.0  0.59833  0.87011  0.71778  1.0000
  C   C23       1.0  0.40167  0.37011  0.78221  1.0000
  C   C24       1.0  0.09833  0.62989  0.28222  1.0000
  C   C25       1.0  0.84422  0.06454  0.07547  1.0000
  C   C26       1.0  0.65578  0.93546  0.57547  1.0000
  C   C27       1.0  0.34422  0.43546  0.92453  1.0000
  C   C28       1.0  0.15578  0.56454  0.42453  1.0000
  C   C29       1.0  0.94815  0.13581  0.01874  1.0000
  C   C30       1.0  0.55185  0.86419  0.51874  1.0000
  C   C31       1.0  0.44815  0.36419  0.98126  1.0000
  C   C32       1.0  0.05186  0.63581  0.48125  1.0000
  C   C33       1.0  0.68164  0.01692  0.02510  1.0000
  C   C34       1.0  0.81836  0.98308  0.52510  1.0000
  C   C35       1.0  0.18165  0.48308  0.97490  1.0000
  C   C36       1.0  0.31835  0.51692  0.47490  1.0000
  C   C37       1.0  0.58886  0.92896  0.06567  1.0000
  C   C38       1.0  0.91114  0.07104  0.56567  1.0000
  C   C39       1.0  0.08886  0.57104  0.93433  1.0000
  C   C40       1.0  0.41114  0.42896  0.43433  1.0000
  C   C41       1.0  0.40722  0.90046  0.01690  1.0000
  C   C42       1.0  0.09277  0.09954  0.51690  1.0000
  C   C43       1.0  0.90723  0.59954  0.98310  1.0000
  C   C44       1.0  0.59277  0.40046  0.48310  1.0000
  C   C45       1.0  0.73158  0.84583  0.07234  1.0000
  C   C46       1.0  0.76842  0.15417  0.57234  1.0000
  C   C47       1.0  0.23158  0.65417  0.92766  1.0000
  C   C48       1.0  0.26842  0.34583  0.42766  1.0000
  N   N1        1.0  0.16531  0.87453  0.31347  1.0000
  N   N2        1.0  0.33469  0.12547  0.81347  1.0000
  N   N3        1.0  0.66532  0.62547  0.68653  1.0000
  N   N4        1.0  0.83467  0.37453  0.18654  1.0000
  N   N5        1.0  0.76360  0.11256  0.14887  1.0000
  N   N6        1.0  0.73640  0.88744  0.64887  1.0000
  N   N7        1.0  0.26360  0.38744  0.85113  1.0000
  N   N8        1.0  0.23640  0.61256  0.35113  1.0000
  Cl  Cl1       1.0  0.38940  0.24607  0.21860  1.0000
  Cl  Cl2       1.0  0.11060  0.75393  0.71861  1.0000
  Cl  Cl3       1.0  0.88940  0.25393  0.78139  1.0000
  Cl  Cl4       1.0  0.61060  0.74607  0.28139  1.0000
  O   O1        1.0  0.90313  0.22417  0.02008  1.0000
  O   O2        1.0  0.59686  0.77583  0.52008  1.0000
  O   O3        1.0  0.40313  0.27583  0.97992  1.0000
  O   O4        1.0  0.09687  0.72417  0.47992  1.0000
  O   O5        1.0  0.07180  0.10131  0.96886  1.0000
  O   O6        1.0  0.42819  0.89870  0.46886  1.0000
  O   O7        1.0  0.57181  0.39869  0.03114  1.0000
  O   O8        1.0  0.92818  0.60130  0.53114  1.0000
