data_image0
_chemical_formula_structural       Cd4H44C36N8Cl4O12
_chemical_formula_sum              "Cd4 H44 C36 N8 Cl4 O12"
_cell_length_a       5.79775
_cell_length_b       15.1546
_cell_length_c       16.4586
_cell_angle_alpha    90
_cell_angle_beta     89.9999
_cell_angle_gamma    90

_space_group_name_H-M_alt    "P 1"
_space_group_IT_number       1

loop_
  _space_group_symop_operation_xyz
  'x, y, z'

loop_
  _atom_site_type_symbol
  _atom_site_label
  _atom_site_symmetry_multiplicity
  _atom_site_fract_x
  _atom_site_fract_y
  _atom_site_fract_z
  _atom_site_occupancy
  Cd  Cd1       1.0  0.62829  0.41529  0.03708  1.0000
  Cd  Cd2       1.0  0.87171  0.58471  0.53708  1.0000
  Cd  Cd3       1.0  0.37171  0.91530  0.46292  1.0000
  Cd  Cd4       1.0  0.12829  0.08470  0.96292  1.0000
  H   H1        1.0  0.55595  0.61997  0.75361  1.0000
  H   H2        1.0  0.94406  0.38003  0.25361  1.0000
  H   H3        1.0  0.44405  0.11998  0.74639  1.0000
  H   H4        1.0  0.05595  0.88002  0.24639  1.0000
  H   H5        1.0  0.35036  0.63599  0.62211  1.0000
  H   H6        1.0  0.14965  0.36401  0.12211  1.0000
  H   H7        1.0  0.64965  0.13599  0.87789  1.0000
  H   H8        1.0  0.85035  0.86401  0.37789  1.0000
  H   H9        1.0  0.80169  0.48403  0.70108  1.0000
  H   H10       1.0  0.69831  0.51597  0.20108  1.0000
  H   H11       1.0  0.19830  0.98403  0.79891  1.0000
  H   H12       1.0  0.30169  0.01597  0.29892  1.0000
  H   H13       1.0  0.98035  0.46448  0.83939  1.0000
  H   H14       1.0  0.51965  0.53552  0.33939  1.0000
  H   H15       1.0  0.01964  0.96448  0.66061  1.0000
  H   H16       1.0  0.48035  0.03552  0.16061  1.0000
  H   H17       1.0  0.20666  0.44707  0.95966  1.0000
  H   H18       1.0  0.29334  0.55293  0.45966  1.0000
  H   H19       1.0  0.79334  0.94707  0.54034  1.0000
  H   H20       1.0  0.70666  0.05293  0.04034  1.0000
  H   H21       1.0  0.59366  0.53636  0.87973  1.0000
  H   H22       1.0  0.90634  0.46364  0.37973  1.0000
  H   H23       1.0  0.40633  0.03636  0.62027  1.0000
  H   H24       1.0  0.09367  0.96364  0.12027  1.0000
  H   H25       1.0  0.35150  0.57938  0.93041  1.0000
  H   H26       1.0  0.14850  0.42062  0.43040  1.0000
  H   H27       1.0  0.64850  0.07938  0.56960  1.0000
  H   H28       1.0  0.85150  0.92062  0.06960  1.0000
  H   H29       1.0  0.25372  0.36098  0.83007  1.0000
  H   H30       1.0  0.24628  0.63902  0.33007  1.0000
  H   H31       1.0  0.74627  0.86098  0.66993  1.0000
  H   H32       1.0  0.75372  0.13902  0.16993  1.0000
  H   H33       1.0  0.62253  0.28616  0.81223  1.0000
  H   H34       1.0  0.87748  0.71384  0.31223  1.0000
  H   H35       1.0  0.37746  0.78616  0.68777  1.0000
  H   H36       1.0  0.12253  0.21384  0.18777  1.0000
  H   H37       1.0  0.65461  0.40212  0.80250  1.0000
  H   H38       1.0  0.84540  0.59788  0.30250  1.0000
  H   H39       1.0  0.34538  0.90213  0.69750  1.0000
  H   H40       1.0  0.15461  0.09787  0.19750  1.0000
  H   H41       1.0  0.80649  0.29121  0.93442  1.0000
  H   H42       1.0  0.69352  0.70879  0.43442  1.0000
  H   H43       1.0  0.19351  0.79121  0.56558  1.0000
  H   H44       1.0  0.30649  0.20879  0.06558  1.0000
  C   C1        1.0  0.38706  0.58933  0.74574  1.0000
  C   C2        1.0  0.11295  0.41067  0.24574  1.0000
  C   C3        1.0  0.61294  0.08933  0.75426  1.0000
  C   C4        1.0  0.88705  0.91066  0.25426  1.0000
  C   C5        1.0  0.28491  0.54007  0.80789  1.0000
  C   C6        1.0  0.21509  0.45993  0.30789  1.0000
  C   C7        1.0  0.71509  0.04007  0.69211  1.0000
  C   C8        1.0  0.78491  0.95992  0.19211  1.0000
  C   C9        1.0  0.27368  0.59869  0.67173  1.0000
  C   C10       1.0  0.22632  0.40131  0.17173  1.0000
  C   C11       1.0  0.72632  0.09868  0.82827  1.0000
  C   C12       1.0  0.77368  0.90131  0.32827  1.0000
  C   C13       1.0  0.96736  0.51400  0.71659  1.0000
  C   C14       1.0  0.53264  0.48600  0.21659  1.0000
  C   C15       1.0  0.03264  0.01400  0.78340  1.0000
  C   C16       1.0  0.46736  0.98600  0.28340  1.0000
  C   C17       1.0  0.06773  0.50299  0.79263  1.0000
  C   C18       1.0  0.43227  0.49702  0.29262  1.0000
  C   C19       1.0  0.93226  0.00299  0.70737  1.0000
  C   C20       1.0  0.56773  0.99701  0.20737  1.0000
  C   C21       1.0  0.40694  0.52724  0.88805  1.0000
  C   C22       1.0  0.09306  0.47277  0.38805  1.0000
  C   C23       1.0  0.59305  0.02724  0.61195  1.0000
  C   C24       1.0  0.90695  0.97276  0.11195  1.0000
  C   C25       1.0  0.37564  0.36159  0.88137  1.0000
  C   C26       1.0  0.12436  0.63842  0.38137  1.0000
  C   C27       1.0  0.62435  0.86159  0.61863  1.0000
  C   C28       1.0  0.87564  0.13841  0.11863  1.0000
  C   C29       1.0  0.61858  0.34881  0.84596  1.0000
  C   C30       1.0  0.88142  0.65119  0.34596  1.0000
  C   C31       1.0  0.38141  0.84881  0.65404  1.0000
  C   C32       1.0  0.11858  0.15119  0.15404  1.0000
  C   C33       1.0  0.31686  0.28188  0.93500  1.0000
  C   C34       1.0  0.18314  0.71812  0.43500  1.0000
  C   C35       1.0  0.68315  0.78188  0.56500  1.0000
  C   C36       1.0  0.81685  0.21812  0.06500  1.0000
  N   N1        1.0  0.06776  0.56120  0.65710  1.0000
  N   N2        1.0  0.43225  0.43880  0.15710  1.0000
  N   N3        1.0  0.93225  0.06120  0.84289  1.0000
  N   N4        1.0  0.56775  0.93880  0.34289  1.0000
  N   N5        1.0  0.36270  0.44305  0.92995  1.0000
  N   N6        1.0  0.13730  0.55695  0.42995  1.0000
  N   N7        1.0  0.63729  0.94306  0.57005  1.0000
  N   N8        1.0  0.86270  0.05694  0.07005  1.0000
  Cl  Cl1       1.0  0.92758  0.53161  0.03491  1.0000
  Cl  Cl2       1.0  0.57242  0.46839  0.53491  1.0000
  Cl  Cl3       1.0  0.07241  0.03161  0.46509  1.0000
  Cl  Cl4       1.0  0.42758  0.96839  0.96509  1.0000
  O   O1        1.0  0.31947  0.29396  0.01169  1.0000
  O   O2        1.0  0.18054  0.70604  0.51169  1.0000
  O   O3        1.0  0.68054  0.79396  0.48831  1.0000
  O   O4        1.0  0.81946  0.20604  0.98831  1.0000
  O   O5        1.0  0.79319  0.35132  0.90696  1.0000
  O   O6        1.0  0.70681  0.64868  0.40696  1.0000
  O   O7        1.0  0.20680  0.85133  0.59304  1.0000
  O   O8        1.0  0.29320  0.14868  0.09304  1.0000
  O   O9        1.0  0.27898  0.20975  0.89873  1.0000
  O   O10       1.0  0.22102  0.79025  0.39873  1.0000
  O   O11       1.0  0.72102  0.70975  0.60127  1.0000
  O   O12       1.0  0.77899  0.29025  0.10127  1.0000
