data_image0
_chemical_formula_structural       Cd4H68C48Br4N8O8
_chemical_formula_sum              "Cd4 H68 C48 Br4 N8 O8"
_cell_length_a       7.23901
_cell_length_b       13.6527
_cell_length_c       16.5185
_cell_angle_alpha    90
_cell_angle_beta     90
_cell_angle_gamma    90

_space_group_name_H-M_alt    "P 1"
_space_group_IT_number       1

loop_
  _space_group_symop_operation_xyz
  'x, y, z'

loop_
  _atom_site_type_symbol
  _atom_site_label
  _atom_site_symmetry_multiplicity
  _atom_site_fract_x
  _atom_site_fract_y
  _atom_site_fract_z
  _atom_site_occupancy
  Cd  Cd1       1.0  0.18091  0.78463  0.59867  1.0000
  Cd  Cd2       1.0  0.31909  0.21537  0.09867  1.0000
  Cd  Cd3       1.0  0.81910  0.28462  0.90133  1.0000
  Cd  Cd4       1.0  0.68091  0.71537  0.40133  1.0000
  H   H1        1.0  0.39660  0.37113  0.88184  1.0000
  H   H2        1.0  0.10340  0.62886  0.38184  1.0000
  H   H3        1.0  0.60340  0.87114  0.61816  1.0000
  H   H4        1.0  0.89660  0.12887  0.11816  1.0000
  H   H5        1.0  0.30860  0.69987  0.76814  1.0000
  H   H6        1.0  0.19140  0.30013  0.26814  1.0000
  H   H7        1.0  0.69140  0.19987  0.73186  1.0000
  H   H8        1.0  0.80860  0.80013  0.23186  1.0000
  H   H9        1.0  0.50660  0.70987  0.70498  1.0000
  H   H10       1.0  0.99340  0.29013  0.20498  1.0000
  H   H11       1.0  0.49340  0.20987  0.79502  1.0000
  H   H12       1.0  0.00660  0.79013  0.29502  1.0000
  H   H13       1.0  0.46986  0.52114  0.61822  1.0000
  H   H14       1.0  0.03014  0.47886  0.11822  1.0000
  H   H15       1.0  0.53014  0.02114  0.88178  1.0000
  H   H16       1.0  0.96986  0.97886  0.38178  1.0000
  H   H17       1.0  0.11444  0.57040  0.52655  1.0000
  H   H18       1.0  0.38556  0.42960  0.02655  1.0000
  H   H19       1.0  0.88556  0.07040  0.97345  1.0000
  H   H20       1.0  0.61444  0.92960  0.47345  1.0000
  H   H21       1.0  0.28965  0.49460  0.48588  1.0000
  H   H22       1.0  0.21035  0.50540  0.98588  1.0000
  H   H23       1.0  0.71035  0.99460  0.01412  1.0000
  H   H24       1.0  0.78965  0.00540  0.51412  1.0000
  H   H25       1.0  0.89729  0.45120  0.78069  1.0000
  H   H26       1.0  0.60271  0.54880  0.28069  1.0000
  H   H27       1.0  0.10271  0.95120  0.71931  1.0000
  H   H28       1.0  0.39729  0.04880  0.21931  1.0000
  H   H29       1.0  0.23621  0.51564  0.82290  1.0000
  H   H30       1.0  0.26379  0.48436  0.32290  1.0000
  H   H31       1.0  0.76379  0.01564  0.67710  1.0000
  H   H32       1.0  0.73621  0.98436  0.17710  1.0000
  H   H33       1.0  0.75965  0.60424  0.72017  1.0000
  H   H34       1.0  0.74035  0.39576  0.22017  1.0000
  H   H35       1.0  0.24035  0.10423  0.77983  1.0000
  H   H36       1.0  0.25965  0.89577  0.27983  1.0000
  H   H37       1.0  0.10084  0.44873  0.64766  1.0000
  H   H38       1.0  0.39916  0.55127  0.14766  1.0000
  H   H39       1.0  0.89916  0.94873  0.85234  1.0000
  H   H40       1.0  0.60084  0.05127  0.35234  1.0000
  H   H41       1.0  0.16445  0.59812  0.67555  1.0000
  H   H42       1.0  0.33555  0.40188  0.17555  1.0000
  H   H43       1.0  0.83555  0.09812  0.82445  1.0000
  H   H44       1.0  0.66445  0.90188  0.32445  1.0000
  H   H45       1.0  0.22507  0.28166  0.62283  1.0000
  H   H46       1.0  0.27493  0.71834  0.12282  1.0000
  H   H47       1.0  0.77493  0.78166  0.87717  1.0000
  H   H48       1.0  0.72507  0.21834  0.37718  1.0000
  H   H49       1.0  0.40699  0.36781  0.62797  1.0000
  H   H50       1.0  0.09301  0.63219  0.12797  1.0000
  H   H51       1.0  0.59301  0.86781  0.87202  1.0000
  H   H52       1.0  0.90699  0.13219  0.37203  1.0000
  H   H53       1.0  0.33358  0.32317  0.53207  1.0000
  H   H54       1.0  0.16642  0.67683  0.03207  1.0000
  H   H55       1.0  0.66642  0.82317  0.96793  1.0000
  H   H56       1.0  0.83358  0.17683  0.46793  1.0000
  H   H57       1.0  0.86579  0.45281  0.53605  1.0000
  H   H58       1.0  0.63421  0.54719  0.03605  1.0000
  H   H59       1.0  0.13421  0.95281  0.96395  1.0000
  H   H60       1.0  0.36579  0.04719  0.46395  1.0000
  H   H61       1.0  0.90566  0.33162  0.57229  1.0000
  H   H62       1.0  0.59434  0.66838  0.07229  1.0000
  H   H63       1.0  0.09435  0.83162  0.92771  1.0000
  H   H64       1.0  0.40566  0.16838  0.42771  1.0000
  H   H65       1.0  0.00319  0.37014  0.47886  1.0000
  H   H66       1.0  0.49681  0.62986  0.97886  1.0000
  H   H67       1.0  0.99681  0.87014  0.02114  1.0000
  H   H68       1.0  0.50319  0.12986  0.52114  1.0000
  C   C1        1.0  0.47226  0.42458  0.84573  1.0000
  C   C2        1.0  0.02774  0.57543  0.34573  1.0000
  C   C3        1.0  0.52774  0.92458  0.65427  1.0000
  C   C4        1.0  0.97226  0.07543  0.15427  1.0000
  C   C5        1.0  0.39803  0.65953  0.72585  1.0000
  C   C6        1.0  0.10197  0.34047  0.22585  1.0000
  C   C7        1.0  0.60196  0.15953  0.77415  1.0000
  C   C8        1.0  0.89804  0.84047  0.27415  1.0000
  C   C9        1.0  0.48619  0.57236  0.76641  1.0000
  C   C10       1.0  0.01381  0.42764  0.26641  1.0000
  C   C11       1.0  0.51381  0.07236  0.73359  1.0000
  C   C12       1.0  0.98619  0.92764  0.23359  1.0000
  C   C13       1.0  0.37150  0.57411  0.59233  1.0000
  C   C14       1.0  0.12849  0.42589  0.09233  1.0000
  C   C15       1.0  0.62850  0.07411  0.90767  1.0000
  C   C16       1.0  0.87150  0.92589  0.40767  1.0000
  C   C17       1.0  0.22515  0.51846  0.54288  1.0000
  C   C18       1.0  0.27485  0.48154  0.04288  1.0000
  C   C19       1.0  0.77485  0.01846  0.95712  1.0000
  C   C20       1.0  0.72515  0.98154  0.45712  1.0000
  C   C21       1.0  0.75186  0.47017  0.78920  1.0000
  C   C22       1.0  0.74814  0.52983  0.28920  1.0000
  C   C23       1.0  0.24814  0.97017  0.71081  1.0000
  C   C24       1.0  0.25186  0.02983  0.21080  1.0000
  C   C25       1.0  0.38405  0.50585  0.81264  1.0000
  C   C26       1.0  0.11595  0.49414  0.31264  1.0000
  C   C27       1.0  0.61594  0.00586  0.68736  1.0000
  C   C28       1.0  0.88405  0.99414  0.18736  1.0000
  C   C29       1.0  0.67440  0.55330  0.75486  1.0000
  C   C30       1.0  0.82560  0.44670  0.25486  1.0000
  C   C31       1.0  0.32560  0.05330  0.74515  1.0000
  C   C32       1.0  0.17440  0.94670  0.24515  1.0000
  C   C33       1.0  0.14306  0.42830  0.58553  1.0000
  C   C34       1.0  0.35694  0.57170  0.08553  1.0000
  C   C35       1.0  0.85694  0.92830  0.91447  1.0000
  C   C36       1.0  0.64306  0.07170  0.41447  1.0000
  C   C37       1.0  0.48262  0.63929  0.53487  1.0000
  C   C38       1.0  0.01738  0.36071  0.03487  1.0000
  C   C39       1.0  0.51738  0.13930  0.96513  1.0000
  C   C40       1.0  0.98262  0.86071  0.46513  1.0000
  C   C41       1.0  0.28534  0.34569  0.59250  1.0000
  C   C42       1.0  0.21466  0.65431  0.09250  1.0000
  C   C43       1.0  0.71466  0.84569  0.90750  1.0000
  C   C44       1.0  0.78534  0.15431  0.40751  1.0000
  C   C45       1.0  0.96922  0.39405  0.54079  1.0000
  C   C46       1.0  0.53079  0.60595  0.04079  1.0000
  C   C47       1.0  0.03079  0.89405  0.95921  1.0000
  C   C48       1.0  0.46921  0.10595  0.45921  1.0000
  Br  Br1       1.0  0.90672  0.77868  0.70487  1.0000
  Br  Br2       1.0  0.59328  0.22132  0.20487  1.0000
  Br  Br3       1.0  0.09327  0.27868  0.79512  1.0000
  Br  Br4       1.0  0.40671  0.72132  0.29513  1.0000
  N   N1        1.0  0.65287  0.40681  0.83400  1.0000
  N   N2        1.0  0.84713  0.59319  0.33400  1.0000
  N   N3        1.0  0.34713  0.90681  0.66600  1.0000
  N   N4        1.0  0.15287  0.09319  0.16600  1.0000
  N   N5        1.0  0.28116  0.63265  0.65559  1.0000
  N   N6        1.0  0.21884  0.36735  0.15559  1.0000
  N   N7        1.0  0.71884  0.13265  0.84441  1.0000
  N   N8        1.0  0.78116  0.86735  0.34441  1.0000
  O   O1        1.0  0.60860  0.59712  0.49453  1.0000
  O   O2        1.0  0.89140  0.40288  0.99453  1.0000
  O   O3        1.0  0.39140  0.09712  0.00547  1.0000
  O   O4        1.0  0.10860  0.90288  0.50547  1.0000
  O   O5        1.0  0.44113  0.72962  0.52596  1.0000
  O   O6        1.0  0.05888  0.27038  0.02596  1.0000
  O   O7        1.0  0.55888  0.22962  0.97404  1.0000
  O   O8        1.0  0.94113  0.77038  0.47404  1.0000
