data_image0
_chemical_formula_structural       U2H8C16O12
_chemical_formula_sum              "U2 H8 C16 O12"
_cell_length_a       5.32582
_cell_length_b       5.32581
_cell_length_c       16.6099
_cell_angle_alpha    92.75
_cell_angle_beta     92.7497
_cell_angle_gamma    106.481

_space_group_name_H-M_alt    "P 1"
_space_group_IT_number       1

loop_
  _space_group_symop_operation_xyz
  'x, y, z'

loop_
  _atom_site_type_symbol
  _atom_site_label
  _atom_site_symmetry_multiplicity
  _atom_site_fract_x
  _atom_site_fract_y
  _atom_site_fract_z
  _atom_site_occupancy
  U   U1        1.0  0.00000  0.00001  0.00000  1.0000
  U   U2        1.0  1.00000  0.99999  0.50000  1.0000
  H   H1        1.0  0.20501  0.79499  0.75000  1.0000
  H   H2        1.0  0.79499  0.20501  0.25000  1.0000
  H   H3        1.0  0.78860  0.21139  0.75000  1.0000
  H   H4        1.0  0.21140  0.78861  0.25000  1.0000
  H   H5        1.0  0.53598  0.24919  0.86933  1.0000
  H   H6        1.0  0.75082  0.46402  0.63067  1.0000
  H   H7        1.0  0.46402  0.75082  0.13067  1.0000
  H   H8        1.0  0.24918  0.53597  0.36933  1.0000
  C   C1        1.0  0.21630  0.55380  0.89090  1.0000
  C   C2        1.0  0.44621  0.78370  0.60910  1.0000
  C   C3        1.0  0.78371  0.44622  0.10910  1.0000
  C   C4        1.0  0.55378  0.21628  0.39089  1.0000
  C   C5        1.0  0.33247  0.66754  0.75000  1.0000
  C   C6        1.0  0.66753  0.33247  0.25000  1.0000
  C   C7        1.0  0.35688  0.52653  0.81745  1.0000
  C   C8        1.0  0.47348  0.64313  0.68255  1.0000
  C   C9        1.0  0.64313  0.47348  0.18255  1.0000
  C   C10       1.0  0.52652  0.35687  0.31745  1.0000
  C   C11       1.0  0.66096  0.33906  0.75000  1.0000
  C   C12       1.0  0.33905  0.66095  0.25000  1.0000
  C   C13       1.0  0.51872  0.35950  0.81690  1.0000
  C   C14       1.0  0.64051  0.48129  0.68311  1.0000
  C   C15       1.0  0.48129  0.64051  0.18311  1.0000
  C   C16       1.0  0.35949  0.51871  0.31690  1.0000
  O   O1        1.0  0.70738  0.98015  0.93747  1.0000
  O   O2        1.0  0.01986  0.29258  0.56253  1.0000
  O   O3        1.0  0.29261  0.01987  0.06253  1.0000
  O   O4        1.0  0.98013  0.70736  0.43746  1.0000
  O   O5        1.0  0.11638  0.74377  0.89911  1.0000
  O   O6        1.0  0.25624  0.88361  0.60089  1.0000
  O   O7        1.0  0.88363  0.25626  0.10089  1.0000
  O   O8        1.0  0.74375  0.11637  0.39911  1.0000
  O   O9        1.0  0.20131  0.38417  0.94391  1.0000
  O   O10       1.0  0.61583  0.79867  0.55609  1.0000
  O   O11       1.0  0.79869  0.61584  0.05609  1.0000
  O   O12       1.0  0.38416  0.20130  0.44391  1.0000
