data_image0
_chemical_formula_structural       UH8C14O6
_chemical_formula_sum              "U1 H8 C14 O6"
_cell_length_a       5.27956
_cell_length_b       8.52322
_cell_length_c       8.52318
_cell_angle_alpha    117.246
_cell_angle_beta     97.9876
_cell_angle_gamma    97.9873

_space_group_name_H-M_alt    "P 1"
_space_group_IT_number       1

loop_
  _space_group_symop_operation_xyz
  'x, y, z'

loop_
  _atom_site_type_symbol
  _atom_site_label
  _atom_site_symmetry_multiplicity
  _atom_site_fract_x
  _atom_site_fract_y
  _atom_site_fract_z
  _atom_site_occupancy
  U   U1        1.0  0.99999  0.50003  0.50003  1.0000
  H   H1        1.0  0.79247  0.80356  0.93484  1.0000
  H   H2        1.0  0.20754  0.06516  0.19644  1.0000
  H   H3        1.0  0.20754  0.19644  0.06516  1.0000
  H   H4        1.0  0.79248  0.93484  0.80356  1.0000
  H   H5        1.0  0.79316  0.63796  0.10546  1.0000
  H   H6        1.0  0.20684  0.89454  0.36204  1.0000
  H   H7        1.0  0.20684  0.36204  0.89454  1.0000
  H   H8        1.0  0.79316  0.10546  0.63796  1.0000
  C   C1        1.0  0.50000  0.75474  0.24526  1.0000
  C   C2        1.0  0.50000  0.24526  0.75473  1.0000
  C   C3        1.0  0.50001  0.94920  0.05081  1.0000
  C   C4        1.0  0.50000  0.05081  0.94919  1.0000
  C   C5        1.0  0.49999  0.65343  0.34656  1.0000
  C   C6        1.0  0.49999  0.34656  0.65343  1.0000
  C   C7        1.0  0.66347  0.82652  0.02837  1.0000
  C   C8        1.0  0.33654  0.97164  0.17349  1.0000
  C   C9        1.0  0.33654  0.17348  0.97163  1.0000
  C   C10       1.0  0.66347  0.02836  0.82651  1.0000
  C   C11       1.0  0.66507  0.73192  0.12433  1.0000
  C   C12       1.0  0.33493  0.87567  0.26808  1.0000
  C   C13       1.0  0.33493  0.26807  0.87567  1.0000
  C   C14       1.0  0.66507  0.12433  0.73192  1.0000
  O   O1        1.0  0.68034  0.56714  0.34545  1.0000
  O   O2        1.0  0.31964  0.65454  0.43285  1.0000
  O   O3        1.0  0.31965  0.43286  0.65454  1.0000
  O   O4        1.0  0.68034  0.34545  0.56714  1.0000
  O   O5        1.0  0.98928  0.29452  0.29453  1.0000
  O   O6        1.0  0.01070  0.70547  0.70547  1.0000
