data_image0
_chemical_formula_structural       Ag3H33C33N9Cl3
_chemical_formula_sum              "Ag3 H33 C33 N9 Cl3"
_cell_length_a       7.31866
_cell_length_b       10.8992
_cell_length_c       11.2009
_cell_angle_alpha    76.4042
_cell_angle_beta     82.6563
_cell_angle_gamma    87.3787

_space_group_name_H-M_alt    "P 1"
_space_group_IT_number       1

loop_
  _space_group_symop_operation_xyz
  'x, y, z'

loop_
  _atom_site_type_symbol
  _atom_site_label
  _atom_site_symmetry_multiplicity
  _atom_site_fract_x
  _atom_site_fract_y
  _atom_site_fract_z
  _atom_site_occupancy
  Ag  Ag1       1.0  0.02037  0.80368  0.43686  1.0000
  Ag  Ag2       1.0  0.35595  0.79159  0.56007  1.0000
  Ag  Ag3       1.0  0.65273  0.93211  0.62333  1.0000
  H   H1        1.0  0.31442  0.26822  0.47213  1.0000
  H   H2        1.0  0.11130  0.24237  0.41026  1.0000
  H   H3        1.0  0.92181  0.27969  0.58428  1.0000
  H   H4        1.0  0.12454  0.26898  0.65808  1.0000
  H   H5        1.0  0.90056  0.49462  0.59911  1.0000
  H   H6        1.0  0.12969  0.48982  0.63717  1.0000
  H   H7        1.0  0.10532  0.86776  0.21992  1.0000
  H   H8        1.0  0.21714  0.02941  0.03520  1.0000
  H   H9        1.0  0.43376  0.97096  0.86470  1.0000
  H   H10       1.0  0.54466  0.74749  0.88812  1.0000
  H   H11       1.0  0.43805  0.58532  0.07832  1.0000
  H   H12       1.0  0.63197  0.11364  0.03759  1.0000
  H   H13       1.0  0.77508  0.13817  0.14760  1.0000
  H   H14       1.0  0.51119  0.26390  0.20675  1.0000
  H   H15       1.0  0.35816  0.17519  0.15144  1.0000
  H   H16       1.0  0.50149  0.11052  0.40393  1.0000
  H   H17       1.0  0.28406  0.07367  0.36392  1.0000
  H   H18       1.0  0.50923  0.60027  0.51372  1.0000
  H   H19       1.0  0.57167  0.37018  0.54152  1.0000
  H   H20       1.0  0.75485  0.28638  0.37571  1.0000
  H   H21       1.0  0.87746  0.43666  0.17817  1.0000
  H   H22       1.0  0.81049  0.66551  0.14796  1.0000
  H   H23       1.0  0.87978  0.93603  0.00401  1.0000
  H   H24       1.0  0.73090  0.92619  0.89476  1.0000
  H   H25       1.0  0.85706  0.12094  0.77819  1.0000
  H   H26       1.0  0.05471  0.09962  0.85869  1.0000
  H   H27       1.0  0.00627  0.01854  0.62393  1.0000
  H   H28       1.0  0.21473  0.04680  0.68065  1.0000
  H   H29       1.0  0.93539  0.47922  0.94302  1.0000
  H   H30       1.0  0.03413  0.25253  0.97439  1.0000
  H   H31       1.0  0.35026  0.19615  0.88430  1.0000
  H   H32       1.0  0.56654  0.36522  0.77531  1.0000
  H   H33       1.0  0.47234  0.59105  0.75215  1.0000
  C   C1        1.0  0.12263  0.64100  0.37939  1.0000
  C   C2        1.0  0.18519  0.43757  0.38055  1.0000
  C   C3        1.0  0.17560  0.30564  0.45535  1.0000
  C   C4        1.0  0.05861  0.31942  0.57792  1.0000
  C   C5        1.0  0.04166  0.46204  0.57605  1.0000
  C   C6        1.0  0.26765  0.71681  0.16091  1.0000
  C   C7        1.0  0.20445  0.84160  0.14852  1.0000
  C   C8        1.0  0.26717  0.93234  0.04316  1.0000
  C   C9        1.0  0.38845  0.89975  0.94844  1.0000
  C   C10       1.0  0.44954  0.77449  0.96131  1.0000
  C   C11       1.0  0.39075  0.68290  0.06721  1.0000
  C   C12       1.0  0.50211  0.84053  0.38369  1.0000
  C   C13       1.0  0.62397  0.96906  0.20807  1.0000
  C   C14       1.0  0.64119  0.10264  0.13649  1.0000
  C   C15       1.0  0.47816  0.16818  0.20241  1.0000
  C   C16       1.0  0.43241  0.08219  0.33324  1.0000
  C   C17       1.0  0.65336  0.64690  0.32818  1.0000
  C   C18       1.0  0.58701  0.56411  0.43927  1.0000
  C   C19       1.0  0.62311  0.43511  0.45511  1.0000
  C   C20       1.0  0.72585  0.38766  0.36140  1.0000
  C   C21       1.0  0.79324  0.47131  0.25131  1.0000
  C   C22       1.0  0.75745  0.60075  0.23370  1.0000
  C   C23       1.0  0.19183  0.77190  0.72851  1.0000
  C   C24       1.0  0.98658  0.83001  0.87130  1.0000
  C   C25       1.0  0.87569  0.93586  0.90672  1.0000
  C   C26       1.0  0.96325  0.05295  0.81364  1.0000
  C   C27       1.0  0.07755  0.00486  0.70697  1.0000
  C   C28       1.0  0.19631  0.54660  0.84394  1.0000
  C   C29       1.0  0.07348  0.45227  0.90829  1.0000
  C   C30       1.0  0.13031  0.32617  0.92471  1.0000
  C   C31       1.0  0.30675  0.29445  0.87587  1.0000
  C   C32       1.0  0.42855  0.38984  0.81292  1.0000
  C   C33       1.0  0.37524  0.51652  0.79789  1.0000
  N   N1        1.0  0.10899  0.52105  0.44793  1.0000
  N   N2        1.0  0.20974  0.62298  0.26928  1.0000
  N   N3        1.0  0.24942  0.49689  0.26834  1.0000
  N   N4        1.0  0.50923  0.96084  0.31583  1.0000
  N   N5        1.0  0.61486  0.77895  0.30917  1.0000
  N   N6        1.0  0.69225  0.85789  0.19973  1.0000
  N   N7        1.0  0.09553  0.87001  0.76134  1.0000
  N   N8        1.0  0.13690  0.67450  0.82567  1.0000
  N   N9        1.0  0.00798  0.70844  0.91493  1.0000
  Cl  Cl1       1.0  0.92646  0.02490  0.40267  1.0000
  Cl  Cl2       1.0  0.76533  0.71834  0.65664  1.0000
  Cl  Cl3       1.0  0.54002  0.13191  0.65307  1.0000
