data_image0
_chemical_formula_structural       Zn2H24C36N12O8
_chemical_formula_sum              "Zn2 H24 C36 N12 O8"
_cell_length_a       8.03504
_cell_length_b       11.7426
_cell_length_c       11.8212
_cell_angle_alpha    114.143
_cell_angle_beta     102.201
_cell_angle_gamma    104.985

_space_group_name_H-M_alt    "P 1"
_space_group_IT_number       1

loop_
  _space_group_symop_operation_xyz
  'x, y, z'

loop_
  _atom_site_type_symbol
  _atom_site_label
  _atom_site_symmetry_multiplicity
  _atom_site_fract_x
  _atom_site_fract_y
  _atom_site_fract_z
  _atom_site_occupancy
  Zn  Zn1       1.0  0.72062  0.02743  0.23112  1.0000
  Zn  Zn2       1.0  0.98939  0.79639  0.76908  1.0000
  H   H1        1.0  0.89271  0.38629  0.22795  1.0000
  H   H2        1.0  0.16448  0.15833  0.77196  1.0000
  H   H3        1.0  0.95104  0.59044  0.19789  1.0000
  H   H4        1.0  0.25263  0.39256  0.80205  1.0000
  H   H5        1.0  0.69229  0.32839  0.77335  1.0000
  H   H6        1.0  0.41853  0.55519  0.22657  1.0000
  H   H7        1.0  0.64307  0.12723  0.80511  1.0000
  H   H8        1.0  0.33796  0.32227  0.19479  1.0000
  H   H9        1.0  0.92511  0.89181  0.05757  1.0000
  H   H10       1.0  0.36749  0.83451  0.94266  1.0000
  H   H11       1.0  0.89668  0.51582  0.77608  1.0000
  H   H12       1.0  0.62064  0.73969  0.22373  1.0000
  H   H13       1.0  0.96562  0.34175  0.38997  1.0000
  H   H14       1.0  0.07564  0.95144  0.60994  1.0000
  H   H15       1.0  0.15583  0.20677  0.32553  1.0000
  H   H16       1.0  0.33004  0.88066  0.67418  1.0000
  H   H17       1.0  0.63023  0.52793  0.66345  1.0000
  H   H18       1.0  0.46696  0.86432  0.33656  1.0000
  H   H19       1.0  0.43673  0.66253  0.72970  1.0000
  H   H20       1.0  0.20727  0.93272  0.27038  1.0000
  H   H21       1.0  0.80876  0.17202  0.55201  1.0000
  H   H22       1.0  0.75703  0.61985  0.44812  1.0000
  H   H23       1.0  0.42154  0.17168  0.24879  1.0000
  H   H24       1.0  0.67287  0.92295  0.75112  1.0000
  C   C1        1.0  0.76737  0.24382  0.01848  1.0000
  C   C2        1.0  0.24881  0.22545  0.98145  1.0000
  C   C3        1.0  0.85123  0.37468  0.12886  1.0000
  C   C4        1.0  0.22210  0.24586  0.87105  1.0000
  C   C5        1.0  0.88318  0.48845  0.11291  1.0000
  C   C6        1.0  0.26988  0.37558  0.88701  1.0000
  C   C7        1.0  0.82776  0.46997  0.98429  1.0000
  C   C8        1.0  0.34307  0.48575  0.01563  1.0000
  C   C9        1.0  0.74056  0.34091  0.87279  1.0000
  C   C10       1.0  0.36743  0.46825  0.12714  1.0000
  C   C11       1.0  0.71253  0.22856  0.89089  1.0000
  C   C12       1.0  0.32151  0.33781  0.10903  1.0000
  C   C13       1.0  0.73357  0.12121  0.03690  1.0000
  C   C14       1.0  0.19659  0.08446  0.96312  1.0000
  C   C15       1.0  0.90665  0.78626  0.00819  1.0000
  C   C16       1.0  0.39838  0.77829  0.99197  1.0000
  C   C17       1.0  0.89356  0.59626  0.86284  1.0000
  C   C18       1.0  0.53066  0.73346  0.13709  1.0000
  C   C19       1.0  0.18875  0.50977  0.56473  1.0000
  C   C20       1.0  0.12413  0.94488  0.43528  1.0000
  C   C21       1.0  0.11166  0.38301  0.44948  1.0000
  C   C22       1.0  0.16219  0.93323  0.55044  1.0000
  C   C23       1.0  0.21804  0.30753  0.41230  1.0000
  C   C24       1.0  0.30562  0.89479  0.58751  1.0000
  C   C25       1.0  0.40293  0.36007  0.49360  1.0000
  C   C26       1.0  0.40937  0.86618  0.50630  1.0000
  C   C27       1.0  0.48402  0.48818  0.60642  1.0000
  C   C28       1.0  0.37770  0.88154  0.39355  1.0000
  C   C29       1.0  0.37674  0.56291  0.64154  1.0000
  C   C30       1.0  0.23534  0.92119  0.35847  1.0000
  C   C31       1.0  0.06792  0.58408  0.60803  1.0000
  C   C32       1.0  0.96014  0.97609  0.39220  1.0000
  C   C33       1.0  0.70706  0.19851  0.50312  1.0000
  C   C34       1.0  0.70413  0.69523  0.49691  1.0000
  C   C35       1.0  0.51070  0.19541  0.34605  1.0000
  C   C36       1.0  0.66477  0.84932  0.65389  1.0000
  N   N1        1.0  0.86175  0.58516  0.96590  1.0000
  N   N2        1.0  0.39551  0.61937  0.03409  1.0000
  N   N3        1.0  0.87040  0.70593  0.05988  1.0000
  N   N4        1.0  0.31018  0.64629  0.94026  1.0000
  N   N5        1.0  0.92133  0.72256  0.88664  1.0000
  N   N6        1.0  0.53479  0.83604  0.11341  1.0000
  N   N7        1.0  0.51139  0.28095  0.46467  1.0000
  N   N8        1.0  0.54680  0.81606  0.53524  1.0000
  N   N9        1.0  0.63642  0.28415  0.56558  1.0000
  N   N10       1.0  0.57100  0.71831  0.43438  1.0000
  N   N11       1.0  0.63398  0.14182  0.36802  1.0000
  N   N12       1.0  0.76618  0.77383  0.63200  1.0000
  O   O1        1.0  0.77039  0.15009  0.16000  1.0000
  O   O2        1.0  0.11079  0.99009  0.84003  1.0000
  O   O3        1.0  0.67445  0.00476  0.93945  1.0000
  O   O4        1.0  0.23445  0.06558  0.06066  1.0000
  O   O5        1.0  0.15393  0.70920  0.70310  1.0000
  O   O6        1.0  0.95100  0.00610  0.29711  1.0000
  O   O7        1.0  0.89576  0.52463  0.55543  1.0000
  O   O8        1.0  0.84078  0.96947  0.44498  1.0000
