data_image0
_chemical_formula_structural       Cd2H58C46N6O10
_chemical_formula_sum              "Cd2 H58 C46 N6 O10"
_cell_length_a       7.8679
_cell_length_b       9.50933
_cell_length_c       15.3964
_cell_angle_alpha    88.0476
_cell_angle_beta     89.7475
_cell_angle_gamma    74.4749

_space_group_name_H-M_alt    "P 1"
_space_group_IT_number       1

loop_
  _space_group_symop_operation_xyz
  'x, y, z'

loop_
  _atom_site_type_symbol
  _atom_site_label
  _atom_site_symmetry_multiplicity
  _atom_site_fract_x
  _atom_site_fract_y
  _atom_site_fract_z
  _atom_site_occupancy
  Cd  Cd1       1.0  0.64748  0.06633  0.55726  1.0000
  Cd  Cd2       1.0  0.16076  0.09470  0.13654  1.0000
  H   H1        1.0  0.78251  0.38838  0.75858  1.0000
  H   H2        1.0  0.14090  0.55586  0.71804  1.0000
  H   H3        1.0  0.08254  0.56046  0.60759  1.0000
  H   H4        1.0  0.07422  0.31516  0.62757  1.0000
  H   H5        1.0  0.08840  0.32351  0.74135  1.0000
  H   H6        1.0  0.70601  0.74129  0.80276  1.0000
  H   H7        1.0  0.93487  0.72647  0.80886  1.0000
  H   H8        1.0  0.85934  0.56887  0.82710  1.0000
  H   H9        1.0  0.84087  0.53083  0.52650  1.0000
  H   H10       1.0  0.64778  0.67817  0.53514  1.0000
  H   H11       1.0  0.63064  0.49555  0.53597  1.0000
  H   H12       1.0  0.54011  0.59579  0.76601  1.0000
  H   H13       1.0  0.45516  0.54478  0.66958  1.0000
  H   H14       1.0  0.48208  0.72498  0.67724  1.0000
  H   H15       1.0  0.36994  0.30743  0.24940  1.0000
  H   H16       1.0  0.16503  0.52954  0.30661  1.0000
  H   H17       1.0  0.15208  0.56780  0.46834  1.0000
  H   H18       1.0  0.35477  0.37552  0.56510  1.0000
  H   H19       1.0  0.56401  0.13657  0.20940  1.0000
  H   H20       1.0  0.77501  0.90682  0.16935  1.0000
  H   H21       1.0  0.92753  0.72778  0.28720  1.0000
  H   H22       1.0  0.86573  0.79795  0.44351  1.0000
  H   H23       1.0  0.35356  0.07646  0.85168  1.0000
  H   H24       1.0  0.28316  0.91439  0.86885  1.0000
  H   H25       1.0  0.12567  0.08688  0.86114  1.0000
  H   H26       1.0  0.43322  0.12058  0.72403  1.0000
  H   H27       1.0  0.12212  0.94161  0.63781  1.0000
  H   H28       1.0  0.98903  0.98257  0.73138  1.0000
  H   H29       1.0  0.16348  0.81777  0.73005  1.0000
  H   H30       1.0  0.04628  0.11378  0.48205  1.0000
  H   H31       1.0  0.25208  0.87643  0.52319  1.0000
  H   H32       1.0  0.42181  0.71879  0.40684  1.0000
  H   H33       1.0  0.38047  0.81554  0.25094  1.0000
  H   H34       1.0  0.86388  0.29736  0.43992  1.0000
  H   H35       1.0  0.66359  0.52686  0.38024  1.0000
  H   H36       1.0  0.66192  0.58539  0.21818  1.0000
  H   H37       1.0  0.87144  0.40472  0.12515  1.0000
  H   H38       1.0  0.34666  0.72062  0.94103  1.0000
  H   H39       1.0  0.65346  0.59062  0.05637  1.0000
  H   H40       1.0  0.63499  0.57659  0.94313  1.0000
  H   H41       1.0  0.56877  0.37223  0.08597  1.0000
  H   H42       1.0  0.62088  0.33364  0.97682  1.0000
  H   H43       1.0  0.16954  0.44426  0.88735  1.0000
  H   H44       1.0  0.38332  0.32525  0.87709  1.0000
  H   H45       1.0  0.35428  0.51559  0.86631  1.0000
  H   H46       1.0  0.01308  0.76743  0.02942  1.0000
  H   H47       1.0  0.97794  0.59136  0.01491  1.0000
  H   H48       1.0  0.06897  0.67904  0.93002  1.0000
  H   H49       1.0  0.18153  0.69036  0.16138  1.0000
  H   H50       1.0  0.36699  0.53535  0.16808  1.0000
  H   H51       1.0  0.15111  0.51251  0.15579  1.0000
  H   H52       1.0  0.84047  0.15867  0.83585  1.0000
  H   H53       1.0  0.60988  0.18256  0.84103  1.0000
  H   H54       1.0  0.74921  0.01102  0.81140  1.0000
  H   H55       1.0  0.67937  0.93362  0.04432  1.0000
  H   H56       1.0  0.65362  0.87585  0.93710  1.0000
  H   H57       1.0  0.50510  0.03731  0.97754  1.0000
  H   H58       1.0  0.94438  0.16828  0.96463  1.0000
  C   C1        1.0  0.85878  0.64207  0.69064  1.0000
  C   C2        1.0  0.72563  0.55607  0.65757  1.0000
  C   C3        1.0  0.82032  0.39652  0.69013  1.0000
  C   C4        1.0  0.04121  0.53727  0.67335  1.0000
  C   C5        1.0  0.01962  0.38117  0.68323  1.0000
  C   C6        1.0  0.83695  0.67106  0.78797  1.0000
  C   C7        1.0  0.71158  0.56563  0.55789  1.0000
  C   C8        1.0  0.53981  0.60910  0.69486  1.0000
  C   C9        1.0  0.82794  0.78762  0.63861  1.0000
  C   C10       1.0  0.75365  0.28229  0.64387  1.0000
  C   C11       1.0  0.47339  0.22474  0.37756  1.0000
  C   C12       1.0  0.36533  0.32576  0.31902  1.0000
  C   C13       1.0  0.24940  0.45017  0.35144  1.0000
  C   C14       1.0  0.24176  0.47187  0.44072  1.0000
  C   C15       1.0  0.35307  0.36631  0.49467  1.0000
  C   C16       1.0  0.60003  0.08851  0.34861  1.0000
  C   C17       1.0  0.63056  0.05957  0.26045  1.0000
  C   C18       1.0  0.74886  0.92897  0.23757  1.0000
  C   C19       1.0  0.83426  0.83084  0.30275  1.0000
  C   C20       1.0  0.80001  0.86751  0.38910  1.0000
  C   C21       1.0  0.25192  0.02231  0.83562  1.0000
  C   C22       1.0  0.34786  0.06547  0.68971  1.0000
  C   C23       1.0  0.12336  0.93355  0.70861  1.0000
  C   C24       1.0  0.09885  0.08865  0.34353  1.0000
  C   C25       1.0  0.11876  0.04512  0.43157  1.0000
  C   C26       1.0  0.23486  0.91077  0.45502  1.0000
  C   C27       1.0  0.32952  0.82399  0.39071  1.0000
  C   C28       1.0  0.30637  0.87525  0.30455  1.0000
  C   C29       1.0  0.97479  0.22923  0.31341  1.0000
  C   C30       1.0  0.86359  0.32381  0.37039  1.0000
  C   C31       1.0  0.75042  0.45267  0.33651  1.0000
  C   C32       1.0  0.74893  0.48586  0.24742  1.0000
  C   C33       1.0  0.86386  0.38643  0.19525  1.0000
  C   C34       1.0  0.34103  0.43378  0.00038  1.0000
  C   C35       1.0  0.25155  0.58973  0.03694  1.0000
  C   C36       1.0  0.38671  0.67686  0.00702  1.0000
  C   C37       1.0  0.56954  0.56651  0.00533  1.0000
  C   C38       1.0  0.53820  0.41448  0.01910  1.0000
  C   C39       1.0  0.30905  0.43062  0.90218  1.0000
  C   C40       1.0  0.06691  0.66065  0.00063  1.0000
  C   C41       1.0  0.23848  0.58086  0.13645  1.0000
  C   C42       1.0  0.26786  0.31671  0.04664  1.0000
  C   C43       1.0  0.73856  0.10390  0.85359  1.0000
  C   C44       1.0  0.64280  0.97083  0.97751  1.0000
  C   C45       1.0  0.86676  0.10106  0.99728  1.0000
  C   C46       1.0  0.37320  0.80753  0.06391  1.0000
  N   N1        1.0  0.46573  0.24724  0.46355  1.0000
  N   N2        1.0  0.68591  0.99311  0.41142  1.0000
  N   N3        1.0  0.24403  0.01004  0.74232  1.0000
  N   N4        1.0  0.19348  0.00390  0.28175  1.0000
  N   N5        1.0  0.97303  0.26265  0.22758  1.0000
  N   N6        1.0  0.75884  0.05556  0.94432  1.0000
  O   O1        1.0  0.35060  0.05877  0.60869  1.0000
  O   O2        1.0  0.70008  0.89305  0.66471  1.0000
  O   O3        1.0  0.84359  0.21289  0.58137  1.0000
  O   O4        1.0  0.60756  0.26121  0.66832  1.0000
  O   O5        1.0  0.91914  0.79892  0.57257  1.0000
  O   O6        1.0  0.88140  0.07288  0.07734  1.0000
  O   O7        1.0  0.47499  0.79918  0.12760  1.0000
  O   O8        1.0  0.24578  0.92030  0.04205  1.0000
  O   O9        1.0  0.12035  0.30087  0.02216  1.0000
  O   O10       1.0  0.35672  0.23935  0.10970  1.0000
