data_image0
_chemical_formula_structural       MnH46C42N10O10
_chemical_formula_sum              "Mn1 H46 C42 N10 O10"
_cell_length_a       9.30398
_cell_length_b       10.3205
_cell_length_c       10.3023
_cell_angle_alpha    93.7368
_cell_angle_beta     100.956
_cell_angle_gamma    107.385

_space_group_name_H-M_alt    "P 1"
_space_group_IT_number       1

loop_
  _space_group_symop_operation_xyz
  'x, y, z'

loop_
  _atom_site_type_symbol
  _atom_site_label
  _atom_site_symmetry_multiplicity
  _atom_site_fract_x
  _atom_site_fract_y
  _atom_site_fract_z
  _atom_site_occupancy
  Mn  Mn1       1.0  0.00001  1.00000  0.00000  1.0000
  H   H1        1.0  0.27881  0.91741  0.40389  1.0000
  H   H2        1.0  0.72119  0.08260  0.59610  1.0000
  H   H3        1.0  0.89429  0.27728  0.42802  1.0000
  H   H4        1.0  0.10572  0.72274  0.57198  1.0000
  H   H5        1.0  0.05395  0.24570  0.75250  1.0000
  H   H6        1.0  0.94606  0.75431  0.24751  1.0000
  H   H7        1.0  0.93709  0.31296  0.64078  1.0000
  H   H8        1.0  0.06293  0.68706  0.35923  1.0000
  H   H9        1.0  0.15721  0.50110  0.78177  1.0000
  H   H10       1.0  0.84281  0.49891  0.21825  1.0000
  H   H11       1.0  0.16912  0.49980  0.61181  1.0000
  H   H12       1.0  0.83092  0.50021  0.38820  1.0000
  H   H13       1.0  0.29188  0.43360  0.72289  1.0000
  H   H14       1.0  0.70813  0.56639  0.27713  1.0000
  H   H15       1.0  0.48648  0.15043  0.02556  1.0000
  H   H16       1.0  0.51353  0.84957  0.97444  1.0000
  H   H17       1.0  0.34292  0.20545  0.93179  1.0000
  H   H18       1.0  0.65708  0.79455  0.06821  1.0000
  H   H19       1.0  0.55373  0.38715  0.85671  1.0000
  H   H20       1.0  0.44627  0.61285  0.14330  1.0000
  H   H21       1.0  0.58117  0.40329  0.03432  1.0000
  H   H22       1.0  0.41884  0.59670  0.96568  1.0000
  H   H23       1.0  0.85301  0.20896  0.86830  1.0000
  H   H24       1.0  0.14699  0.79104  0.13170  1.0000
  H   H25       1.0  0.71981  0.26446  0.75445  1.0000
  H   H26       1.0  0.28019  0.73553  0.24554  1.0000
  H   H27       1.0  0.62088  0.01028  0.76386  1.0000
  H   H28       1.0  0.37912  0.98972  0.23614  1.0000
  H   H29       1.0  0.63667  0.04431  0.93714  1.0000
  H   H30       1.0  0.36333  0.95569  0.06286  1.0000
  H   H31       1.0  0.12414  0.50322  0.23137  1.0000
  H   H32       1.0  0.87584  0.49674  0.76862  1.0000
  H   H33       1.0  0.29812  0.59595  0.45157  1.0000
  H   H34       1.0  0.70183  0.40401  0.54844  1.0000
  H   H35       1.0  0.55312  0.31882  0.38360  1.0000
  H   H36       1.0  0.44688  0.68119  0.61637  1.0000
  H   H37       1.0  0.37662  0.22801  0.16781  1.0000
  H   H38       1.0  0.62340  0.77201  0.83216  1.0000
  H   H39       1.0  0.76130  0.28359  0.05286  1.0000
  H   H40       1.0  0.23871  0.71641  0.94715  1.0000
  H   H41       1.0  0.81680  0.41845  0.96415  1.0000
  H   H42       1.0  0.18319  0.58155  0.03584  1.0000
  H   H43       1.0  0.48806  0.98996  0.60511  1.0000
  H   H44       1.0  0.51194  0.01004  0.39489  1.0000
  H   H45       1.0  0.20580  0.15373  0.76388  1.0000
  H   H46       1.0  0.79421  0.84628  0.23613  1.0000
  C   C1        1.0  0.87176  0.15582  0.19115  1.0000
  C   C2        1.0  0.12823  0.84419  0.80886  1.0000
  C   C3        1.0  0.98313  0.14973  0.31323  1.0000
  C   C4        1.0  0.01686  0.85027  0.68677  1.0000
  C   C5        1.0  0.09465  0.07842  0.31564  1.0000
  C   C6        1.0  0.90533  0.92158  0.68437  1.0000
  C   C7        1.0  0.19429  0.08393  0.44520  1.0000
  C   C8        1.0  0.80571  0.91608  0.55480  1.0000
  C   C9        1.0  0.31252  0.02003  0.45895  1.0000
  C   C10       1.0  0.68747  0.97998  0.54105  1.0000
  C   C11       1.0  0.37320  0.09200  0.70035  1.0000
  C   C12       1.0  0.62680  0.90800  0.29965  1.0000
  C   C13       1.0  0.17099  0.15140  0.55703  1.0000
  C   C14       1.0  0.82902  0.84861  0.44298  1.0000
  C   C15       1.0  0.97591  0.22086  0.42940  1.0000
  C   C16       1.0  0.02409  0.77916  0.57061  1.0000
  C   C17       1.0  0.05289  0.30304  0.66635  1.0000
  C   C18       1.0  0.94712  0.69697  0.33365  1.0000
  C   C19       1.0  0.17555  0.44265  0.69763  1.0000
  C   C20       1.0  0.82446  0.55736  0.30238  1.0000
  C   C21       1.0  0.45808  0.19719  0.93536  1.0000
  C   C22       1.0  0.54192  0.80280  0.06464  1.0000
  C   C23       1.0  0.57817  0.33707  0.94541  1.0000
  C   C24       1.0  0.42183  0.66293  0.05459  1.0000
  C   C25       1.0  0.73847  0.22106  0.84844  1.0000
  C   C26       1.0  0.26154  0.77893  0.15156  1.0000
  C   C27       1.0  0.61391  0.08419  0.84197  1.0000
  C   C28       1.0  0.38610  0.91581  0.15803  1.0000
  C   C29       1.0  0.24424  0.36531  0.18078  1.0000
  C   C30       1.0  0.75575  0.63468  0.81922  1.0000
  C   C31       1.0  0.22134  0.46618  0.26521  1.0000
  C   C32       1.0  0.77865  0.53380  0.73479  1.0000
  C   C33       1.0  0.31940  0.51714  0.38930  1.0000
  C   C34       1.0  0.68058  0.48283  0.61069  1.0000
  C   C35       1.0  0.44563  0.47020  0.43542  1.0000
  C   C36       1.0  0.55435  0.52979  0.56458  1.0000
  C   C37       1.0  0.46201  0.36353  0.35235  1.0000
  C   C38       1.0  0.53799  0.63647  0.64763  1.0000
  C   C39       1.0  0.36311  0.31195  0.22854  1.0000
  C   C40       1.0  0.63688  0.68806  0.77143  1.0000
  C   C41       1.0  0.14966  0.32396  0.04081  1.0000
  C   C42       1.0  0.85032  0.67604  0.95917  1.0000
  N   N1        1.0  0.73367  0.32067  0.95786  1.0000
  N   N2        1.0  0.26633  0.67933  0.04213  1.0000
  N   N3        1.0  0.46293  0.10529  0.82338  1.0000
  N   N4        1.0  0.53707  0.89471  0.17662  1.0000
  N   N5        1.0  0.39357  0.02583  0.59485  1.0000
  N   N6        1.0  0.60643  0.97418  0.40515  1.0000
  N   N7        1.0  0.25974  0.15475  0.68599  1.0000
  N   N8        1.0  0.74026  0.84525  0.31401  1.0000
  N   N9        1.0  0.06719  0.22190  0.54892  1.0000
  N   N10       1.0  0.93282  0.77811  0.45109  1.0000
  O   O1        1.0  0.79787  0.24141  0.19657  1.0000
  O   O2        1.0  0.20213  0.75859  0.80342  1.0000
  O   O3        1.0  0.85100  0.07465  0.08462  1.0000
  O   O4        1.0  0.14900  0.92533  0.91541  1.0000
  O   O5        1.0  0.11207  0.01080  0.21345  1.0000
  O   O6        1.0  0.88792  0.98920  0.78655  1.0000
  O   O7        1.0  0.13861  0.20758  0.97934  1.0000
  O   O8        1.0  0.86138  0.79241  0.02064  1.0000
  O   O9        1.0  0.08914  0.40847  0.98854  1.0000
  O   O10       1.0  0.91087  0.59152  0.01144  1.0000
