data_image0
_chemical_formula_structural       Mn2H56C64N6O18F2
_chemical_formula_sum              "Mn2 H56 C64 N6 O18 F2"
_cell_length_a       10.1807
_cell_length_b       12.1001
_cell_length_c       13.6164
_cell_angle_alpha    63.6354
_cell_angle_beta     72.1405
_cell_angle_gamma    83.1047

_space_group_name_H-M_alt    "P 1"
_space_group_IT_number       1

loop_
  _space_group_symop_operation_xyz
  'x, y, z'

loop_
  _atom_site_type_symbol
  _atom_site_label
  _atom_site_symmetry_multiplicity
  _atom_site_fract_x
  _atom_site_fract_y
  _atom_site_fract_z
  _atom_site_occupancy
  Mn  Mn1       1.0  0.91775  0.18472  0.90003  1.0000
  Mn  Mn2       1.0  0.08225  0.81528  0.09997  1.0000
  H   H1        1.0  0.92078  0.21406  0.57579  1.0000
  H   H2        1.0  0.07923  0.78594  0.42420  1.0000
  H   H3        1.0  0.27784  0.51158  0.25435  1.0000
  H   H4        1.0  0.72216  0.48842  0.74565  1.0000
  H   H5        1.0  0.27847  0.56008  0.57584  1.0000
  H   H6        1.0  0.72153  0.43992  0.42416  1.0000
  H   H7        1.0  0.27489  0.68009  0.30916  1.0000
  H   H8        1.0  0.72511  0.31991  0.69083  1.0000
  H   H9        1.0  0.51083  0.48805  0.33522  1.0000
  H   H10       1.0  0.48916  0.51194  0.66477  1.0000
  H   H11       1.0  0.50986  0.63566  0.21044  1.0000
  H   H12       1.0  0.49014  0.36434  0.78956  1.0000
  H   H13       1.0  0.48175  0.60365  0.45600  1.0000
  H   H14       1.0  0.51825  0.39634  0.54399  1.0000
  H   H15       1.0  0.47892  0.75064  0.33222  1.0000
  H   H16       1.0  0.52109  0.24935  0.66778  1.0000
  H   H17       1.0  0.04652  0.46698  0.08341  1.0000
  H   H18       1.0  0.95349  0.53303  0.91658  1.0000
  H   H19       1.0  0.95464  0.34504  0.20937  1.0000
  H   H20       1.0  0.04537  0.65496  0.79062  1.0000
  H   H21       1.0  0.09722  0.18978  0.14997  1.0000
  H   H22       1.0  0.90278  0.81021  0.85003  1.0000
  H   H23       1.0  0.01368  0.28838  0.04439  1.0000
  H   H24       1.0  0.98632  0.71161  0.95560  1.0000
  H   H25       1.0  0.42770  0.38217  0.96727  1.0000
  H   H26       1.0  0.57231  0.61781  0.03273  1.0000
  H   H27       1.0  0.36739  0.24634  0.09519  1.0000
  H   H28       1.0  0.63261  0.75365  0.90481  1.0000
  H   H29       1.0  0.37453  0.40588  0.15068  1.0000
  H   H30       1.0  0.62548  0.59412  0.84932  1.0000
  H   H31       1.0  0.28638  0.51429  0.05404  1.0000
  H   H32       1.0  0.71363  0.48570  0.94595  1.0000
  H   H33       1.0  0.15377  0.87382  0.72627  1.0000
  H   H34       1.0  0.84623  0.12619  0.27374  1.0000
  H   H35       1.0  0.27294  0.94033  0.52061  1.0000
  H   H36       1.0  0.72705  0.05968  0.47940  1.0000
  H   H37       1.0  0.40561  0.27695  0.49835  1.0000
  H   H38       1.0  0.59439  0.72306  0.50166  1.0000
  H   H39       1.0  0.28197  0.20938  0.70749  1.0000
  H   H40       1.0  0.71805  0.79062  0.29253  1.0000
  H   H41       1.0  0.16593  0.07511  0.38331  1.0000
  H   H42       1.0  0.83406  0.92488  0.61669  1.0000
  H   H43       1.0  0.13675  0.97402  0.26634  1.0000
  H   H44       1.0  0.86324  0.02598  0.73366  1.0000
  H   H45       1.0  0.57562  0.99263  0.11284  1.0000
  H   H46       1.0  0.42437  0.00738  0.88717  1.0000
  H   H47       1.0  0.60234  0.11207  0.21644  1.0000
  H   H48       1.0  0.39766  0.88793  0.78357  1.0000
  H   H49       1.0  0.25544  0.24924  0.97448  1.0000
  H   H50       1.0  0.74456  0.75075  0.02553  1.0000
  H   H51       1.0  0.21566  0.39605  0.92008  1.0000
  H   H52       1.0  0.78435  0.60395  0.07992  1.0000
  H   H53       1.0  0.64701  0.24037  0.94242  1.0000
  H   H54       1.0  0.35299  0.75963  0.05759  1.0000
  H   H55       1.0  0.71065  0.24400  0.03349  1.0000
  H   H56       1.0  0.28934  0.75600  0.96651  1.0000
  C   C1        1.0  0.11816  0.40953  0.77488  1.0000
  C   C2        1.0  0.88184  0.59047  0.22512  1.0000
  C   C3        1.0  0.12486  0.41669  0.66048  1.0000
  C   C4        1.0  0.87513  0.58331  0.33951  1.0000
  C   C5        1.0  0.03951  0.34346  0.64367  1.0000
  C   C6        1.0  0.96049  0.65654  0.35632  1.0000
  C   C7        1.0  0.07034  0.35464  0.52785  1.0000
  C   C8        1.0  0.92965  0.64536  0.47214  1.0000
  C   C9        1.0  0.99841  0.27999  0.50565  1.0000
  C   C10       1.0  0.00160  0.72001  0.49435  1.0000
  C   C11       1.0  0.02899  0.28760  0.39772  1.0000
  C   C12       1.0  0.97102  0.71240  0.60227  1.0000
  C   C13       1.0  0.13189  0.36925  0.30255  1.0000
  C   C14       1.0  0.86812  0.63075  0.69744  1.0000
  C   C15       1.0  0.20246  0.44423  0.32495  1.0000
  C   C16       1.0  0.79754  0.55578  0.67505  1.0000
  C   C17       1.0  0.17372  0.43651  0.43551  1.0000
  C   C18       1.0  0.82628  0.56350  0.56449  1.0000
  C   C19       1.0  0.21927  0.49904  0.56532  1.0000
  C   C20       1.0  0.78073  0.50096  0.43467  1.0000
  C   C21       1.0  0.33357  0.61035  0.36184  1.0000
  C   C22       1.0  0.66643  0.38965  0.63816  1.0000
  C   C23       1.0  0.47570  0.58277  0.30270  1.0000
  C   C24       1.0  0.52429  0.41723  0.69729  1.0000
  C   C25       1.0  0.45746  0.65180  0.37477  1.0000
  C   C26       1.0  0.54254  0.34819  0.62523  1.0000
  C   C27       1.0  0.05525  0.37078  0.14549  1.0000
  C   C28       1.0  0.94476  0.62922  0.85450  1.0000
  C   C29       1.0  0.08935  0.28486  0.08788  1.0000
  C   C30       1.0  0.91066  0.71513  0.91212  1.0000
  C   C31       1.0  0.33824  0.33861  0.04125  1.0000
  C   C32       1.0  0.66177  0.66138  0.95875  1.0000
  C   C33       1.0  0.29355  0.41540  0.10963  1.0000
  C   C34       1.0  0.70646  0.58460  0.89036  1.0000
  C   C35       1.0  0.20592  0.04033  0.72796  1.0000
  C   C36       1.0  0.79408  0.95968  0.27205  1.0000
  C   C37       1.0  0.20520  0.96385  0.67542  1.0000
  C   C38       1.0  0.79480  0.03616  0.32459  1.0000
  C   C39       1.0  0.27240  0.00158  0.55983  1.0000
  C   C40       1.0  0.72760  0.99843  0.44017  1.0000
  C   C41       1.0  0.34206  0.11669  0.49487  1.0000
  C   C42       1.0  0.65792  0.88332  0.50513  1.0000
  C   C43       1.0  0.34758  0.19008  0.54946  1.0000
  C   C44       1.0  0.65242  0.80993  0.45054  1.0000
  C   C45       1.0  0.27949  0.15286  0.66438  1.0000
  C   C46       1.0  0.72052  0.84715  0.33563  1.0000
  C   C47       1.0  0.41331  0.16356  0.37064  1.0000
  C   C48       1.0  0.58668  0.83644  0.62937  1.0000
  C   C49       1.0  0.38763  0.09837  0.30776  1.0000
  C   C50       1.0  0.61236  0.90163  0.69226  1.0000
  C   C51       1.0  0.25561  0.05832  0.32347  1.0000
  C   C52       1.0  0.74439  0.94168  0.67654  1.0000
  C   C53       1.0  0.23892  0.00116  0.25913  1.0000
  C   C54       1.0  0.76108  0.99884  0.74088  1.0000
  C   C55       1.0  0.35433  0.97597  0.18417  1.0000
  C   C56       1.0  0.64567  0.02403  0.81584  1.0000
  C   C57       1.0  0.48640  0.01316  0.17052  1.0000
  C   C58       1.0  0.51360  0.98684  0.82949  1.0000
  C   C59       1.0  0.50153  0.07850  0.22842  1.0000
  C   C60       1.0  0.49847  0.92150  0.77159  1.0000
  C   C61       1.0  0.13897  0.00088  0.85295  1.0000
  C   C62       1.0  0.86103  0.99913  0.14706  1.0000
  C   C63       1.0  0.33393  0.91078  0.11893  1.0000
  C   C64       1.0  0.66607  0.08923  0.88106  1.0000
  N   N1        1.0  0.22660  0.32045  0.99810  1.0000
  N   N2        1.0  0.77340  0.67954  0.00189  1.0000
  N   N3        1.0  0.16305  0.36721  0.19710  1.0000
  N   N4        1.0  0.83696  0.63279  0.80289  1.0000
  N   N5        1.0  0.24460  0.51111  0.45769  1.0000
  N   N6        1.0  0.75540  0.48889  0.54230  1.0000
  O   O1        1.0  0.02376  0.34190  0.86328  1.0000
  O   O2        1.0  0.97623  0.65812  0.13672  1.0000
  O   O3        1.0  0.70993  0.29013  0.95384  1.0000
  O   O4        1.0  0.29006  0.70988  0.04617  1.0000
  O   O5        1.0  0.20711  0.46970  0.78129  1.0000
  O   O6        1.0  0.79290  0.53029  0.21870  1.0000
  O   O7        1.0  0.94185  0.27026  0.72155  1.0000
  O   O8        1.0  0.05815  0.72974  0.27845  1.0000
  O   O9        1.0  0.10027  0.08463  0.88715  1.0000
  O   O10       1.0  0.89972  0.91538  0.11286  1.0000
  O   O11       1.0  0.13065  0.88468  0.91723  1.0000
  O   O12       1.0  0.86934  0.11533  0.08278  1.0000
  O   O13       1.0  0.49434  0.25362  0.31974  1.0000
  O   O14       1.0  0.50567  0.74638  0.68027  1.0000
  O   O15       1.0  0.22230  0.93547  0.08903  1.0000
  O   O16       1.0  0.77770  0.06454  0.91096  1.0000
  O   O17       1.0  0.42580  0.83695  0.09811  1.0000
  O   O18       1.0  0.57419  0.16305  0.90189  1.0000
  F   F1        1.0  0.96023  0.20843  0.38208  1.0000
  F   F2        1.0  0.03977  0.79157  0.61791  1.0000
