data_image0
_chemical_formula_structural       MnH46C48N6O10F4
_chemical_formula_sum              "Mn1 H46 C48 N6 O10 F4"
_cell_length_a       9.93393
_cell_length_b       10.7643
_cell_length_c       10.9536
_cell_angle_alpha    96.1991
_cell_angle_beta     112.033
_cell_angle_gamma    99.9563

_space_group_name_H-M_alt    "P 1"
_space_group_IT_number       1

loop_
  _space_group_symop_operation_xyz
  'x, y, z'

loop_
  _atom_site_type_symbol
  _atom_site_label
  _atom_site_symmetry_multiplicity
  _atom_site_fract_x
  _atom_site_fract_y
  _atom_site_fract_z
  _atom_site_occupancy
  Mn  Mn1       1.0  1.00000  0.00000  1.00000  1.0000
  H   H1        1.0  0.80597  0.39083  0.16513  1.0000
  H   H2        1.0  0.19403  0.60918  0.83487  1.0000
  H   H3        1.0  0.33757  0.31235  0.08841  1.0000
  H   H4        1.0  0.66242  0.68765  0.91158  1.0000
  H   H5        1.0  0.83419  0.58917  0.19087  1.0000
  H   H6        1.0  0.16581  0.41084  0.80913  1.0000
  H   H7        1.0  0.98052  0.69997  0.18049  1.0000
  H   H8        1.0  0.01949  0.30003  0.81951  1.0000
  H   H9        1.0  0.99580  0.73645  0.41336  1.0000
  H   H10       1.0  0.00420  0.26355  0.58665  1.0000
  H   H11       1.0  0.15185  0.67733  0.41355  1.0000
  H   H12       1.0  0.84815  0.32266  0.58645  1.0000
  H   H13       1.0  0.99778  0.57223  0.42302  1.0000
  H   H14       1.0  0.00221  0.42776  0.57697  1.0000
  H   H15       1.0  0.48573  0.83210  0.03283  1.0000
  H   H16       1.0  0.51428  0.16790  0.96717  1.0000
  H   H17       1.0  0.52869  0.67989  0.03434  1.0000
  H   H18       1.0  0.47132  0.32011  0.96566  1.0000
  H   H19       1.0  0.75890  0.85819  0.09375  1.0000
  H   H20       1.0  0.24111  0.14181  0.90625  1.0000
  H   H21       1.0  0.77349  0.77238  0.22759  1.0000
  H   H22       1.0  0.22652  0.22762  0.77241  1.0000
  H   H23       1.0  0.72875  0.87145  0.41755  1.0000
  H   H24       1.0  0.27125  0.12855  0.58244  1.0000
  H   H25       1.0  0.46475  0.84396  0.36586  1.0000
  H   H26       1.0  0.53524  0.15604  0.63414  1.0000
  H   H27       1.0  0.43731  0.93247  0.23331  1.0000
  H   H28       1.0  0.56269  0.06754  0.76668  1.0000
  H   H29       1.0  0.65221  0.04528  0.52545  1.0000
  H   H30       1.0  0.34778  0.95472  0.47455  1.0000
  H   H31       1.0  0.63707  0.12890  0.39074  1.0000
  H   H32       1.0  0.36293  0.87110  0.60926  1.0000
  H   H33       1.0  0.81354  0.10516  0.49812  1.0000
  H   H34       1.0  0.18646  0.89483  0.50189  1.0000
  H   H35       1.0  0.09147  0.30059  0.44145  1.0000
  H   H36       1.0  0.90855  0.69942  0.55858  1.0000
  H   H37       1.0  0.28096  0.50351  0.53712  1.0000
  H   H38       1.0  0.71907  0.49648  0.46290  1.0000
  H   H39       1.0  0.56720  0.33754  0.38562  1.0000
  H   H40       1.0  0.43280  0.66245  0.61437  1.0000
  H   H41       1.0  0.37152  0.13783  0.28575  1.0000
  H   H42       1.0  0.62846  0.86217  0.71424  1.0000
  H   H43       1.0  0.69819  0.02590  0.20137  1.0000
  H   H44       1.0  0.30181  0.97410  0.79863  1.0000
  H   H45       1.0  0.85539  0.99416  0.30984  1.0000
  H   H46       1.0  0.14461  0.00584  0.69016  1.0000
  C   C1        1.0  0.81944  0.15542  0.08324  1.0000
  C   C2        1.0  0.18055  0.84458  0.91676  1.0000
  C   C3        1.0  0.93131  0.27509  0.10329  1.0000
  C   C4        1.0  0.06868  0.72491  0.89671  1.0000
  C   C5        1.0  0.06458  0.27685  0.08151  1.0000
  C   C6        1.0  0.93541  0.72315  0.91848  1.0000
  C   C7        1.0  0.17048  0.39923  0.11791  1.0000
  C   C8        1.0  0.82951  0.60077  0.88208  1.0000
  C   C9        1.0  0.13757  0.51511  0.16243  1.0000
  C   C10       1.0  0.86242  0.48490  0.83757  1.0000
  C   C11       1.0  0.90732  0.39055  0.14842  1.0000
  C   C12       1.0  0.09267  0.60945  0.85158  1.0000
  C   C13       1.0  0.31003  0.40263  0.11213  1.0000
  C   C14       1.0  0.68996  0.59737  0.88787  1.0000
  C   C15       1.0  0.41216  0.51704  0.14545  1.0000
  C   C16       1.0  0.58784  0.48297  0.85455  1.0000
  C   C17       1.0  0.38269  0.63718  0.17894  1.0000
  C   C18       1.0  0.61731  0.36282  0.82105  1.0000
  C   C19       1.0  0.24356  0.63064  0.18770  1.0000
  C   C20       1.0  0.75644  0.36936  0.81229  1.0000
  C   C21       1.0  0.95586  0.61836  0.22598  1.0000
  C   C22       1.0  0.04414  0.38165  0.77402  1.0000
  C   C23       1.0  0.02988  0.65270  0.37808  1.0000
  C   C24       1.0  0.97011  0.34730  0.62192  1.0000
  C   C25       1.0  0.54675  0.77136  0.09853  1.0000
  C   C26       1.0  0.45325  0.22865  0.90147  1.0000
  C   C27       1.0  0.71157  0.83422  0.16620  1.0000
  C   C28       1.0  0.28844  0.16578  0.83380  1.0000
  C   C29       1.0  0.66839  0.93519  0.35754  1.0000
  C   C30       1.0  0.33161  0.06481  0.64245  1.0000
  C   C31       1.0  0.50297  0.86741  0.28765  1.0000
  C   C32       1.0  0.49703  0.13259  0.71235  1.0000
  C   C33       1.0  0.69398  0.06166  0.44757  1.0000
  C   C34       1.0  0.30601  0.93833  0.55243  1.0000
  C   C35       1.0  0.21887  0.20443  0.35917  1.0000
  C   C36       1.0  0.78113  0.79557  0.64084  1.0000
  C   C37       1.0  0.19684  0.31014  0.43036  1.0000
  C   C38       1.0  0.80317  0.68985  0.56965  1.0000
  C   C39       1.0  0.30470  0.42433  0.48395  1.0000
  C   C40       1.0  0.69531  0.57566  0.51607  1.0000
  C   C41       1.0  0.44265  0.43890  0.47147  1.0000
  C   C42       1.0  0.55736  0.56109  0.52854  1.0000
  C   C43       1.0  0.46371  0.33169  0.40008  1.0000
  C   C44       1.0  0.53629  0.66830  0.59992  1.0000
  C   C45       1.0  0.35397  0.21778  0.34363  1.0000
  C   C46       1.0  0.64602  0.78222  0.65637  1.0000
  C   C47       1.0  0.10035  0.08170  0.30861  1.0000
  C   C48       1.0  0.89965  0.91830  0.69140  1.0000
  N   N1        1.0  0.73568  0.95575  0.25795  1.0000
  N   N2        1.0  0.26432  0.04425  0.74205  1.0000
  N   N3        1.0  0.48469  0.74977  0.19839  1.0000
  N   N4        1.0  0.51531  0.25023  0.80160  1.0000
  N   N5        1.0  0.00071  0.50715  0.17369  1.0000
  N   N6        1.0  0.99929  0.49285  0.82630  1.0000
  O   O1        1.0  0.83031  0.04888  0.02452  1.0000
  O   O2        1.0  0.16968  0.95112  0.97548  1.0000
  O   O3        1.0  0.71686  0.16013  0.12507  1.0000
  O   O4        1.0  0.28313  0.83988  0.87493  1.0000
  O   O5        1.0  0.09771  0.17696  0.03409  1.0000
  O   O6        1.0  0.90229  0.82305  0.96591  1.0000
  O   O7        1.0  0.08502  0.00158  0.20623  1.0000
  O   O8        1.0  0.91496  0.99843  0.79377  1.0000
  O   O9        1.0  0.02298  0.06245  0.37795  1.0000
  O   O10       1.0  0.97702  0.93756  0.62205  1.0000
  F   F1        1.0  0.55216  0.51561  0.15051  1.0000
  F   F2        1.0  0.44784  0.48439  0.84950  1.0000
  F   F3        1.0  0.21203  0.74574  0.21797  1.0000
  F   F4        1.0  0.78797  0.25426  0.78203  1.0000
