data_image0
_chemical_formula_structural       Cd4H48C60N8O20
_chemical_formula_sum              "Cd4 H48 C60 N8 O20"
_cell_length_a       7.44623
_cell_length_b       11.3624
_cell_length_c       18.5138
_cell_angle_alpha    90.0001
_cell_angle_beta     90.022
_cell_angle_gamma    90.0001

_space_group_name_H-M_alt    "P 1"
_space_group_IT_number       1

loop_
  _space_group_symop_operation_xyz
  'x, y, z'

loop_
  _atom_site_type_symbol
  _atom_site_label
  _atom_site_symmetry_multiplicity
  _atom_site_fract_x
  _atom_site_fract_y
  _atom_site_fract_z
  _atom_site_occupancy
  Cd  Cd1       1.0  0.50000  0.50000  0.00000  1.0000
  Cd  Cd2       1.0  0.50000  1.00000  0.50000  1.0000
  Cd  Cd3       1.0  0.00000  0.50000  1.00000  1.0000
  Cd  Cd4       1.0  0.00000  0.00000  0.50000  1.0000
  H   H1        1.0  0.02123  0.20537  0.32511  1.0000
  H   H2        1.0  0.97877  0.70537  0.17489  1.0000
  H   H3        1.0  0.97877  0.79463  0.67489  1.0000
  H   H4        1.0  0.02123  0.29463  0.82511  1.0000
  H   H5        1.0  0.46941  0.50854  0.18267  1.0000
  H   H6        1.0  0.53059  0.00854  0.31732  1.0000
  H   H7        1.0  0.53059  0.49146  0.81732  1.0000
  H   H8        1.0  0.46941  0.99146  0.68267  1.0000
  H   H9        1.0  0.03685  0.31017  0.20559  1.0000
  H   H10       1.0  0.96315  0.81016  0.29442  1.0000
  H   H11       1.0  0.96316  0.68984  0.79442  1.0000
  H   H12       1.0  0.03684  0.18983  0.70559  1.0000
  H   H13       1.0  0.18642  0.42243  0.37829  1.0000
  H   H14       1.0  0.81358  0.92243  0.12171  1.0000
  H   H15       1.0  0.81358  0.57757  0.62171  1.0000
  H   H16       1.0  0.18642  0.07756  0.87829  1.0000
  H   H17       1.0  0.43737  0.29737  0.41826  1.0000
  H   H18       1.0  0.56263  0.79738  0.08174  1.0000
  H   H19       1.0  0.56264  0.70263  0.58174  1.0000
  H   H20       1.0  0.43736  0.20262  0.91826  1.0000
  H   H21       1.0  0.48590  0.28292  0.10469  1.0000
  H   H22       1.0  0.51410  0.78292  0.39531  1.0000
  H   H23       1.0  0.51410  0.71708  0.89531  1.0000
  H   H24       1.0  0.48590  0.21708  0.60469  1.0000
  H   H25       1.0  0.20365  0.52898  0.25958  1.0000
  H   H26       1.0  0.79635  0.02898  0.24042  1.0000
  H   H27       1.0  0.79635  0.47102  0.74042  1.0000
  H   H28       1.0  0.20364  0.97102  0.75958  1.0000
  H   H29       1.0  0.15659  0.02832  0.05252  1.0000
  H   H30       1.0  0.84342  0.52832  0.44748  1.0000
  H   H31       1.0  0.84341  0.97168  0.94748  1.0000
  H   H32       1.0  0.15658  0.47168  0.55252  1.0000
  H   H33       1.0  0.02969  0.07250  0.12987  1.0000
  H   H34       1.0  0.97031  0.57250  0.37013  1.0000
  H   H35       1.0  0.97031  0.92750  0.87013  1.0000
  H   H36       1.0  0.02969  0.42750  0.62987  1.0000
  H   H37       1.0  0.99282  0.22392  0.01948  1.0000
  H   H38       1.0  0.00719  0.72392  0.48052  1.0000
  H   H39       1.0  0.00719  0.77608  0.98052  1.0000
  H   H40       1.0  0.99282  0.27608  0.51948  1.0000
  H   H41       1.0  0.28797  0.15452  0.18868  1.0000
  H   H42       1.0  0.71203  0.65451  0.31133  1.0000
  H   H43       1.0  0.71203  0.84548  0.81132  1.0000
  H   H44       1.0  0.28797  0.34549  0.68867  1.0000
  H   H45       1.0  0.40894  0.05710  0.13104  1.0000
  H   H46       1.0  0.59106  0.55710  0.36896  1.0000
  H   H47       1.0  0.59106  0.94290  0.86896  1.0000
  H   H48       1.0  0.40894  0.44290  0.63103  1.0000
  C   C1        1.0  0.60107  0.32847  0.32318  1.0000
  C   C2        1.0  0.39893  0.82847  0.17682  1.0000
  C   C3        1.0  0.39894  0.67153  0.67683  1.0000
  C   C4        1.0  0.60106  0.17152  0.82318  1.0000
  C   C5        1.0  0.76880  0.37576  0.21180  1.0000
  C   C6        1.0  0.23121  0.87576  0.28820  1.0000
  C   C7        1.0  0.23121  0.62425  0.78820  1.0000
  C   C8        1.0  0.76879  0.12424  0.71180  1.0000
  C   C9        1.0  0.60977  0.38809  0.25471  1.0000
  C   C10       1.0  0.39023  0.88809  0.24529  1.0000
  C   C11       1.0  0.39024  0.61191  0.74529  1.0000
  C   C12       1.0  0.60976  0.11190  0.75471  1.0000
  C   C13       1.0  0.75175  0.26004  0.34632  1.0000
  C   C14       1.0  0.24825  0.76004  0.15368  1.0000
  C   C15       1.0  0.24826  0.73996  0.65368  1.0000
  C   C16       1.0  0.75174  0.23995  0.84632  1.0000
  C   C17       1.0  0.74045  0.18055  0.41081  1.0000
  C   C18       1.0  0.25956  0.68055  0.08919  1.0000
  C   C19       1.0  0.25955  0.81945  0.58919  1.0000
  C   C20       1.0  0.74044  0.31945  0.91081  1.0000
  C   C21       1.0  0.90769  0.25717  0.30565  1.0000
  C   C22       1.0  0.09231  0.75717  0.19435  1.0000
  C   C23       1.0  0.09232  0.74283  0.69435  1.0000
  C   C24       1.0  0.90768  0.24283  0.80566  1.0000
  C   C25       1.0  0.46301  0.46052  0.23349  1.0000
  C   C26       1.0  0.53699  0.96052  0.26651  1.0000
  C   C27       1.0  0.53699  0.53948  0.76651  1.0000
  C   C28       1.0  0.46300  0.03948  0.73349  1.0000
  C   C29       1.0  0.77985  0.42131  0.13572  1.0000
  C   C30       1.0  0.22016  0.92131  0.36428  1.0000
  C   C31       1.0  0.22016  0.57870  0.86428  1.0000
  C   C32       1.0  0.77984  0.07870  0.63572  1.0000
  C   C33       1.0  0.91575  0.31498  0.23851  1.0000
  C   C34       1.0  0.08425  0.81498  0.26149  1.0000
  C   C35       1.0  0.08426  0.68503  0.76149  1.0000
  C   C36       1.0  0.91574  0.18502  0.73851  1.0000
  C   C37       1.0  0.30480  0.41317  0.34408  1.0000
  C   C38       1.0  0.69520  0.91317  0.15592  1.0000
  C   C39       1.0  0.69520  0.58683  0.65592  1.0000
  C   C40       1.0  0.30480  0.08682  0.84408  1.0000
  C   C41       1.0  0.24134  0.27982  0.05304  1.0000
  C   C42       1.0  0.75866  0.77982  0.44696  1.0000
  C   C43       1.0  0.75866  0.72018  0.94696  1.0000
  C   C44       1.0  0.24135  0.22018  0.55304  1.0000
  C   C45       1.0  0.44501  0.34292  0.36665  1.0000
  C   C46       1.0  0.55498  0.84292  0.13335  1.0000
  C   C47       1.0  0.55499  0.65708  0.63335  1.0000
  C   C48       1.0  0.44501  0.15707  0.86665  1.0000
  C   C49       1.0  0.31398  0.47265  0.27714  1.0000
  C   C50       1.0  0.68602  0.97266  0.22286  1.0000
  C   C51       1.0  0.68602  0.52734  0.72286  1.0000
  C   C52       1.0  0.31397  0.02734  0.77714  1.0000
  C   C53       1.0  0.13583  0.09945  0.09228  1.0000
  C   C54       1.0  0.86417  0.59945  0.40772  1.0000
  C   C55       1.0  0.86417  0.90055  0.90772  1.0000
  C   C56       1.0  0.13583  0.40055  0.59228  1.0000
  C   C57       1.0  0.31280  0.12989  0.13195  1.0000
  C   C58       1.0  0.68720  0.62989  0.36805  1.0000
  C   C59       1.0  0.68720  0.87011  0.86805  1.0000
  C   C60       1.0  0.31280  0.37011  0.63195  1.0000
  N   N1        1.0  0.37760  0.23092  0.09063  1.0000
  N   N2        1.0  0.62240  0.73092  0.40937  1.0000
  N   N3        1.0  0.62240  0.76908  0.90937  1.0000
  N   N4        1.0  0.37760  0.26909  0.59063  1.0000
  N   N5        1.0  0.09304  0.21075  0.05666  1.0000
  N   N6        1.0  0.90696  0.71075  0.44334  1.0000
  N   N7        1.0  0.90696  0.78925  0.94334  1.0000
  N   N8        1.0  0.09304  0.28925  0.55666  1.0000
  O   O1        1.0  0.25001  0.37659  0.01863  1.0000
  O   O2        1.0  0.74999  0.87659  0.48137  1.0000
  O   O3        1.0  0.74999  0.62341  0.98137  1.0000
  O   O4        1.0  0.25001  0.12341  0.51863  1.0000
  O   O5        1.0  0.87269  0.17610  0.45421  1.0000
  O   O6        1.0  0.12732  0.67610  0.04579  1.0000
  O   O7        1.0  0.12732  0.82391  0.54579  1.0000
  O   O8        1.0  0.87268  0.32390  0.95422  1.0000
  O   O9        1.0  0.59780  0.11912  0.41420  1.0000
  O   O10       1.0  0.40220  0.61912  0.08580  1.0000
  O   O11       1.0  0.40220  0.88088  0.58580  1.0000
  O   O12       1.0  0.59780  0.38088  0.91420  1.0000
  O   O13       1.0  0.64543  0.40107  0.09478  1.0000
  O   O14       1.0  0.35458  0.90107  0.40522  1.0000
  O   O15       1.0  0.35458  0.59893  0.90522  1.0000
  O   O16       1.0  0.64542  0.09893  0.59478  1.0000
  O   O17       1.0  0.92472  0.47185  0.11711  1.0000
  O   O18       1.0  0.07529  0.97186  0.38289  1.0000
  O   O19       1.0  0.07530  0.52815  0.88289  1.0000
  O   O20       1.0  0.92470  0.02815  0.61711  1.0000
