data_image0
_chemical_formula_structural       Na6B10H4C2O22
_chemical_formula_sum              "Na6 B10 H4 C2 O22"
_cell_length_a       6.37039
_cell_length_b       6.5114
_cell_length_c       11.9769
_cell_angle_alpha    90.0001
_cell_angle_beta     90
_cell_angle_gamma    117.726

_space_group_name_H-M_alt    "P 1"
_space_group_IT_number       1

loop_
  _space_group_symop_operation_xyz
  'x, y, z'

loop_
  _atom_site_type_symbol
  _atom_site_label
  _atom_site_symmetry_multiplicity
  _atom_site_fract_x
  _atom_site_fract_y
  _atom_site_fract_z
  _atom_site_occupancy
  Na  Na1       1.0  0.92565  0.32753  0.95063  1.0000
  Na  Na2       1.0  0.07435  0.67247  0.45063  1.0000
  Na  Na3       1.0  0.42317  0.85088  0.93466  1.0000
  Na  Na4       1.0  0.57683  0.14912  0.43466  1.0000
  Na  Na5       1.0  0.80356  0.91312  0.17081  1.0000
  Na  Na6       1.0  0.19644  0.08688  0.67081  1.0000
  B   B1        1.0  0.31204  0.49666  0.12281  1.0000
  B   B2        1.0  0.68796  0.50334  0.62281  1.0000
  B   B3        1.0  0.92163  0.41316  0.20983  1.0000
  B   B4        1.0  0.07837  0.58684  0.70983  1.0000
  B   B5        1.0  0.49244  0.24154  0.17521  1.0000
  B   B6        1.0  0.50756  0.75846  0.67521  1.0000
  B   B7        1.0  0.22882  0.81092  0.19426  1.0000
  B   B8        1.0  0.77118  0.18908  0.69426  1.0000
  B   B9        1.0  0.45685  0.32828  0.97547  1.0000
  B   B10       1.0  0.54315  0.67172  0.47547  1.0000
  H   H1        1.0  0.49830  0.40306  0.80760  1.0000
  H   H2        1.0  0.50170  0.59694  0.30760  1.0000
  H   H3        1.0  0.90562  0.82857  0.83207  1.0000
  H   H4        1.0  0.09438  0.17143  0.33207  1.0000
  C   C1        1.0  0.91398  0.82716  0.92458  1.0000
  C   C2        1.0  0.08602  0.17284  0.42458  1.0000
  O   O1        1.0  0.49773  0.28966  0.86589  1.0000
  O   O2        1.0  0.50227  0.71034  0.36589  1.0000
  O   O3        1.0  0.53429  0.22346  0.05315  1.0000
  O   O4        1.0  0.46571  0.77654  0.55315  1.0000
  O   O5        1.0  0.05643  0.34227  0.14859  1.0000
  O   O6        1.0  0.94357  0.65773  0.64859  1.0000
  O   O7        1.0  0.01242  0.64503  0.24245  1.0000
  O   O8        1.0  0.98758  0.35497  0.74244  1.0000
  O   O9        1.0  0.69595  0.25206  0.23980  1.0000
  O   O10       1.0  0.30405  0.74794  0.73980  1.0000
  O   O11       1.0  0.37032  0.74320  0.13581  1.0000
  O   O12       1.0  0.62968  0.25680  0.63581  1.0000
  O   O13       1.0  0.46846  0.45101  0.19467  1.0000
  O   O14       1.0  0.53154  0.54899  0.69467  1.0000
  O   O15       1.0  0.34452  0.45795  0.00239  1.0000
  O   O16       1.0  0.65548  0.54205  0.50239  1.0000
  O   O17       1.0  0.27735  0.03382  0.21191  1.0000
  O   O18       1.0  0.72265  0.96618  0.71191  1.0000
  O   O19       1.0  0.82241  0.93723  0.97546  1.0000
  O   O20       1.0  0.17758  0.06277  0.47546  1.0000
  O   O21       1.0  0.00871  0.71547  0.97048  1.0000
  O   O22       1.0  0.99128  0.28453  0.47048  1.0000
