data_image0
_chemical_formula_structural       Zn4H48C60N8O20
_chemical_formula_sum              "Zn4 H48 C60 N8 O20"
_cell_length_a       7.28939
_cell_length_b       11.3041
_cell_length_c       17.7671
_cell_angle_alpha    89.9999
_cell_angle_beta     91.2958
_cell_angle_gamma    89.9999

_space_group_name_H-M_alt    "P 1"
_space_group_IT_number       1

loop_
  _space_group_symop_operation_xyz
  'x, y, z'

loop_
  _atom_site_type_symbol
  _atom_site_label
  _atom_site_symmetry_multiplicity
  _atom_site_fract_x
  _atom_site_fract_y
  _atom_site_fract_z
  _atom_site_occupancy
  Zn  Zn1       1.0  0.50000  0.50000  1.00000  1.0000
  Zn  Zn2       1.0  0.50000  0.00000  0.50000  1.0000
  Zn  Zn3       1.0  1.00000  0.50000  1.00000  1.0000
  Zn  Zn4       1.0  1.00000  1.00000  0.50000  1.0000
  H   H1        1.0  0.50446  0.76649  0.00703  1.0000
  H   H2        1.0  0.49554  0.26649  0.49297  1.0000
  H   H3        1.0  0.49555  0.23351  0.99297  1.0000
  H   H4        1.0  0.50446  0.73351  0.50703  1.0000
  H   H5        1.0  0.02027  0.70313  0.10874  1.0000
  H   H6        1.0  0.97973  0.20313  0.39126  1.0000
  H   H7        1.0  0.97974  0.29687  0.89126  1.0000
  H   H8        1.0  0.02026  0.79687  0.60874  1.0000
  H   H9        1.0  0.20610  0.86554  0.18604  1.0000
  H   H10       1.0  0.79390  0.36554  0.31396  1.0000
  H   H11       1.0  0.79390  0.13446  0.81396  1.0000
  H   H12       1.0  0.20610  0.63446  0.68604  1.0000
  H   H13       1.0  0.07984  0.93629  0.11234  1.0000
  H   H14       1.0  0.92016  0.43629  0.38766  1.0000
  H   H15       1.0  0.92016  0.06371  0.88766  1.0000
  H   H16       1.0  0.07984  0.56371  0.61234  1.0000
  H   H17       1.0  0.35217  0.97218  0.04552  1.0000
  H   H18       1.0  0.64783  0.47218  0.45448  1.0000
  H   H19       1.0  0.64783  0.02782  0.95448  1.0000
  H   H20       1.0  0.35217  0.52782  0.54552  1.0000
  H   H21       1.0  0.48044  0.91371  0.12361  1.0000
  H   H22       1.0  0.51956  0.41371  0.37639  1.0000
  H   H23       1.0  0.51956  0.08629  0.87639  1.0000
  H   H24       1.0  0.48044  0.58629  0.62362  1.0000
  H   H25       1.0  0.46137  0.69269  0.20045  1.0000
  H   H26       1.0  0.53863  0.19269  0.29955  1.0000
  H   H27       1.0  0.53863  0.30731  0.79954  1.0000
  H   H28       1.0  0.46137  0.80731  0.70045  1.0000
  H   H29       1.0  0.48132  0.80261  0.32348  1.0000
  H   H30       1.0  0.51868  0.30261  0.17652  1.0000
  H   H31       1.0  0.51868  0.19739  0.67651  1.0000
  H   H32       1.0  0.48132  0.69739  0.82349  1.0000
  H   H33       1.0  0.03440  0.48520  0.18514  1.0000
  H   H34       1.0  0.96560  0.98520  0.31486  1.0000
  H   H35       1.0  0.96560  0.51480  0.81486  1.0000
  H   H36       1.0  0.03439  0.01480  0.68514  1.0000
  H   H37       1.0  0.30621  0.46461  0.26792  1.0000
  H   H38       1.0  0.69380  0.96461  0.23208  1.0000
  H   H39       1.0  0.69379  0.53539  0.73209  1.0000
  H   H40       1.0  0.30620  0.03540  0.76791  1.0000
  H   H41       1.0  0.32844  0.57757  0.38968  1.0000
  H   H42       1.0  0.67157  0.07757  0.11032  1.0000
  H   H43       1.0  0.67156  0.42243  0.61032  1.0000
  H   H44       1.0  0.32843  0.92243  0.88968  1.0000
  H   H45       1.0  0.07581  0.70755  0.42694  1.0000
  H   H46       1.0  0.92419  0.20755  0.07306  1.0000
  H   H47       1.0  0.92419  0.29245  0.57306  1.0000
  H   H48       1.0  0.07581  0.79245  0.92694  1.0000
  C   C1        1.0  0.73370  0.62389  0.21031  1.0000
  C   C2        1.0  0.26631  0.12390  0.28969  1.0000
  C   C3        1.0  0.26630  0.37610  0.78969  1.0000
  C   C4        1.0  0.73370  0.87610  0.71031  1.0000
  C   C5        1.0  0.90679  0.67386  0.32728  1.0000
  C   C6        1.0  0.09322  0.17386  0.17272  1.0000
  C   C7        1.0  0.09321  0.32614  0.67272  1.0000
  C   C8        1.0  0.90678  0.82614  0.82728  1.0000
  C   C9        1.0  0.89571  0.61106  0.25689  1.0000
  C   C10       1.0  0.10429  0.11107  0.24311  1.0000
  C   C11       1.0  0.10429  0.38893  0.74311  1.0000
  C   C12       1.0  0.89571  0.88893  0.75689  1.0000
  C   C13       1.0  0.59564  0.74847  0.30492  1.0000
  C   C14       1.0  0.40436  0.24847  0.19508  1.0000
  C   C15       1.0  0.40436  0.25153  0.69508  1.0000
  C   C16       1.0  0.59564  0.75153  0.80492  1.0000
  C   C17       1.0  0.76757  0.82862  0.41456  1.0000
  C   C18       1.0  0.23244  0.32862  0.08544  1.0000
  C   C19       1.0  0.23243  0.17139  0.58544  1.0000
  C   C20       1.0  0.76757  0.67139  0.91456  1.0000
  C   C21       1.0  0.72246  0.57624  0.13134  1.0000
  C   C22       1.0  0.27753  0.07624  0.36867  1.0000
  C   C23       1.0  0.27753  0.42376  0.86867  1.0000
  C   C24       1.0  0.72247  0.92376  0.63133  1.0000
  C   C25       1.0  0.75509  0.74575  0.34877  1.0000
  C   C26       1.0  0.24491  0.24575  0.15123  1.0000
  C   C27       1.0  0.24491  0.25425  0.65123  1.0000
  C   C28       1.0  0.75509  0.75425  0.84878  1.0000
  C   C29       1.0  0.06614  0.65942  0.37407  1.0000
  C   C30       1.0  0.93387  0.15942  0.12593  1.0000
  C   C31       1.0  0.93386  0.34058  0.62593  1.0000
  C   C32       1.0  0.06613  0.84058  0.87407  1.0000
  C   C33       1.0  0.58533  0.68781  0.23581  1.0000
  C   C34       1.0  0.41467  0.18781  0.26419  1.0000
  C   C35       1.0  0.41466  0.31219  0.76419  1.0000
  C   C36       1.0  0.58534  0.81219  0.73581  1.0000
  C   C37       1.0  0.04314  0.53528  0.23742  1.0000
  C   C38       1.0  0.95686  0.03528  0.26258  1.0000
  C   C39       1.0  0.95686  0.46472  0.76258  1.0000
  C   C40       1.0  0.04314  0.96472  0.73742  1.0000
  C   C41       1.0  0.26009  0.70840  0.04981  1.0000
  C   C42       1.0  0.73990  0.20840  0.45019  1.0000
  C   C43       1.0  0.73990  0.29160  0.95019  1.0000
  C   C44       1.0  0.26010  0.79159  0.54981  1.0000
  C   C45       1.0  0.20727  0.58629  0.35295  1.0000
  C   C46       1.0  0.79273  0.08629  0.14705  1.0000
  C   C47       1.0  0.79273  0.41371  0.64705  1.0000
  C   C48       1.0  0.20727  0.91371  0.85295  1.0000
  C   C49       1.0  0.19532  0.52333  0.28434  1.0000
  C   C50       1.0  0.80469  0.02333  0.21566  1.0000
  C   C51       1.0  0.80468  0.47667  0.71566  1.0000
  C   C52       1.0  0.19531  0.97667  0.78434  1.0000
  C   C53       1.0  0.18495  0.86913  0.12458  1.0000
  C   C54       1.0  0.81505  0.36913  0.37542  1.0000
  C   C55       1.0  0.81505  0.13087  0.87542  1.0000
  C   C56       1.0  0.18495  0.63087  0.62458  1.0000
  C   C57       1.0  0.36703  0.89545  0.08347  1.0000
  C   C58       1.0  0.63297  0.39545  0.41653  1.0000
  C   C59       1.0  0.63297  0.10455  0.91653  1.0000
  C   C60       1.0  0.36703  0.60454  0.58347  1.0000
  N   N1        1.0  0.39832  0.78675  0.04176  1.0000
  N   N2        1.0  0.60169  0.28674  0.45824  1.0000
  N   N3        1.0  0.60169  0.21326  0.95824  1.0000
  N   N4        1.0  0.39831  0.71325  0.54176  1.0000
  N   N5        1.0  0.13169  0.75401  0.09458  1.0000
  N   N6        1.0  0.86830  0.25401  0.40542  1.0000
  N   N7        1.0  0.86831  0.24599  0.90542  1.0000
  N   N8        1.0  0.13170  0.74599  0.59458  1.0000
  O   O1        1.0  0.86443  0.58833  0.09162  1.0000
  O   O2        1.0  0.13557  0.08833  0.40838  1.0000
  O   O3        1.0  0.13558  0.41167  0.90838  1.0000
  O   O4        1.0  0.86442  0.91166  0.59162  1.0000
  O   O5        1.0  0.56982  0.53258  0.10932  1.0000
  O   O6        1.0  0.43018  0.03258  0.39068  1.0000
  O   O7        1.0  0.43018  0.46742  0.89068  1.0000
  O   O8        1.0  0.56982  0.96742  0.60932  1.0000
  O   O9        1.0  0.62744  0.84183  0.45494  1.0000
  O   O10       1.0  0.37256  0.34183  0.04506  1.0000
  O   O11       1.0  0.37255  0.15817  0.54506  1.0000
  O   O12       1.0  0.62744  0.65817  0.95494  1.0000
  O   O13       1.0  0.25225  0.60657  0.01886  1.0000
  O   O14       1.0  0.74774  0.10657  0.48114  1.0000
  O   O15       1.0  0.74775  0.39343  0.98114  1.0000
  O   O16       1.0  0.25225  0.89343  0.51886  1.0000
  O   O17       1.0  0.91938  0.88344  0.42211  1.0000
  O   O18       1.0  0.08062  0.38344  0.07789  1.0000
  O   O19       1.0  0.08062  0.11656  0.57789  1.0000
  O   O20       1.0  0.91938  0.61656  0.92211  1.0000
