data_image0
_chemical_formula_structural       CdH14C16N8O2
_chemical_formula_sum              "Cd1 H14 C16 N8 O2"
_cell_length_a       7.08451
_cell_length_b       7.65896
_cell_length_c       9.60661
_cell_angle_alpha    72.3139
_cell_angle_beta     70.9098
_cell_angle_gamma    85.1128

_space_group_name_H-M_alt    "P 1"
_space_group_IT_number       1

loop_
  _space_group_symop_operation_xyz
  'x, y, z'

loop_
  _atom_site_type_symbol
  _atom_site_label
  _atom_site_symmetry_multiplicity
  _atom_site_fract_x
  _atom_site_fract_y
  _atom_site_fract_z
  _atom_site_occupancy
  Cd  Cd1       1.0  1.00000  0.00002  0.00000  1.0000
  H   H1        1.0  0.52532  0.99589  0.11266  1.0000
  H   H2        1.0  0.47468  0.00411  0.88734  1.0000
  H   H3        1.0  0.23382  0.86203  0.34092  1.0000
  H   H4        1.0  0.76618  0.13796  0.65908  1.0000
  H   H5        1.0  0.91907  0.82012  0.36268  1.0000
  H   H6        1.0  0.08093  0.17988  0.63732  1.0000
  H   H7        1.0  0.64708  0.68158  0.60359  1.0000
  H   H8        1.0  0.35293  0.31841  0.39640  1.0000
  H   H9        1.0  0.39563  0.47011  0.73798  1.0000
  H   H10       1.0  0.60437  0.52987  0.26202  1.0000
  H   H11       1.0  0.14349  0.52005  0.83216  1.0000
  H   H12       1.0  0.85652  0.47993  0.16784  1.0000
  H   H13       1.0  0.34179  0.67246  0.80143  1.0000
  H   H14       1.0  0.65821  0.32752  0.19856  1.0000
  C   C1        1.0  0.54553  0.92434  0.22350  1.0000
  C   C2        1.0  0.45446  0.07566  0.77650  1.0000
  C   C3        1.0  0.38323  0.84990  0.35087  1.0000
  C   C4        1.0  0.61677  0.15009  0.64913  1.0000
  C   C5        1.0  0.76453  0.82706  0.36315  1.0000
  C   C6        1.0  0.23547  0.17294  0.63685  1.0000
  C   C7        1.0  0.61179  0.74801  0.49775  1.0000
  C   C8        1.0  0.38821  0.25197  0.50225  1.0000
  C   C9        1.0  0.41569  0.75675  0.49141  1.0000
  C   C10       1.0  0.58432  0.24323  0.50859  1.0000
  C   C11       1.0  0.79268  0.71067  0.86955  1.0000
  C   C12       1.0  0.20732  0.28937  0.13045  1.0000
  C   C13       1.0  0.77775  0.41102  0.87580  1.0000
  C   C14       1.0  0.22222  0.58902  0.12421  1.0000
  C   C15       1.0  0.28818  0.58019  0.75410  1.0000
  C   C16       1.0  0.71182  0.41979  0.24589  1.0000
  N   N1        1.0  0.73480  0.91247  0.22773  1.0000
  N   N2        1.0  0.26520  0.08753  0.77227  1.0000
  N   N3        1.0  0.84393  0.83899  0.89225  1.0000
  N   N4        1.0  0.15607  0.16103  0.10775  1.0000
  N   N5        1.0  0.81475  0.25348  0.90495  1.0000
  N   N6        1.0  0.18523  0.74654  0.09507  1.0000
  N   N7        1.0  0.72530  0.58044  0.83771  1.0000
  N   N8        1.0  0.27468  0.41958  0.16231  1.0000
  O   O1        1.0  0.25430  0.68017  0.61125  1.0000
  O   O2        1.0  0.74571  0.31981  0.38875  1.0000
