data_image0
_chemical_formula_structural       Zn4H24C14O14
_chemical_formula_sum              "Zn4 H24 C14 O14"
_cell_length_a       5.9476
_cell_length_b       7.73227
_cell_length_c       12.4972
_cell_angle_alpha    90.0012
_cell_angle_beta     89.9997
_cell_angle_gamma    89.9998

_space_group_name_H-M_alt    "P 1"
_space_group_IT_number       1

loop_
  _space_group_symop_operation_xyz
  'x, y, z'

loop_
  _atom_site_type_symbol
  _atom_site_label
  _atom_site_symmetry_multiplicity
  _atom_site_fract_x
  _atom_site_fract_y
  _atom_site_fract_z
  _atom_site_occupancy
  Zn  Zn1       1.0  0.50224  0.87410  0.63041  1.0000
  Zn  Zn2       1.0  0.50227  0.87405  0.36959  1.0000
  Zn  Zn3       1.0  0.00226  0.12592  0.13040  1.0000
  Zn  Zn4       1.0  0.00226  0.12594  0.86958  1.0000
  H   H1        1.0  0.03848  0.75516  0.91497  1.0000
  H   H2        1.0  0.03855  0.75513  0.08503  1.0000
  H   H3        1.0  0.53852  0.24482  0.41496  1.0000
  H   H4        1.0  0.53851  0.24488  0.58502  1.0000
  H   H5        1.0  0.94206  0.56039  0.84913  1.0000
  H   H6        1.0  0.94215  0.56037  0.15086  1.0000
  H   H7        1.0  0.44208  0.43959  0.34913  1.0000
  H   H8        1.0  0.44212  0.43964  0.65088  1.0000
  H   H9        1.0  0.15612  0.68794  0.79070  1.0000
  H   H10       1.0  0.15618  0.68793  0.20930  1.0000
  H   H11       1.0  0.65614  0.31205  0.29069  1.0000
  H   H12       1.0  0.65616  0.31207  0.70930  1.0000
  H   H13       1.0  0.86945  0.16874  0.50000  1.0000
  H   H14       1.0  0.36945  0.83125  0.99997  1.0000
  H   H15       1.0  0.96172  0.98294  0.57164  1.0000
  H   H16       1.0  0.96175  0.98293  0.42835  1.0000
  H   H17       1.0  0.46173  0.01704  0.07165  1.0000
  H   H18       1.0  0.46176  0.01708  0.92835  1.0000
  H   H19       1.0  0.83540  0.60504  0.50001  1.0000
  H   H20       1.0  0.33540  0.39495  0.00002  1.0000
  H   H21       1.0  0.99591  0.45193  0.57277  1.0000
  H   H22       1.0  0.99591  0.45192  0.42726  1.0000
  H   H23       1.0  0.49591  0.54808  0.07277  1.0000
  H   H24       1.0  0.49589  0.54808  0.92726  1.0000
  C   C1        1.0  0.83250  0.79735  0.77653  1.0000
  C   C2        1.0  0.83251  0.79732  0.22347  1.0000
  C   C3        1.0  0.33249  0.20263  0.27652  1.0000
  C   C4        1.0  0.33252  0.20271  0.72347  1.0000
  C   C5        1.0  0.00070  0.69328  0.83825  1.0000
  C   C6        1.0  0.00077  0.69326  0.16174  1.0000
  C   C7        1.0  0.50072  0.30671  0.33825  1.0000
  C   C8        1.0  0.50074  0.30676  0.66174  1.0000
  C   C9        1.0  0.87042  0.02621  0.50000  1.0000
  C   C10       1.0  0.37044  0.97379  0.99999  1.0000
  C   C11       1.0  0.18549  0.65803  0.50000  1.0000
  C   C12       1.0  0.68549  0.34198  0.00001  1.0000
  C   C13       1.0  0.99328  0.53093  0.50001  1.0000
  C   C14       1.0  0.49329  0.46907  0.00002  1.0000
  O   O1        1.0  0.69880  0.71711  0.71377  1.0000
  O   O2        1.0  0.69885  0.71707  0.28623  1.0000
  O   O3        1.0  0.19883  0.28289  0.21376  1.0000
  O   O4        1.0  0.19883  0.28295  0.78625  1.0000
  O   O5        1.0  0.64446  0.96060  0.49999  1.0000
  O   O6        1.0  0.14448  0.03940  0.99999  1.0000
  O   O7        1.0  0.25879  0.70852  0.59068  1.0000
  O   O8        1.0  0.25884  0.70846  0.40933  1.0000
  O   O9        1.0  0.75883  0.29151  0.09069  1.0000
  O   O10       1.0  0.75883  0.29151  0.90933  1.0000
  O   O11       1.0  0.32278  0.03761  0.71605  1.0000
  O   O12       1.0  0.32277  0.03753  0.28394  1.0000
  O   O13       1.0  0.82277  0.96241  0.21604  1.0000
  O   O14       1.0  0.82279  0.96246  0.78393  1.0000
