data_image0
_chemical_formula_structural       Cu4H32C48N8O20
_chemical_formula_sum              "Cu4 H32 C48 N8 O20"
_cell_length_a       8.88765
_cell_length_b       11.7508
_cell_length_c       12.1127
_cell_angle_alpha    68.0177
_cell_angle_beta     68.4889
_cell_angle_gamma    67.7846

_space_group_name_H-M_alt    "P 1"
_space_group_IT_number       1

loop_
  _space_group_symop_operation_xyz
  'x, y, z'

loop_
  _atom_site_type_symbol
  _atom_site_label
  _atom_site_symmetry_multiplicity
  _atom_site_fract_x
  _atom_site_fract_y
  _atom_site_fract_z
  _atom_site_occupancy
  Cu  Cu1       1.0  0.42095  0.49901  0.27590  1.0000
  Cu  Cu2       1.0  0.19597  0.00097  0.22409  1.0000
  Cu  Cu3       1.0  0.57906  0.50099  0.72409  1.0000
  Cu  Cu4       1.0  0.80404  0.99902  0.77592  1.0000
  H   H1        1.0  0.42440  0.61749  0.46252  1.0000
  H   H2        1.0  0.50441  0.88261  0.03727  1.0000
  H   H3        1.0  0.57559  0.38252  0.53745  1.0000
  H   H4        1.0  0.49559  0.11738  0.96276  1.0000
  H   H5        1.0  0.20341  0.73846  0.60893  1.0000
  H   H6        1.0  0.55059  0.76168  0.89092  1.0000
  H   H7        1.0  0.79659  0.26154  0.39106  1.0000
  H   H8        1.0  0.44941  0.23832  0.10909  1.0000
  H   H9        1.0  0.83188  0.72085  0.47134  1.0000
  H   H10       1.0  0.02395  0.77930  0.02857  1.0000
  H   H11       1.0  0.16813  0.27914  0.52866  1.0000
  H   H12       1.0  0.97604  0.22073  0.97141  1.0000
  H   H13       1.0  0.78962  0.63863  0.36734  1.0000
  H   H14       1.0  0.79569  0.86116  0.13270  1.0000
  H   H15       1.0  0.21037  0.36137  0.63265  1.0000
  H   H16       1.0  0.20430  0.13884  0.86731  1.0000
  H   H17       1.0  0.03534  0.45296  0.07466  1.0000
  H   H18       1.0  0.56331  0.04661  0.42559  1.0000
  H   H19       1.0  0.96466  0.54703  0.92533  1.0000
  H   H20       1.0  0.43669  0.95338  0.57443  1.0000
  H   H21       1.0  0.48223  0.23846  0.48356  1.0000
  H   H22       1.0  0.20433  0.26174  0.01628  1.0000
  H   H23       1.0  0.51778  0.76154  0.51644  1.0000
  H   H24       1.0  0.79567  0.73825  0.98372  1.0000
  H   H25       1.0  0.37584  0.26124  0.39231  1.0000
  H   H26       1.0  0.02954  0.23885  0.10763  1.0000
  H   H27       1.0  0.62418  0.73875  0.60769  1.0000
  H   H28       1.0  0.97047  0.76115  0.89237  1.0000
  H   H29       1.0  0.31156  0.42932  0.10248  1.0000
  H   H30       1.0  0.84357  0.07070  0.39749  1.0000
  H   H31       1.0  0.68843  0.57068  0.89751  1.0000
  H   H32       1.0  0.15643  0.92929  0.60252  1.0000
  C   C1        1.0  0.29171  0.64276  0.46711  1.0000
  C   C2        1.0  0.40149  0.85738  0.03275  1.0000
  C   C3        1.0  0.70829  0.35726  0.53287  1.0000
  C   C4        1.0  0.59851  0.14261  0.96726  1.0000
  C   C5        1.0  0.16753  0.71280  0.54669  1.0000
  C   C6        1.0  0.42684  0.78736  0.95317  1.0000
  C   C7        1.0  0.83247  0.28721  0.45330  1.0000
  C   C8        1.0  0.57316  0.21264  0.04684  1.0000
  C   C9        1.0  0.99933  0.74504  0.54719  1.0000
  C   C10       1.0  0.29138  0.75506  0.95276  1.0000
  C   C11       1.0  0.00066  0.25496  0.45281  1.0000
  C   C12       1.0  0.70862  0.24495  0.04723  1.0000
  C   C13       1.0  0.96191  0.70103  0.47070  1.0000
  C   C14       1.0  0.13351  0.79910  0.02925  1.0000
  C   C15       1.0  0.03809  0.29897  0.52930  1.0000
  C   C16       1.0  0.86648  0.20092  0.97073  1.0000
  C   C17       1.0  0.09110  0.63006  0.39511  1.0000
  C   C18       1.0  0.11626  0.87000  0.10486  1.0000
  C   C19       1.0  0.90890  0.36994  0.60488  1.0000
  C   C20       1.0  0.88373  0.13000  0.89514  1.0000
  C   C21       1.0  0.06223  0.58032  0.31250  1.0000
  C   C22       1.0  0.95506  0.91971  0.18747  1.0000
  C   C23       1.0  0.93776  0.41969  0.68749  1.0000
  C   C24       1.0  0.04493  0.08029  0.81253  1.0000
  C   C25       1.0  0.90238  0.59441  0.30515  1.0000
  C   C26       1.0  0.80203  0.90550  0.19481  1.0000
  C   C27       1.0  0.09762  0.40559  0.69484  1.0000
  C   C28       1.0  0.19796  0.09450  0.80519  1.0000
  C   C29       1.0  0.88988  0.55032  0.21757  1.0000
  C   C30       1.0  0.65797  0.94946  0.28252  1.0000
  C   C31       1.0  0.11012  0.44968  0.78243  1.0000
  C   C32       1.0  0.34203  0.05054  0.71749  1.0000
  C   C33       1.0  0.03848  0.49025  0.14296  1.0000
  C   C34       1.0  0.67196  0.00944  0.35719  1.0000
  C   C35       1.0  0.96152  0.50973  0.85704  1.0000
  C   C36       1.0  0.32803  0.99057  0.64281  1.0000
  C   C37       1.0  0.85766  0.82465  0.62787  1.0000
  C   C38       1.0  0.30999  0.67541  0.87212  1.0000
  C   C39       1.0  0.14234  0.17534  0.37215  1.0000
  C   C40       1.0  0.69001  0.32460  0.12787  1.0000
  C   C41       1.0  0.72251  0.56864  0.19883  1.0000
  C   C42       1.0  0.49015  0.93116  0.30134  1.0000
  C   C43       1.0  0.27749  0.43137  0.80116  1.0000
  C   C44       1.0  0.50985  0.06884  0.69868  1.0000
  C   C45       1.0  0.19284  0.47540  0.15823  1.0000
  C   C46       1.0  0.82662  0.02460  0.34176  1.0000
  C   C47       1.0  0.80715  0.52460  0.84177  1.0000
  C   C48       1.0  0.17337  0.97540  0.65825  1.0000
  N   N1        1.0  0.25503  0.60360  0.39206  1.0000
  N   N2        1.0  0.25068  0.89645  0.10790  1.0000
  N   N3        1.0  0.74497  0.39640  0.60793  1.0000
  N   N4        1.0  0.74932  0.10354  0.89211  1.0000
  N   N5        1.0  0.20453  0.51971  0.24097  1.0000
  N   N6        1.0  0.96527  0.98036  0.25895  1.0000
  N   N7        1.0  0.79547  0.48030  0.75901  1.0000
  N   N8        1.0  0.03473  0.01963  0.74107  1.0000
  O   O1        1.0  0.90608  0.89877  0.65478  1.0000
  O   O2        1.0  0.45946  0.60132  0.84526  1.0000
  O   O3        1.0  0.09392  0.10121  0.34525  1.0000
  O   O4        1.0  0.54054  0.39870  0.15472  1.0000
  O   O5        1.0  0.71164  0.81376  0.65953  1.0000
  O   O6        1.0  0.18481  0.68626  0.84040  1.0000
  O   O7        1.0  0.28837  0.18622  0.34049  1.0000
  O   O8        1.0  0.81519  0.31375  0.15960  1.0000
  O   O9        1.0  0.61558  0.52448  0.29565  1.0000
  O   O10       1.0  0.43578  0.97533  0.20455  1.0000
  O   O11       1.0  0.38443  0.47552  0.70434  1.0000
  O   O12       1.0  0.56423  0.02467  0.79547  1.0000
  O   O13       1.0  0.70067  0.62380  0.09286  1.0000
  O   O14       1.0  0.41749  0.87607  0.40737  1.0000
  O   O15       1.0  0.29934  0.37620  0.90713  1.0000
  O   O16       1.0  0.58250  0.12392  0.59265  1.0000
  O   O17       1.0  0.41231  0.30605  0.42899  1.0000
  O   O18       1.0  0.14751  0.19414  0.07096  1.0000
  O   O19       1.0  0.58771  0.69395  0.57101  1.0000
  O   O20       1.0  0.85248  0.80586  0.92904  1.0000
