data_image0
_chemical_formula_structural       Dy2CoH28C40N12O20
_chemical_formula_sum              "Dy2 Co1 H28 C40 N12 O20"
_cell_length_a       9.18761
_cell_length_b       10.3668
_cell_length_c       12.421
_cell_angle_alpha    90.697
_cell_angle_beta     95.9811
_cell_angle_gamma    114.229

_space_group_name_H-M_alt    "P 1"
_space_group_IT_number       1

loop_
  _space_group_symop_operation_xyz
  'x, y, z'

loop_
  _atom_site_type_symbol
  _atom_site_label
  _atom_site_symmetry_multiplicity
  _atom_site_fract_x
  _atom_site_fract_y
  _atom_site_fract_z
  _atom_site_occupancy
  Dy  Dy1       1.0  0.27773  0.04940  0.02260  1.0000
  Dy  Dy2       1.0  0.72227  0.95060  0.97741  1.0000
  Co  Co1       1.0  0.50000  0.50000  0.50000  1.0000
  H   H1        1.0  0.19226  0.92160  0.36377  1.0000
  H   H2        1.0  0.80774  0.07841  0.63623  1.0000
  H   H3        1.0  0.03722  0.72220  0.83678  1.0000
  H   H4        1.0  0.96278  0.27780  0.16322  1.0000
  H   H5        1.0  0.73063  0.41111  0.37172  1.0000
  H   H6        1.0  0.26937  0.58889  0.62828  1.0000
  H   H7        1.0  0.45254  0.17986  0.65277  1.0000
  H   H8        1.0  0.54746  0.82014  0.34724  1.0000
  H   H9        1.0  0.38434  0.41897  0.73605  1.0000
  H   H10       1.0  0.61566  0.58102  0.26395  1.0000
  H   H11       1.0  0.00722  0.81708  0.67206  1.0000
  H   H12       1.0  0.99278  0.18291  0.32795  1.0000
  H   H13       1.0  0.81282  0.26285  0.83473  1.0000
  H   H14       1.0  0.18718  0.73715  0.16527  1.0000
  H   H15       1.0  0.05600  0.60948  0.38598  1.0000
  H   H16       1.0  0.94400  0.39052  0.61402  1.0000
  H   H17       1.0  0.31736  0.48898  0.94018  1.0000
  H   H18       1.0  0.68264  0.51101  0.05982  1.0000
  H   H19       1.0  0.60163  0.39519  0.89731  1.0000
  H   H20       1.0  0.39837  0.60481  0.10269  1.0000
  H   H21       1.0  0.32584  0.18450  0.24343  1.0000
  H   H22       1.0  0.67415  0.81550  0.75657  1.0000
  H   H23       1.0  0.29752  0.27774  0.15148  1.0000
  H   H24       1.0  0.70247  0.72226  0.84852  1.0000
  H   H25       1.0  0.46703  0.93215  0.17047  1.0000
  H   H26       1.0  0.53297  0.06785  0.82953  1.0000
  H   H27       1.0  0.40921  0.02462  0.24712  1.0000
  H   H28       1.0  0.59079  0.97538  0.75288  1.0000
  C   C1        1.0  0.44537  0.17692  0.43837  1.0000
  C   C2        1.0  0.55463  0.82308  0.56163  1.0000
  C   C3        1.0  0.20648  0.94185  0.45148  1.0000
  C   C4        1.0  0.79352  0.05816  0.54852  1.0000
  C   C5        1.0  0.34101  0.75302  0.92886  1.0000
  C   C6        1.0  0.65899  0.24698  0.07114  1.0000
  C   C7        1.0  0.04695  0.62162  0.84836  1.0000
  C   C8        1.0  0.95305  0.37838  0.15164  1.0000
  C   C9        1.0  0.79189  0.51929  0.40566  1.0000
  C   C10       1.0  0.20811  0.48071  0.59434  1.0000
  C   C11       1.0  0.35102  0.08684  0.61469  1.0000
  C   C12       1.0  0.64898  0.91316  0.38531  1.0000
  C   C13       1.0  0.09219  0.85452  0.51484  1.0000
  C   C14       1.0  0.90781  0.14549  0.48516  1.0000
  C   C15       1.0  0.33505  0.06191  0.50224  1.0000
  C   C16       1.0  0.66495  0.93809  0.49776  1.0000
  C   C17       1.0  0.51161  0.44796  0.73662  1.0000
  C   C18       1.0  0.48839  0.55204  0.26338  1.0000
  C   C19       1.0  0.10188  0.88361  0.62574  1.0000
  C   C20       1.0  0.89813  0.11639  0.37426  1.0000
  C   C21       1.0  0.24768  0.02802  0.79579  1.0000
  C   C22       1.0  0.75232  0.97198  0.20422  1.0000
  C   C23       1.0  0.06604  0.36322  0.89320  1.0000
  C   C24       1.0  0.93396  0.63678  0.10680  1.0000
  C   C25       1.0  0.07640  0.22978  0.93122  1.0000
  C   C26       1.0  0.92359  0.77022  0.06877  1.0000
  C   C27       1.0  0.91956  0.36302  0.84903  1.0000
  C   C28       1.0  0.08044  0.63698  0.15097  1.0000
  C   C29       1.0  0.91356  0.49203  0.82468  1.0000
  C   C30       1.0  0.08644  0.50797  0.17532  1.0000
  C   C31       1.0  0.94996  0.61572  0.41198  1.0000
  C   C32       1.0  0.05004  0.38428  0.58802  1.0000
  C   C33       1.0  0.20304  0.49067  0.90886  1.0000
  C   C34       1.0  0.79696  0.50934  0.09114  1.0000
  C   C35       1.0  0.23484  0.99950  0.67646  1.0000
  C   C36       1.0  0.76516  0.00050  0.32354  1.0000
  C   C37       1.0  0.19377  0.62001  0.89094  1.0000
  C   C38       1.0  0.80623  0.37999  0.10906  1.0000
  C   C39       1.0  0.61893  0.43727  0.81796  1.0000
  C   C40       1.0  0.38108  0.56273  0.18204  1.0000
  N   N1        1.0  0.76229  0.48799  0.77651  1.0000
  N   N2        1.0  0.23772  0.51201  0.22349  1.0000
  N   N3        1.0  0.59347  0.50162  0.64995  1.0000
  N   N4        1.0  0.40653  0.49838  0.35005  1.0000
  N   N5        1.0  0.95586  0.73180  0.46855  1.0000
  N   N6        1.0  0.04414  0.26820  0.53145  1.0000
  N   N7        1.0  0.81082  0.71135  0.49640  1.0000
  N   N8        1.0  0.18918  0.28865  0.50360  1.0000
  N   N9        1.0  0.74690  0.52647  0.67401  1.0000
  N   N10       1.0  0.25310  0.47354  0.32599  1.0000
  N   N11       1.0  0.71254  0.58246  0.45880  1.0000
  N   N12       1.0  0.28746  0.41754  0.54120  1.0000
  O   O1        1.0  0.47650  0.74652  0.93194  1.0000
  O   O2        1.0  0.52350  0.25348  0.06806  1.0000
  O   O3        1.0  0.32316  0.86141  0.96074  1.0000
  O   O4        1.0  0.67685  0.13859  0.03927  1.0000
  O   O5        1.0  0.53005  0.29436  0.48993  1.0000
  O   O6        1.0  0.46995  0.70564  0.51007  1.0000
  O   O7        1.0  0.21510  0.23877  0.96729  1.0000
  O   O8        1.0  0.78490  0.76123  0.03271  1.0000
  O   O9        1.0  0.12564  0.96713  0.84497  1.0000
  O   O10       1.0  0.87436  0.03286  0.15503  1.0000
  O   O11       1.0  0.44455  0.15299  0.33706  1.0000
  O   O12       1.0  0.55544  0.84702  0.66294  1.0000
  O   O13       1.0  0.38405  0.11225  0.84757  1.0000
  O   O14       1.0  0.61595  0.88774  0.15243  1.0000
  O   O15       1.0  0.25186  0.18261  0.17752  1.0000
  O   O16       1.0  0.74814  0.81739  0.82248  1.0000
  O   O17       1.0  0.37938  0.96412  0.17795  1.0000
  O   O18       1.0  0.62062  0.03588  0.82205  1.0000
  O   O19       1.0  0.94787  0.11852  0.92775  1.0000
  O   O20       1.0  0.05213  0.88148  0.07225  1.0000
