data_image0
_chemical_formula_structural       Zn8H32C16N32O16
_chemical_formula_sum              "Zn8 H32 C16 N32 O16"
_cell_length_a       9.65861
_cell_length_b       10.0839
_cell_length_c       10.4915
_cell_angle_alpha    90.0003
_cell_angle_beta     89.9999
_cell_angle_gamma    89.9997

_space_group_name_H-M_alt    "P 1"
_space_group_IT_number       1

loop_
  _space_group_symop_operation_xyz
  'x, y, z'

loop_
  _atom_site_type_symbol
  _atom_site_label
  _atom_site_symmetry_multiplicity
  _atom_site_fract_x
  _atom_site_fract_y
  _atom_site_fract_z
  _atom_site_occupancy
  Zn  Zn1       1.0  0.40630  0.90088  0.60353  1.0000
  Zn  Zn2       1.0  0.09371  0.09913  0.10353  1.0000
  Zn  Zn3       1.0  0.90629  0.59912  0.39647  1.0000
  Zn  Zn4       1.0  0.59371  0.40088  0.89647  1.0000
  Zn  Zn5       1.0  0.59370  0.09912  0.39647  1.0000
  Zn  Zn6       1.0  0.90629  0.90087  0.89647  1.0000
  Zn  Zn7       1.0  0.09371  0.40088  0.60353  1.0000
  Zn  Zn8       1.0  0.40629  0.59912  0.10353  1.0000
  H   H1        1.0  0.39400  0.75390  0.78787  1.0000
  H   H2        1.0  0.10599  0.24610  0.28786  1.0000
  H   H3        1.0  0.89400  0.74610  0.21214  1.0000
  H   H4        1.0  0.60599  0.25390  0.71213  1.0000
  H   H5        1.0  0.60599  0.24610  0.21213  1.0000
  H   H6        1.0  0.89401  0.75389  0.71214  1.0000
  H   H7        1.0  0.10599  0.25390  0.78786  1.0000
  H   H8        1.0  0.39401  0.74610  0.28787  1.0000
  H   H9        1.0  0.41378  0.89848  0.85882  1.0000
  H   H10       1.0  0.08621  0.10152  0.35882  1.0000
  H   H11       1.0  0.91378  0.60152  0.14119  1.0000
  H   H12       1.0  0.58621  0.39848  0.64118  1.0000
  H   H13       1.0  0.58620  0.10152  0.14119  1.0000
  H   H14       1.0  0.91380  0.89847  0.64119  1.0000
  H   H15       1.0  0.08621  0.39848  0.85882  1.0000
  H   H16       1.0  0.41379  0.60151  0.35881  1.0000
  H   H17       1.0  0.52461  0.62629  0.64609  1.0000
  H   H18       1.0  0.97539  0.37372  0.14610  1.0000
  H   H19       1.0  0.02461  0.87371  0.35391  1.0000
  H   H20       1.0  0.47539  0.12629  0.85391  1.0000
  H   H21       1.0  0.47539  0.37371  0.35391  1.0000
  H   H22       1.0  0.02460  0.62629  0.85391  1.0000
  H   H23       1.0  0.97539  0.12629  0.64609  1.0000
  H   H24       1.0  0.52461  0.87372  0.14609  1.0000
  H   H25       1.0  0.69712  0.59451  0.65508  1.0000
  H   H26       1.0  0.80288  0.40549  0.15508  1.0000
  H   H27       1.0  0.19712  0.90549  0.34492  1.0000
  H   H28       1.0  0.30288  0.09451  0.84492  1.0000
  H   H29       1.0  0.30289  0.40549  0.34492  1.0000
  H   H30       1.0  0.19711  0.59451  0.84493  1.0000
  H   H31       1.0  0.80289  0.09451  0.65508  1.0000
  H   H32       1.0  0.69712  0.90549  0.15508  1.0000
  C   C1        1.0  0.64434  0.72186  0.51754  1.0000
  C   C2        1.0  0.85565  0.27814  0.01754  1.0000
  C   C3        1.0  0.14436  0.77813  0.48247  1.0000
  C   C4        1.0  0.35565  0.22185  0.98246  1.0000
  C   C5        1.0  0.35565  0.27814  0.48246  1.0000
  C   C6        1.0  0.14436  0.72185  0.98246  1.0000
  C   C7        1.0  0.85565  0.22186  0.51755  1.0000
  C   C8        1.0  0.64435  0.77813  0.01755  1.0000
  C   C9        1.0  0.74433  0.84322  0.37154  1.0000
  C   C10       1.0  0.75566  0.15679  0.87153  1.0000
  C   C11       1.0  0.24435  0.65678  0.62848  1.0000
  C   C12       1.0  0.25567  0.34321  0.12847  1.0000
  C   C13       1.0  0.25565  0.15679  0.62846  1.0000
  C   C14       1.0  0.24435  0.84322  0.12848  1.0000
  C   C15       1.0  0.75566  0.34322  0.37152  1.0000
  C   C16       1.0  0.74434  0.65678  0.87153  1.0000
  N   N1        1.0  0.63391  0.91164  0.41548  1.0000
  N   N2        1.0  0.86608  0.08838  0.91549  1.0000
  N   N3        1.0  0.13392  0.58838  0.58452  1.0000
  N   N4        1.0  0.36608  0.41163  0.08452  1.0000
  N   N5        1.0  0.36609  0.08838  0.58452  1.0000
  N   N6        1.0  0.13391  0.91162  0.08452  1.0000
  N   N7        1.0  0.86609  0.41162  0.41548  1.0000
  N   N8        1.0  0.63392  0.58837  0.91547  1.0000
  N   N9        1.0  0.61466  0.61525  0.59507  1.0000
  N   N10       1.0  0.88533  0.38475  0.09506  1.0000
  N   N11       1.0  0.11468  0.88476  0.40493  1.0000
  N   N12       1.0  0.38533  0.11524  0.90493  1.0000
  N   N13       1.0  0.38534  0.38475  0.40493  1.0000
  N   N14       1.0  0.11467  0.61525  0.90493  1.0000
  N   N15       1.0  0.88533  0.11525  0.59507  1.0000
  N   N16       1.0  0.61466  0.88476  0.09507  1.0000
  N   N17       1.0  0.57180  0.83448  0.51054  1.0000
  N   N18       1.0  0.92821  0.16551  0.01055  1.0000
  N   N19       1.0  0.07180  0.66551  0.48945  1.0000
  N   N20       1.0  0.42821  0.33448  0.98946  1.0000
  N   N21       1.0  0.42821  0.16552  0.48945  1.0000
  N   N22       1.0  0.07179  0.83449  0.98945  1.0000
  N   N23       1.0  0.92820  0.33448  0.51055  1.0000
  N   N24       1.0  0.57181  0.66552  0.01054  1.0000
  N   N25       1.0  0.75284  0.72390  0.43507  1.0000
  N   N26       1.0  0.74714  0.27610  0.93507  1.0000
  N   N27       1.0  0.25284  0.77610  0.56493  1.0000
  N   N28       1.0  0.24715  0.22390  0.06493  1.0000
  N   N29       1.0  0.24716  0.27611  0.56493  1.0000
  N   N30       1.0  0.25283  0.72390  0.06492  1.0000
  N   N31       1.0  0.74715  0.22391  0.43507  1.0000
  N   N32       1.0  0.75286  0.77611  0.93506  1.0000
  O   O1        1.0  0.44318  0.84244  0.78762  1.0000
  O   O2        1.0  0.05682  0.15757  0.28761  1.0000
  O   O3        1.0  0.94318  0.65756  0.21238  1.0000
  O   O4        1.0  0.55681  0.34244  0.71237  1.0000
  O   O5        1.0  0.55681  0.15756  0.21238  1.0000
  O   O6        1.0  0.94319  0.84242  0.71239  1.0000
  O   O7        1.0  0.05681  0.34244  0.78761  1.0000
  O   O8        1.0  0.44319  0.65756  0.28762  1.0000
  O   O9        1.0  0.82687  0.88029  0.28177  1.0000
  O   O10       1.0  0.67311  0.11970  0.78178  1.0000
  O   O11       1.0  0.32687  0.61971  0.71823  1.0000
  O   O12       1.0  0.17313  0.38029  0.21822  1.0000
  O   O13       1.0  0.17312  0.11971  0.71823  1.0000
  O   O14       1.0  0.32689  0.88029  0.21823  1.0000
  O   O15       1.0  0.67312  0.38030  0.28176  1.0000
  O   O16       1.0  0.82687  0.61971  0.78178  1.0000
