data_image0
_chemical_formula_structural       Cd2H48C66N4O12
_chemical_formula_sum              "Cd2 H48 C66 N4 O12"
_cell_length_a       8.53015
_cell_length_b       12.3596
_cell_length_c       13.7611
_cell_angle_alpha    67.1342
_cell_angle_beta     83.8903
_cell_angle_gamma    83.7442

_space_group_name_H-M_alt    "P 1"
_space_group_IT_number       1

loop_
  _space_group_symop_operation_xyz
  'x, y, z'

loop_
  _atom_site_type_symbol
  _atom_site_label
  _atom_site_symmetry_multiplicity
  _atom_site_fract_x
  _atom_site_fract_y
  _atom_site_fract_z
  _atom_site_occupancy
  Cd  Cd1       1.0  0.46704  0.35338  0.50150  1.0000
  Cd  Cd2       1.0  0.53297  0.64663  0.49850  1.0000
  H   H1        1.0  0.34514  0.62091  0.91813  1.0000
  H   H2        1.0  0.65485  0.37909  0.08187  1.0000
  H   H3        1.0  0.10635  0.63431  0.03529  1.0000
  H   H4        1.0  0.89365  0.36569  0.96471  1.0000
  H   H5        1.0  0.81209  0.68514  0.78133  1.0000
  H   H6        1.0  0.18790  0.31485  0.21867  1.0000
  H   H7        1.0  0.05054  0.67114  0.66791  1.0000
  H   H8        1.0  0.94946  0.32886  0.33209  1.0000
  H   H9        1.0  0.63452  0.61488  0.93597  1.0000
  H   H10       1.0  0.36548  0.38511  0.06403  1.0000
  H   H11       1.0  0.66201  0.76827  0.87278  1.0000
  H   H12       1.0  0.33799  0.23173  0.12722  1.0000
  H   H13       1.0  0.44793  0.55016  0.09110  1.0000
  H   H14       1.0  0.55207  0.44983  0.90891  1.0000
  H   H15       1.0  0.25934  0.59699  0.21830  1.0000
  H   H16       1.0  0.74065  0.40301  0.78171  1.0000
  H   H17       1.0  0.45490  0.93305  0.12687  1.0000
  H   H18       1.0  0.54510  0.06694  0.87313  1.0000
  H   H19       1.0  0.63324  0.88951  0.99281  1.0000
  H   H20       1.0  0.36676  0.11049  0.00719  1.0000
  H   H21       1.0  0.02270  0.67973  0.50070  1.0000
  H   H22       1.0  0.97731  0.32027  0.49930  1.0000
  H   H23       1.0  0.93060  0.88934  0.45879  1.0000
  H   H24       1.0  0.06940  0.11066  0.54121  1.0000
  H   H25       1.0  0.03195  0.04381  0.28872  1.0000
  H   H26       1.0  0.96805  0.95619  0.71127  1.0000
  H   H27       1.0  0.21482  0.98456  0.16427  1.0000
  H   H28       1.0  0.78518  0.01544  0.83573  1.0000
  H   H29       1.0  0.68058  0.11727  0.49466  1.0000
  H   H30       1.0  0.31942  0.88273  0.50534  1.0000
  H   H31       1.0  0.68095  0.89518  0.58781  1.0000
  H   H32       1.0  0.31905  0.10482  0.41219  1.0000
  H   H33       1.0  0.49327  0.81247  0.74481  1.0000
  H   H34       1.0  0.50673  0.18754  0.25519  1.0000
  H   H35       1.0  0.28613  0.84801  0.87642  1.0000
  H   H36       1.0  0.71387  0.15199  0.12358  1.0000
  H   H37       1.0  0.11198  0.98793  0.93520  1.0000
  H   H38       1.0  0.88802  0.01207  0.06480  1.0000
  H   H39       1.0  0.01699  0.19605  0.90934  1.0000
  H   H40       1.0  0.98301  0.80396  0.09066  1.0000
  H   H41       1.0  0.03791  0.41234  0.80335  1.0000
  H   H42       1.0  0.96209  0.58766  0.19664  1.0000
  H   H43       1.0  0.22218  0.47526  0.64207  1.0000
  H   H44       1.0  0.77782  0.52474  0.35793  1.0000
  H   H45       1.0  0.36032  0.33468  0.33855  1.0000
  H   H46       1.0  0.63968  0.66532  0.66145  1.0000
  H   H47       1.0  0.21416  0.38507  0.39558  1.0000
  H   H48       1.0  0.78584  0.61494  0.60443  1.0000
  C   C1        1.0  0.35879  0.64102  0.71508  1.0000
  C   C2        1.0  0.64121  0.35898  0.28492  1.0000
  C   C3        1.0  0.21385  0.64553  0.78511  1.0000
  C   C4        1.0  0.78615  0.35447  0.21489  1.0000
  C   C5        1.0  0.22765  0.63483  0.88927  1.0000
  C   C6        1.0  0.77235  0.36517  0.11073  1.0000
  C   C7        1.0  0.09535  0.64300  0.95437  1.0000
  C   C8        1.0  0.90465  0.35700  0.04563  1.0000
  C   C9        1.0  0.94415  0.66261  0.91612  1.0000
  C   C10       1.0  0.05585  0.33739  0.08388  1.0000
  C   C11       1.0  0.92761  0.67162  0.81274  1.0000
  C   C12       1.0  0.07239  0.32838  0.18727  1.0000
  C   C13       1.0  0.06255  0.66323  0.74843  1.0000
  C   C14       1.0  0.93745  0.33678  0.25157  1.0000
  C   C15       1.0  0.66427  0.69247  0.94902  1.0000
  C   C16       1.0  0.33573  0.30752  0.05098  1.0000
  C   C17       1.0  0.55155  0.71777  0.03013  1.0000
  C   C18       1.0  0.44844  0.28223  0.96987  1.0000
  C   C19       1.0  0.44657  0.63624  0.09592  1.0000
  C   C20       1.0  0.55343  0.36375  0.90408  1.0000
  C   C21       1.0  0.34153  0.66190  0.17025  1.0000
  C   C22       1.0  0.65847  0.33809  0.82975  1.0000
  C   C23       1.0  0.34082  0.76928  0.18346  1.0000
  C   C24       1.0  0.65917  0.23072  0.81654  1.0000
  C   C25       1.0  0.44810  0.85034  0.11726  1.0000
  C   C26       1.0  0.55190  0.14966  0.88274  1.0000
  C   C27       1.0  0.55015  0.82541  0.04182  1.0000
  C   C28       1.0  0.44985  0.17458  0.95818  1.0000
  C   C29       1.0  0.23183  0.79915  0.26234  1.0000
  C   C30       1.0  0.76817  0.20085  0.73766  1.0000
  C   C31       1.0  0.17636  0.71393  0.35967  1.0000
  C   C32       1.0  0.82364  0.28607  0.64033  1.0000
  C   C33       1.0  0.06723  0.74771  0.42800  1.0000
  C   C34       1.0  0.93277  0.25229  0.57201  1.0000
  C   C35       1.0  0.01563  0.86560  0.40404  1.0000
  C   C36       1.0  0.98438  0.13440  0.59596  1.0000
  C   C37       1.0  0.07210  0.95121  0.30955  1.0000
  C   C38       1.0  0.92790  0.04879  0.69045  1.0000
  C   C39       1.0  0.17692  0.91751  0.23985  1.0000
  C   C40       1.0  0.82308  0.08249  0.76015  1.0000
  C   C41       1.0  0.22754  0.58433  0.39634  1.0000
  C   C42       1.0  0.77246  0.41568  0.60367  1.0000
  C   C43       1.0  0.60051  0.07635  0.56387  1.0000
  C   C44       1.0  0.39949  0.92365  0.43613  1.0000
  C   C45       1.0  0.60127  0.95343  0.61626  1.0000
  C   C46       1.0  0.39874  0.04657  0.38374  1.0000
  C   C47       1.0  0.49742  0.90763  0.70388  1.0000
  C   C48       1.0  0.50258  0.09237  0.29612  1.0000
  C   C49       1.0  0.39417  0.98412  0.73967  1.0000
  C   C50       1.0  0.60583  0.01588  0.26033  1.0000
  C   C51       1.0  0.28811  0.94262  0.83213  1.0000
  C   C52       1.0  0.71189  0.05738  0.16787  1.0000
  C   C53       1.0  0.19166  0.02003  0.86410  1.0000
  C   C54       1.0  0.80834  0.97997  0.13590  1.0000
  C   C55       1.0  0.19229  0.14432  0.80628  1.0000
  C   C56       1.0  0.80771  0.85568  0.19372  1.0000
  C   C57       1.0  0.09691  0.22705  0.83834  1.0000
  C   C58       1.0  0.90309  0.77295  0.16166  1.0000
  C   C59       1.0  0.10747  0.34573  0.78062  1.0000
  C   C60       1.0  0.89253  0.65427  0.21938  1.0000
  C   C61       1.0  0.21127  0.38202  0.68940  1.0000
  C   C62       1.0  0.78873  0.61798  0.31060  1.0000
  C   C63       1.0  0.29543  0.18875  0.71386  1.0000
  C   C64       1.0  0.70458  0.81125  0.28614  1.0000
  C   C65       1.0  0.39959  0.10708  0.68063  1.0000
  C   C66       1.0  0.60041  0.89292  0.31937  1.0000
  N   N1        1.0  0.50244  0.14985  0.59481  1.0000
  N   N2        1.0  0.49757  0.85015  0.40519  1.0000
  N   N3        1.0  0.30183  0.30590  0.65735  1.0000
  N   N4        1.0  0.69817  0.69410  0.34265  1.0000
  O   O1        1.0  0.33692  0.64502  0.62280  1.0000
  O   O2        1.0  0.66308  0.35498  0.37720  1.0000
  O   O3        1.0  0.49259  0.63606  0.75026  1.0000
  O   O4        1.0  0.50740  0.36394  0.24974  1.0000
  O   O5        1.0  0.82171  0.67235  0.98510  1.0000
  O   O6        1.0  0.17829  0.32764  0.01491  1.0000
  O   O7        1.0  0.36482  0.55124  0.43438  1.0000
  O   O8        1.0  0.63518  0.44877  0.56562  1.0000
  O   O9        1.0  0.13343  0.51637  0.39010  1.0000
  O   O10       1.0  0.86657  0.48363  0.60991  1.0000
  O   O11       1.0  0.28226  0.31134  0.40268  1.0000
  O   O12       1.0  0.71774  0.68866  0.59732  1.0000
