data_image0
_chemical_formula_structural       Co2H48C66N4O12
_chemical_formula_sum              "Co2 H48 C66 N4 O12"
_cell_length_a       8.93436
_cell_length_b       12.0623
_cell_length_c       12.9541
_cell_angle_alpha    67.9374
_cell_angle_beta     83.0717
_cell_angle_gamma    84.3073

_space_group_name_H-M_alt    "P 1"
_space_group_IT_number       1

loop_
  _space_group_symop_operation_xyz
  'x, y, z'

loop_
  _atom_site_type_symbol
  _atom_site_label
  _atom_site_symmetry_multiplicity
  _atom_site_fract_x
  _atom_site_fract_y
  _atom_site_fract_z
  _atom_site_occupancy
  Co  Co1       1.0  0.54893  0.14420  0.00472  1.0000
  Co  Co2       1.0  0.45107  0.85580  0.99528  1.0000
  H   H1        1.0  0.03426  0.14764  0.00156  1.0000
  H   H2        1.0  0.96572  0.85237  0.99844  1.0000
  H   H3        1.0  0.93389  0.35706  0.96024  1.0000
  H   H4        1.0  0.06610  0.64295  0.03975  1.0000
  H   H5        1.0  0.03635  0.51974  0.78504  1.0000
  H   H6        1.0  0.96365  0.48027  0.21496  1.0000
  H   H7        1.0  0.23008  0.46683  0.65617  1.0000
  H   H8        1.0  0.76992  0.53317  0.34383  1.0000
  H   H9        1.0  0.46357  0.42642  0.61838  1.0000
  H   H10       1.0  0.53643  0.57358  0.38163  1.0000
  H   H11       1.0  0.64860  0.38897  0.47762  1.0000
  H   H12       1.0  0.35140  0.61103  0.52239  1.0000
  H   H13       1.0  0.49780  0.03319  0.57657  1.0000
  H   H14       1.0  0.50219  0.96681  0.42344  1.0000
  H   H15       1.0  0.30409  0.07255  0.70981  1.0000
  H   H16       1.0  0.69590  0.92745  0.29020  1.0000
  H   H17       1.0  0.68402  0.10457  0.41746  1.0000
  H   H18       1.0  0.31596  0.89543  0.58254  1.0000
  H   H19       1.0  0.70353  0.26179  0.35046  1.0000
  H   H20       1.0  0.29647  0.73821  0.64954  1.0000
  H   H21       1.0  0.86740  0.17378  0.26082  1.0000
  H   H22       1.0  0.13259  0.82621  0.73918  1.0000
  H   H23       1.0  0.10826  0.15658  0.15257  1.0000
  H   H24       1.0  0.89174  0.84342  0.84743  1.0000
  H   H25       1.0  0.35305  0.13669  0.42508  1.0000
  H   H26       1.0  0.64694  0.86332  0.57492  1.0000
  H   H27       1.0  0.11199  0.15004  0.53787  1.0000
  H   H28       1.0  0.88801  0.84997  0.46212  1.0000
  H   H29       1.0  0.29614  0.32243  0.04672  1.0000
  H   H30       1.0  0.70386  0.67757  0.95327  1.0000
  H   H31       1.0  0.26661  0.54661  0.96017  1.0000
  H   H32       1.0  0.73340  0.45340  0.03982  1.0000
  H   H33       1.0  0.44130  0.65737  0.79523  1.0000
  H   H34       1.0  0.55872  0.34263  0.20476  1.0000
  H   H35       1.0  0.66316  0.64282  0.65169  1.0000
  H   H36       1.0  0.33687  0.35717  0.34830  1.0000
  H   H37       1.0  0.85191  0.51575  0.58422  1.0000
  H   H38       1.0  0.14810  0.48423  0.41578  1.0000
  H   H39       1.0  0.96392  0.30129  0.60519  1.0000
  H   H40       1.0  0.03608  0.69870  0.39481  1.0000
  H   H41       1.0  0.95353  0.08061  0.71686  1.0000
  H   H42       1.0  0.04647  0.91938  0.28314  1.0000
  H   H43       1.0  0.77113  0.00795  0.88467  1.0000
  H   H44       1.0  0.22887  0.99204  0.11534  1.0000
  H   H45       1.0  0.64644  0.19331  0.15097  1.0000
  H   H46       1.0  0.35356  0.80670  0.84903  1.0000
  H   H47       1.0  0.78198  0.14202  0.08847  1.0000
  H   H48       1.0  0.21801  0.85798  0.91153  1.0000
  C   C1        1.0  0.24524  0.05828  0.89534  1.0000
  C   C2        1.0  0.75475  0.94172  0.10467  1.0000
  C   C3        1.0  0.19786  0.18979  0.85877  1.0000
  C   C4        1.0  0.80214  0.81022  0.14123  1.0000
  C   C5        1.0  0.08197  0.21963  0.92860  1.0000
  C   C6        1.0  0.91801  0.78038  0.07140  1.0000
  C   C7        1.0  0.02469  0.33744  0.90428  1.0000
  C   C8        1.0  0.97531  0.66257  0.09572  1.0000
  C   C9        1.0  0.08123  0.42712  0.80668  1.0000
  C   C10       1.0  0.91877  0.57288  0.19332  1.0000
  C   C11       1.0  0.19193  0.39718  0.73476  1.0000
  C   C12       1.0  0.80806  0.60282  0.26525  1.0000
  C   C13       1.0  0.25359  0.27894  0.75833  1.0000
  C   C14       1.0  0.74640  0.72106  0.24167  1.0000
  C   C15       1.0  0.36731  0.25313  0.67587  1.0000
  C   C16       1.0  0.63270  0.74687  0.32413  1.0000
  C   C17       1.0  0.46632  0.34103  0.60745  1.0000
  C   C18       1.0  0.53369  0.65897  0.39255  1.0000
  C   C19       1.0  0.57211  0.31964  0.52823  1.0000
  C   C20       1.0  0.42789  0.68036  0.47178  1.0000
  C   C21       1.0  0.58543  0.20910  0.51504  1.0000
  C   C22       1.0  0.41456  0.79090  0.48496  1.0000
  C   C23       1.0  0.48840  0.12113  0.58304  1.0000
  C   C24       1.0  0.51159  0.87887  0.41696  1.0000
  C   C25       1.0  0.37971  0.14293  0.66090  1.0000
  C   C26       1.0  0.62029  0.85707  0.33911  1.0000
  C   C27       1.0  0.70322  0.18622  0.43157  1.0000
  C   C28       1.0  0.29677  0.81377  0.56843  1.0000
  C   C29       1.0  0.97368  0.16327  0.40744  1.0000
  C   C30       1.0  0.02632  0.83673  0.59256  1.0000
  C   C31       1.0  0.97261  0.16460  0.29861  1.0000
  C   C32       1.0  0.02738  0.83540  0.70139  1.0000
  C   C33       1.0  0.10934  0.15455  0.23721  1.0000
  C   C34       1.0  0.89065  0.84545  0.76279  1.0000
  C   C35       1.0  0.24774  0.14360  0.28168  1.0000
  C   C36       1.0  0.75225  0.85640  0.71831  1.0000
  C   C37       1.0  0.24616  0.14292  0.39049  1.0000
  C   C38       1.0  0.75383  0.85709  0.60951  1.0000
  C   C39       1.0  0.11200  0.15172  0.45319  1.0000
  C   C40       1.0  0.88799  0.84829  0.54680  1.0000
  C   C41       1.0  0.39572  0.13901  0.21620  1.0000
  C   C42       1.0  0.60428  0.86099  0.78380  1.0000
  C   C43       1.0  0.37127  0.37268  0.97541  1.0000
  C   C44       1.0  0.62874  0.62732  0.02458  1.0000
  C   C45       1.0  0.35450  0.49801  0.92529  1.0000
  C   C46       1.0  0.64551  0.50199  0.07470  1.0000
  C   C47       1.0  0.45031  0.55996  0.83358  1.0000
  C   C48       1.0  0.54970  0.44004  0.16641  1.0000
  C   C49       1.0  0.56411  0.49471  0.79083  1.0000
  C   C50       1.0  0.43590  0.50529  0.20917  1.0000
  C   C51       1.0  0.66916  0.54591  0.69503  1.0000
  C   C52       1.0  0.33086  0.45409  0.30497  1.0000
  C   C53       1.0  0.77408  0.47517  0.65797  1.0000
  C   C54       1.0  0.22593  0.52483  0.34203  1.0000
  C   C55       1.0  0.78477  0.34749  0.71383  1.0000
  C   C56       1.0  0.21524  0.65250  0.28618  1.0000
  C   C57       1.0  0.88514  0.26742  0.67954  1.0000
  C   C58       1.0  0.11487  0.73257  0.32046  1.0000
  C   C59       1.0  0.87969  0.14589  0.74076  1.0000
  C   C60       1.0  0.12032  0.85410  0.25924  1.0000
  C   C61       1.0  0.77846  0.10313  0.83678  1.0000
  C   C62       1.0  0.22154  0.89686  0.16323  1.0000
  C   C63       1.0  0.68479  0.29688  0.80998  1.0000
  C   C64       1.0  0.31521  0.70312  0.19002  1.0000
  C   C65       1.0  0.57439  0.36925  0.84697  1.0000
  C   C66       1.0  0.42562  0.63075  0.15303  1.0000
  N   N1        1.0  0.48001  0.30848  0.93810  1.0000
  N   N2        1.0  0.52000  0.69152  0.06189  1.0000
  N   N3        1.0  0.68303  0.17684  0.87224  1.0000
  N   N4        1.0  0.31698  0.82315  0.12776  1.0000
  O   O1        1.0  0.14888  0.99116  0.89082  1.0000
  O   O2        1.0  0.85112  0.00884  0.10918  1.0000
  O   O3        1.0  0.37669  0.02363  0.93264  1.0000
  O   O4        1.0  0.62330  0.97637  0.06736  1.0000
  O   O5        1.0  0.84839  0.17374  0.47477  1.0000
  O   O6        1.0  0.15160  0.82625  0.52523  1.0000
  O   O7        1.0  0.51416  0.15506  0.25246  1.0000
  O   O8        1.0  0.48583  0.84494  0.74754  1.0000
  O   O9        1.0  0.39160  0.12221  0.12375  1.0000
  O   O10       1.0  0.60839  0.87780  0.87625  1.0000
  O   O11       1.0  0.71349  0.21616  0.07862  1.0000
  O   O12       1.0  0.28650  0.78384  0.92137  1.0000
