data_image0
_chemical_formula_structural       MnH14C18N12
_chemical_formula_sum              "Mn1 H14 C18 N12"
_cell_length_a       7.18635
_cell_length_b       8.15458
_cell_length_c       9.57463
_cell_angle_alpha    64.1069
_cell_angle_beta     66.1103
_cell_angle_gamma    71.0843

_space_group_name_H-M_alt    "P 1"
_space_group_IT_number       1

loop_
  _space_group_symop_operation_xyz
  'x, y, z'

loop_
  _atom_site_type_symbol
  _atom_site_label
  _atom_site_symmetry_multiplicity
  _atom_site_fract_x
  _atom_site_fract_y
  _atom_site_fract_z
  _atom_site_occupancy
  Mn  Mn1       1.0  0.00582  0.00202  0.98616  1.0000
  H   H1        1.0  0.85369  0.49941  0.63735  1.0000
  H   H2        1.0  0.14042  0.50012  0.36850  1.0000
  H   H3        1.0  0.59056  0.60758  0.71334  1.0000
  H   H4        1.0  0.40578  0.39346  0.29660  1.0000
  H   H5        1.0  0.79413  0.63160  0.76112  1.0000
  H   H6        1.0  0.20853  0.36739  0.24326  1.0000
  H   H7        1.0  0.85211  0.33714  0.15333  1.0000
  H   H8        1.0  0.15075  0.65804  0.84701  1.0000
  H   H9        1.0  0.62722  0.30891  0.65516  1.0000
  H   H10       1.0  0.37537  0.69542  0.34267  1.0000
  H   H11       1.0  0.73615  0.48944  0.35996  1.0000
  H   H12       1.0  0.26867  0.51040  0.63745  1.0000
  H   H13       1.0  0.63691  0.96973  0.75927  1.0000
  H   H14       1.0  0.36025  0.03543  0.24356  1.0000
  C   C1        1.0  0.75385  0.62085  0.66710  1.0000
  C   C2        1.0  0.24324  0.37906  0.33952  1.0000
  C   C3        1.0  0.27471  0.24767  0.95920  1.0000
  C   C4        1.0  0.72706  0.75185  0.03478  1.0000
  C   C5        1.0  0.75630  0.96429  0.51185  1.0000
  C   C6        1.0  0.24055  0.03554  0.49253  1.0000
  C   C7        1.0  0.81664  0.06635  0.34227  1.0000
  C   C8        1.0  0.18117  0.93126  0.66144  1.0000
  C   C9        1.0  0.80846  0.25848  0.28368  1.0000
  C   C10       1.0  0.19269  0.73900  0.71725  1.0000
  C   C11       1.0  0.67961  0.23759  0.56911  1.0000
  C   C12       1.0  0.32145  0.76479  0.43042  1.0000
  C   C13       1.0  0.58460  0.24980  0.96402  1.0000
  C   C14       1.0  0.41714  0.74946  0.02992  1.0000
  C   C15       1.0  0.74093  0.34118  0.39961  1.0000
  C   C16       1.0  0.26163  0.65879  0.59936  1.0000
  C   C17       1.0  0.68485  0.04810  0.62898  1.0000
  C   C18       1.0  0.31340  0.95446  0.37333  1.0000
  N   N1        1.0  0.15182  0.17846  0.96178  1.0000
  N   N2        1.0  0.85453  0.82364  0.02213  1.0000
  N   N3        1.0  0.88079  0.94177  0.26351  1.0000
  N   N4        1.0  0.11513  0.05518  0.74216  1.0000
  N   N5        1.0  0.39851  0.33547  0.95788  1.0000
  N   N6        1.0  0.59758  0.66086  0.04829  1.0000
  N   N7        1.0  0.78974  0.78518  0.52190  1.0000
  N   N8        1.0  0.20570  0.21419  0.48414  1.0000
  N   N9        1.0  0.86442  0.77454  0.37160  1.0000
  N   N10       1.0  0.13072  0.22418  0.63410  1.0000
  N   N11       1.0  0.75532  0.18179  0.96774  1.0000
  N   N12       1.0  0.25110  0.82009  0.01567  1.0000
