data_image0
_chemical_formula_structural       FeH14C18N12
_chemical_formula_sum              "Fe1 H14 C18 N12"
_cell_length_a       7.16233
_cell_length_b       8.04148
_cell_length_c       9.58639
_cell_angle_alpha    65.0049
_cell_angle_beta     66.7611
_cell_angle_gamma    72.7117

_space_group_name_H-M_alt    "P 1"
_space_group_IT_number       1

loop_
  _space_group_symop_operation_xyz
  'x, y, z'

loop_
  _atom_site_type_symbol
  _atom_site_label
  _atom_site_symmetry_multiplicity
  _atom_site_fract_x
  _atom_site_fract_y
  _atom_site_fract_z
  _atom_site_occupancy
  Fe  Fe1       1.0  0.00916  0.00206  0.47456  1.0000
  H   H1        1.0  0.85483  0.33607  0.65378  1.0000
  H   H2        1.0  0.15044  0.65364  0.34565  1.0000
  H   H3        1.0  0.73869  0.49836  0.85446  1.0000
  H   H4        1.0  0.27217  0.50260  0.13750  1.0000
  H   H5        1.0  0.62627  0.32488  0.14784  1.0000
  H   H6        1.0  0.38247  0.68692  0.84520  1.0000
  H   H7        1.0  0.63585  0.98285  0.25713  1.0000
  H   H8        1.0  0.36343  0.02966  0.74735  1.0000
  H   H9        1.0  0.59197  0.60732  0.22092  1.0000
  H   H10       1.0  0.39791  0.40156  0.80446  1.0000
  H   H11       1.0  0.79850  0.63936  0.26275  1.0000
  H   H12       1.0  0.21460  0.35936  0.74509  1.0000
  H   H13       1.0  0.85240  0.50241  0.14286  1.0000
  H   H14       1.0  0.12967  0.49709  0.86967  1.0000
  C   C1        1.0  0.59332  0.24817  0.46100  1.0000
  C   C2        1.0  0.40718  0.74672  0.52722  1.0000
  C   C3        1.0  0.28240  0.24475  0.45693  1.0000
  C   C4        1.0  0.71823  0.75029  0.53137  1.0000
  C   C5        1.0  0.81638  0.06731  0.84488  1.0000
  C   C6        1.0  0.18044  0.92789  0.16171  1.0000
  C   C7        1.0  0.80966  0.26074  0.78364  1.0000
  C   C8        1.0  0.19357  0.73418  0.21684  1.0000
  C   C9        1.0  0.74199  0.34892  0.89595  1.0000
  C   C10       1.0  0.26495  0.65210  0.09982  1.0000
  C   C11       1.0  0.67929  0.24908  0.06474  1.0000
  C   C12       1.0  0.32595  0.75789  0.93231  1.0000
  C   C13       1.0  0.68426  0.05816  0.12734  1.0000
  C   C14       1.0  0.31573  0.94902  0.87607  1.0000
  C   C15       1.0  0.75599  0.96889  0.01380  1.0000
  C   C16       1.0  0.23976  0.03222  0.99430  1.0000
  C   C17       1.0  0.75464  0.62425  0.17203  1.0000
  C   C18       1.0  0.23902  0.37796  0.84301  1.0000
  N   N1        1.0  0.76361  0.18171  0.46040  1.0000
  N   N2        1.0  0.24624  0.81795  0.50722  1.0000
  N   N3        1.0  0.40705  0.33149  0.46058  1.0000
  N   N4        1.0  0.58128  0.65765  0.55368  1.0000
  N   N5        1.0  0.15950  0.17621  0.45552  1.0000
  N   N6        1.0  0.85026  0.82335  0.51322  1.0000
  N   N7        1.0  0.87918  0.93882  0.76937  1.0000
  N   N8        1.0  0.11214  0.05389  0.24180  1.0000
  N   N9        1.0  0.86286  0.77264  0.87825  1.0000
  N   N10       1.0  0.12578  0.22386  0.13498  1.0000
  N   N11       1.0  0.78892  0.78735  0.02679  1.0000
  N   N12       1.0  0.20204  0.21240  0.98601  1.0000
