data_image0
_chemical_formula_structural       CuH14C18N12
_chemical_formula_sum              "Cu1 H14 C18 N12"
_cell_length_a       7.61865
_cell_length_b       8.08605
_cell_length_c       9.27305
_cell_angle_alpha    64.6789
_cell_angle_beta     68.3866
_cell_angle_gamma    71.6461

_space_group_name_H-M_alt    "P 1"
_space_group_IT_number       1

loop_
  _space_group_symop_operation_xyz
  'x, y, z'

loop_
  _atom_site_type_symbol
  _atom_site_label
  _atom_site_symmetry_multiplicity
  _atom_site_fract_x
  _atom_site_fract_y
  _atom_site_fract_z
  _atom_site_occupancy
  Cu  Cu1       1.0  0.00000  0.99999  0.00000  1.0000
  H   H1        1.0  0.62893  0.97442  0.75389  1.0000
  H   H2        1.0  0.37106  0.02559  0.24611  1.0000
  H   H3        1.0  0.61013  0.31664  0.65451  1.0000
  H   H4        1.0  0.38986  0.68336  0.34549  1.0000
  H   H5        1.0  0.73568  0.49801  0.35773  1.0000
  H   H6        1.0  0.26432  0.50199  0.64226  1.0000
  H   H7        1.0  0.87341  0.34544  0.14526  1.0000
  H   H8        1.0  0.12659  0.65454  0.85475  1.0000
  H   H9        1.0  0.84177  0.50294  0.62070  1.0000
  H   H10       1.0  0.15824  0.49705  0.37930  1.0000
  H   H11       1.0  0.60792  0.62438  0.70173  1.0000
  H   H12       1.0  0.39208  0.37561  0.29827  1.0000
  H   H13       1.0  0.81423  0.62337  0.75134  1.0000
  H   H14       1.0  0.18577  0.37662  0.24867  1.0000
  C   C1        1.0  0.69491  0.72193  0.03992  1.0000
  C   C2        1.0  0.30510  0.27809  0.96010  1.0000
  C   C3        1.0  0.38945  0.74415  0.03418  1.0000
  C   C4        1.0  0.61057  0.25585  0.96582  1.0000
  C   C5        1.0  0.82821  0.07428  0.33168  1.0000
  C   C6        1.0  0.17179  0.92572  0.66832  1.0000
  C   C7        1.0  0.76212  0.97103  0.50212  1.0000
  C   C8        1.0  0.23788  0.02897  0.49788  1.0000
  C   C9        1.0  0.68058  0.05436  0.62299  1.0000
  C   C10       1.0  0.31941  0.94563  0.37701  1.0000
  C   C11       1.0  0.67154  0.24506  0.56575  1.0000
  C   C12       1.0  0.32844  0.75494  0.43424  1.0000
  C   C13       1.0  0.74108  0.34931  0.39566  1.0000
  C   C14       1.0  0.25892  0.65068  0.60434  1.0000
  C   C15       1.0  0.81876  0.26713  0.27589  1.0000
  C   C16       1.0  0.18123  0.73286  0.72411  1.0000
  C   C17       1.0  0.76273  0.62540  0.65474  1.0000
  C   C18       1.0  0.23727  0.37460  0.34526  1.0000
  N   N1        1.0  0.82804  0.76762  0.03879  1.0000
  N   N2        1.0  0.17197  0.23242  0.96120  1.0000
  N   N3        1.0  0.56029  0.65331  0.04161  1.0000
  N   N4        1.0  0.43971  0.34670  0.95840  1.0000
  N   N5        1.0  0.22855  0.81029  0.03206  1.0000
  N   N6        1.0  0.77146  0.18972  0.96793  1.0000
  N   N7        1.0  0.89890  0.94876  0.25037  1.0000
  N   N8        1.0  0.10110  0.05123  0.74963  1.0000
  N   N9        1.0  0.88220  0.78038  0.35739  1.0000
  N   N10       1.0  0.11779  0.21961  0.64262  1.0000
  N   N11       1.0  0.80048  0.79089  0.50952  1.0000
  N   N12       1.0  0.19951  0.20911  0.49048  1.0000
