data_image0
_chemical_formula_structural       Cu2H40C44N8O14
_chemical_formula_sum              "Cu2 H40 C44 N8 O14"
_cell_length_a       8.81058
_cell_length_b       11.3531
_cell_length_c       11.3529
_cell_angle_alpha    89.3867
_cell_angle_beta     88.5844
_cell_angle_gamma    88.5864

_space_group_name_H-M_alt    "P 1"
_space_group_IT_number       1

loop_
  _space_group_symop_operation_xyz
  'x, y, z'

loop_
  _atom_site_type_symbol
  _atom_site_label
  _atom_site_symmetry_multiplicity
  _atom_site_fract_x
  _atom_site_fract_y
  _atom_site_fract_z
  _atom_site_occupancy
  Cu  Cu1       1.0  0.09955  0.39363  0.83621  1.0000
  Cu  Cu2       1.0  0.59954  0.83621  0.39363  1.0000
  H   H1        1.0  0.33232  0.11422  0.70491  1.0000
  H   H2        1.0  0.83230  0.70493  0.11424  1.0000
  H   H3        1.0  0.41893  0.74290  0.73991  1.0000
  H   H4        1.0  0.91891  0.73992  0.74290  1.0000
  H   H5        1.0  0.27059  0.74158  0.93151  1.0000
  H   H6        1.0  0.77058  0.93150  0.74158  1.0000
  H   H7        1.0  0.15973  0.93037  0.00937  1.0000
  H   H8        1.0  0.65971  0.00936  0.93038  1.0000
  H   H9        1.0  0.86993  0.41280  0.65790  1.0000
  H   H10       1.0  0.36994  0.65791  0.41279  1.0000
  H   H11       1.0  0.41057  0.39232  0.42535  1.0000
  H   H12       1.0  0.91057  0.42536  0.39232  1.0000
  H   H13       1.0  0.34186  0.24606  0.42261  1.0000
  H   H14       1.0  0.84187  0.42261  0.24605  1.0000
  H   H15       1.0  0.65982  0.31506  0.33455  1.0000
  H   H16       1.0  0.15982  0.33455  0.31507  1.0000
  H   H17       1.0  0.57307  0.17666  0.31141  1.0000
  H   H18       1.0  0.07308  0.31141  0.17666  1.0000
  H   H19       1.0  0.67635  0.55856  0.01190  1.0000
  H   H20       1.0  0.17634  0.01189  0.55857  1.0000
  H   H21       1.0  0.60209  0.60782  0.80339  1.0000
  H   H22       1.0  0.10208  0.80339  0.60782  1.0000
  H   H23       1.0  0.47977  0.22318  0.78679  1.0000
  H   H24       1.0  0.97980  0.78679  0.22316  1.0000
  H   H25       1.0  0.62172  0.18316  0.97403  1.0000
  H   H26       1.0  0.12175  0.97402  0.18316  1.0000
  H   H27       1.0  0.88848  0.25256  0.98687  1.0000
  H   H28       1.0  0.38850  0.98686  0.25258  1.0000
  H   H29       1.0  0.26211  0.36486  0.04975  1.0000
  H   H30       1.0  0.76211  0.04973  0.36487  1.0000
  H   H31       1.0  0.35333  0.53265  0.73234  1.0000
  H   H32       1.0  0.85331  0.73235  0.53265  1.0000
  H   H33       1.0  0.51824  0.18443  0.56298  1.0000
  H   H34       1.0  0.01824  0.56298  0.18442  1.0000
  H   H35       1.0  0.44284  0.25833  0.15503  1.0000
  H   H36       1.0  0.94284  0.15504  0.25833  1.0000
  H   H37       1.0  0.15640  0.33347  0.59825  1.0000
  H   H38       1.0  0.65641  0.59826  0.33346  1.0000
  H   H39       1.0  0.14200  0.46839  0.58051  1.0000
  H   H40       1.0  0.64200  0.58052  0.46840  1.0000
  C   C1        1.0  0.18029  0.15051  0.91095  1.0000
  C   C2        1.0  0.68027  0.91095  0.15054  1.0000
  C   C3        1.0  0.24439  0.03502  0.86483  1.0000
  C   C4        1.0  0.74436  0.86483  0.03504  1.0000
  C   C5        1.0  0.32417  0.03338  0.75674  1.0000
  C   C6        1.0  0.82414  0.75676  0.03340  1.0000
  C   C7        1.0  0.38900  0.92900  0.71281  1.0000
  C   C8        1.0  0.88898  0.71283  0.92901  1.0000
  C   C9        1.0  0.47333  0.93055  0.59633  1.0000
  C   C10       1.0  0.97331  0.59638  0.93057  1.0000
  C   C11       1.0  0.36954  0.82369  0.77639  1.0000
  C   C12       1.0  0.86952  0.77639  0.82369  1.0000
  C   C13       1.0  0.28726  0.82384  0.88285  1.0000
  C   C14       1.0  0.78724  0.88285  0.82384  1.0000
  C   C15       1.0  0.22543  0.92926  0.92715  1.0000
  C   C16       1.0  0.72542  0.92714  0.92927  1.0000
  C   C17       1.0  0.81219  0.35873  0.72415  1.0000
  C   C18       1.0  0.31218  0.72416  0.35873  1.0000
  C   C19       1.0  0.66654  0.31746  0.70613  1.0000
  C   C20       1.0  0.16655  0.70613  0.31745  1.0000
  C   C21       1.0  0.59158  0.35458  0.59426  1.0000
  C   C22       1.0  0.09159  0.59428  0.35456  1.0000
  C   C23       1.0  0.44429  0.29859  0.42576  1.0000
  C   C24       1.0  0.94429  0.42577  0.29859  1.0000
  C   C25       1.0  0.55184  0.27191  0.32020  1.0000
  C   C26       1.0  0.05184  0.32020  0.27192  1.0000
  C   C27       1.0  0.52735  0.42450  0.16662  1.0000
  C   C28       1.0  0.02736  0.16660  0.42452  1.0000
  C   C29       1.0  0.47723  0.45634  0.04566  1.0000
  C   C30       1.0  0.97723  0.04566  0.45634  1.0000
  C   C31       1.0  0.57128  0.52789  0.97576  1.0000
  C   C32       1.0  0.07127  0.97575  0.52790  1.0000
  C   C33       1.0  0.52936  0.55578  0.86157  1.0000
  C   C34       1.0  0.02935  0.86157  0.55577  1.0000
  C   C35       1.0  0.59554  0.25268  0.79620  1.0000
  C   C36       1.0  0.09555  0.79620  0.25266  1.0000
  C   C37       1.0  0.67308  0.23124  0.90020  1.0000
  C   C38       1.0  0.17310  0.90020  0.23124  1.0000
  C   C39       1.0  0.82023  0.27126  0.90976  1.0000
  C   C40       1.0  0.32024  0.90977  0.27127  1.0000
  C   C41       1.0  0.34168  0.41925  0.99965  1.0000
  C   C42       1.0  0.84168  0.99964  0.41925  1.0000
  C   C43       1.0  0.39189  0.51511  0.82143  1.0000
  C   C44       1.0  0.89189  0.82144  0.51511  1.0000
  N   N1        1.0  0.88779  0.33414  0.82273  1.0000
  N   N2        1.0  0.38780  0.82273  0.33414  1.0000
  N   N3        1.0  0.51788  0.27170  0.53608  1.0000
  N   N4        1.0  0.01789  0.53607  0.27168  1.0000
  N   N5        1.0  0.49338  0.31578  0.20863  1.0000
  N   N6        1.0  0.99336  0.20865  0.31579  1.0000
  N   N7        1.0  0.29999  0.44973  0.89022  1.0000
  N   N8        1.0  0.79998  0.89021  0.44973  1.0000
  O   O1        1.0  0.18249  0.23277  0.83116  1.0000
  O   O2        1.0  0.68249  0.83116  0.23277  1.0000
  O   O3        1.0  0.17165  0.40787  0.63901  1.0000
  O   O4        1.0  0.67162  0.63902  0.40786  1.0000
  O   O5        1.0  0.13405  0.16064  0.01601  1.0000
  O   O6        1.0  0.63402  0.01601  0.16066  1.0000
  O   O7        1.0  0.49595  0.02660  0.54245  1.0000
  O   O8        1.0  0.99594  0.54249  0.02660  1.0000
  O   O9        1.0  0.51564  0.82847  0.55678  1.0000
  O   O10       1.0  0.01564  0.55676  0.82848  1.0000
  O   O11       1.0  0.60140  0.45945  0.56082  1.0000
  O   O12       1.0  0.10141  0.56083  0.45945  1.0000
  O   O13       1.0  0.60286  0.49490  0.22289  1.0000
  O   O14       1.0  0.10287  0.22287  0.49492  1.0000
