data_image0
_chemical_formula_structural       Na4H28C28S4O12
_chemical_formula_sum              "Na4 H28 C28 S4 O12"
_cell_length_a       6.11037
_cell_length_b       8.52207
_cell_length_c       14.9498
_cell_angle_alpha    100.429
_cell_angle_beta     90.0003
_cell_angle_gamma    90.0003

_space_group_name_H-M_alt    "P 1"
_space_group_IT_number       1

loop_
  _space_group_symop_operation_xyz
  'x, y, z'

loop_
  _atom_site_type_symbol
  _atom_site_label
  _atom_site_symmetry_multiplicity
  _atom_site_fract_x
  _atom_site_fract_y
  _atom_site_fract_z
  _atom_site_occupancy
  Na  Na1       1.0  0.12774  0.18421  0.46931  1.0000
  Na  Na2       1.0  0.62774  0.31579  0.53069  1.0000
  Na  Na3       1.0  0.87226  0.81579  0.53069  1.0000
  Na  Na4       1.0  0.37226  0.68421  0.46931  1.0000
  H   H1        1.0  0.06850  0.46028  0.76907  1.0000
  H   H2        1.0  0.56849  0.03972  0.23093  1.0000
  H   H3        1.0  0.93151  0.53973  0.23093  1.0000
  H   H4        1.0  0.43150  0.96028  0.76907  1.0000
  H   H5        1.0  0.29864  0.35425  0.71635  1.0000
  H   H6        1.0  0.79863  0.14575  0.28365  1.0000
  H   H7        1.0  0.70137  0.64575  0.28365  1.0000
  H   H8        1.0  0.20136  0.85426  0.71635  1.0000
  H   H9        1.0  0.13880  0.65170  0.89443  1.0000
  H   H10       1.0  0.63880  0.84829  0.10557  1.0000
  H   H11       1.0  0.86121  0.34828  0.10557  1.0000
  H   H12       1.0  0.36120  0.15171  0.89443  1.0000
  H   H13       1.0  0.37962  0.84837  0.98906  1.0000
  H   H14       1.0  0.87963  0.65161  0.01094  1.0000
  H   H15       1.0  0.62038  0.15162  0.01094  1.0000
  H   H16       1.0  0.12037  0.34839  0.98906  1.0000
  H   H17       1.0  0.75012  0.90815  0.93113  1.0000
  H   H18       1.0  0.25013  0.59186  0.06888  1.0000
  H   H19       1.0  0.24988  0.09185  0.06887  1.0000
  H   H20       1.0  0.74987  0.40814  0.93113  1.0000
  H   H21       1.0  0.86967  0.76839  0.77765  1.0000
  H   H22       1.0  0.36968  0.73163  0.22235  1.0000
  H   H23       1.0  0.13033  0.23162  0.22235  1.0000
  H   H24       1.0  0.63032  0.26837  0.77765  1.0000
  H   H25       1.0  0.63140  0.57192  0.68498  1.0000
  H   H26       1.0  0.13140  0.92810  0.31502  1.0000
  H   H27       1.0  0.36861  0.42810  0.31502  1.0000
  H   H28       1.0  0.86860  0.07190  0.68498  1.0000
  C   C1        1.0  0.21956  0.47188  0.73125  1.0000
  C   C2        1.0  0.71956  0.02812  0.26874  1.0000
  C   C3        1.0  0.78045  0.52812  0.26875  1.0000
  C   C4        1.0  0.28044  0.97188  0.73126  1.0000
  C   C5        1.0  0.36732  0.59675  0.78338  1.0000
  C   C6        1.0  0.86732  0.90325  0.21662  1.0000
  C   C7        1.0  0.63268  0.40325  0.21662  1.0000
  C   C8        1.0  0.13268  0.09675  0.78338  1.0000
  C   C9        1.0  0.29984  0.67742  0.86919  1.0000
  C   C10       1.0  0.79983  0.82257  0.13081  1.0000
  C   C11       1.0  0.70017  0.32257  0.13081  1.0000
  C   C12       1.0  0.20017  0.17743  0.86919  1.0000
  C   C13       1.0  0.43595  0.78850  0.92239  1.0000
  C   C14       1.0  0.93594  0.71149  0.07761  1.0000
  C   C15       1.0  0.56405  0.21149  0.07761  1.0000
  C   C16       1.0  0.06405  0.28850  0.92239  1.0000
  C   C17       1.0  0.64246  0.82150  0.89018  1.0000
  C   C18       1.0  0.14246  0.67850  0.10982  1.0000
  C   C19       1.0  0.35754  0.17850  0.10982  1.0000
  C   C20       1.0  0.85754  0.32150  0.89018  1.0000
  C   C21       1.0  0.71080  0.74258  0.80457  1.0000
  C   C22       1.0  0.21080  0.75744  0.19543  1.0000
  C   C23       1.0  0.28920  0.25743  0.19543  1.0000
  C   C24       1.0  0.78920  0.24257  0.80457  1.0000
  C   C25       1.0  0.57511  0.63060  0.75180  1.0000
  C   C26       1.0  0.07510  0.86941  0.24820  1.0000
  C   C27       1.0  0.42490  0.36940  0.24820  1.0000
  C   C28       1.0  0.92489  0.13059  0.75180  1.0000
  S   S1        1.0  0.12773  0.49875  0.62082  1.0000
  S   S2        1.0  0.62773  0.00125  0.37917  1.0000
  S   S3        1.0  0.87227  0.50125  0.37917  1.0000
  S   S4        1.0  0.37226  0.99875  0.62083  1.0000
  O   O1        1.0  0.97005  0.36757  0.59321  1.0000
  O   O2        1.0  0.47006  0.13244  0.40678  1.0000
  O   O3        1.0  0.02995  0.63243  0.40678  1.0000
  O   O4        1.0  0.52994  0.86757  0.59322  1.0000
  O   O5        1.0  0.02855  0.65774  0.62931  1.0000
  O   O6        1.0  0.52855  0.84226  0.37069  1.0000
  O   O7        1.0  0.97146  0.34226  0.37069  1.0000
  O   O8        1.0  0.47145  0.15774  0.62931  1.0000
  O   O9        1.0  0.32089  0.48013  0.56004  1.0000
  O   O10       1.0  0.82089  0.01986  0.43996  1.0000
  O   O11       1.0  0.67911  0.51987  0.43996  1.0000
  O   O12       1.0  0.17910  0.98014  0.56004  1.0000
