data_image0
_chemical_formula_structural       Cd2H56C54N8O12
_chemical_formula_sum              "Cd2 H56 C54 N8 O12"
_cell_length_a       8.81406
_cell_length_b       10.4186
_cell_length_c       14.721
_cell_angle_alpha    86.8056
_cell_angle_beta     87.9231
_cell_angle_gamma    77.42

_space_group_name_H-M_alt    "P 1"
_space_group_IT_number       1

loop_
  _space_group_symop_operation_xyz
  'x, y, z'

loop_
  _atom_site_type_symbol
  _atom_site_label
  _atom_site_symmetry_multiplicity
  _atom_site_fract_x
  _atom_site_fract_y
  _atom_site_fract_z
  _atom_site_occupancy
  Cd  Cd1       1.0  0.34835  0.39050  0.03213  1.0000
  Cd  Cd2       1.0  0.65164  0.60950  0.96787  1.0000
  H   H1        1.0  0.48120  0.12998  0.74541  1.0000
  H   H2        1.0  0.51880  0.87002  0.25460  1.0000
  H   H3        1.0  0.29400  0.46876  0.50719  1.0000
  H   H4        1.0  0.70600  0.53124  0.49281  1.0000
  H   H5        1.0  0.07729  0.56418  0.91883  1.0000
  H   H6        1.0  0.92271  0.43582  0.08117  1.0000
  H   H7        1.0  0.95806  0.58236  0.76784  1.0000
  H   H8        1.0  0.04194  0.41764  0.23216  1.0000
  H   H9        1.0  0.10234  0.44119  0.64244  1.0000
  H   H10       1.0  0.89767  0.55881  0.35756  1.0000
  H   H11       1.0  0.46416  0.28992  0.83522  1.0000
  H   H12       1.0  0.53584  0.71008  0.16478  1.0000
  H   H13       1.0  0.56023  0.12561  0.54865  1.0000
  H   H14       1.0  0.43977  0.87439  0.45135  1.0000
  H   H15       1.0  0.47442  0.99889  0.59714  1.0000
  H   H16       1.0  0.52558  0.00111  0.40286  1.0000
  H   H17       1.0  0.69701  0.93563  0.70766  1.0000
  H   H18       1.0  0.30299  0.06437  0.29235  1.0000
  H   H19       1.0  0.78239  0.05927  0.65315  1.0000
  H   H20       1.0  0.21761  0.94072  0.34686  1.0000
  H   H21       1.0  0.70718  0.81987  0.56380  1.0000
  H   H22       1.0  0.29281  0.18013  0.43621  1.0000
  H   H23       1.0  0.77743  0.94529  0.50275  1.0000
  H   H24       1.0  0.22257  0.05471  0.49725  1.0000
  H   H25       1.0  0.95341  0.77935  0.65974  1.0000
  H   H26       1.0  0.04658  0.22063  0.34026  1.0000
  H   H27       1.0  0.02039  0.89498  0.58561  1.0000
  H   H28       1.0  0.97961  0.10502  0.41439  1.0000
  H   H29       1.0  0.95378  0.63031  0.53637  1.0000
  H   H30       1.0  0.04622  0.36969  0.46363  1.0000
  H   H31       1.0  0.98438  0.75111  0.45258  1.0000
  H   H32       1.0  0.01561  0.24889  0.54742  1.0000
  H   H33       1.0  0.23959  0.75296  0.51272  1.0000
  H   H34       1.0  0.76040  0.24705  0.48728  1.0000
  H   H35       1.0  0.21485  0.63719  0.60234  1.0000
  H   H36       1.0  0.78515  0.36281  0.39766  1.0000
  H   H37       1.0  0.49402  0.34769  0.44247  1.0000
  H   H38       1.0  0.50598  0.65231  0.55754  1.0000
  H   H39       1.0  0.64599  0.18412  0.33677  1.0000
  H   H40       1.0  0.35401  0.81588  0.66323  1.0000
  H   H41       1.0  0.60078  0.21926  0.16853  1.0000
  H   H42       1.0  0.39921  0.78074  0.83147  1.0000
  H   H43       1.0  0.26796  0.56048  0.20753  1.0000
  H   H44       1.0  0.73205  0.43952  0.79247  1.0000
  H   H45       1.0  0.34527  0.91874  0.01320  1.0000
  H   H46       1.0  0.65473  0.08125  0.98680  1.0000
  H   H47       1.0  0.99365  0.14934  0.18228  1.0000
  H   H48       1.0  0.00635  0.85067  0.81771  1.0000
  H   H49       1.0  0.01408  0.73449  0.16239  1.0000
  H   H50       1.0  0.98592  0.26551  0.83762  1.0000
  H   H51       1.0  0.74332  0.96377  0.21509  1.0000
  H   H52       1.0  0.25668  0.03624  0.78491  1.0000
  H   H53       1.0  0.84733  0.03486  0.29282  1.0000
  H   H54       1.0  0.15268  0.96515  0.70718  1.0000
  H   H55       1.0  0.86873  0.86124  0.29403  1.0000
  H   H56       1.0  0.13127  0.13878  0.70597  1.0000
  C   C1        1.0  0.13646  0.50638  0.86342  1.0000
  C   C2        1.0  0.86354  0.49362  0.13658  1.0000
  C   C3        1.0  0.07060  0.51602  0.77790  1.0000
  C   C4        1.0  0.92940  0.48398  0.22210  1.0000
  C   C5        1.0  0.15027  0.43946  0.70983  1.0000
  C   C6        1.0  0.84973  0.56054  0.29017  1.0000
  C   C7        1.0  0.29460  0.35564  0.72850  1.0000
  C   C8        1.0  0.70540  0.64436  0.27151  1.0000
  C   C9        1.0  0.35196  0.35168  0.81600  1.0000
  C   C10       1.0  0.64804  0.64832  0.18400  1.0000
  C   C11       1.0  0.37834  0.27489  0.65412  1.0000
  C   C12       1.0  0.62166  0.72511  0.34588  1.0000
  C   C13       1.0  0.54939  0.06701  0.61196  1.0000
  C   C14       1.0  0.45062  0.93299  0.38804  1.0000
  C   C15       1.0  0.70787  0.98978  0.64201  1.0000
  C   C16       1.0  0.29213  0.01022  0.35800  1.0000
  C   C17       1.0  0.77934  0.89280  0.57017  1.0000
  C   C18       1.0  0.22065  0.10719  0.42983  1.0000
  C   C19       1.0  0.94626  0.82186  0.58930  1.0000
  C   C20       1.0  0.05374  0.17813  0.41071  1.0000
  C   C21       1.0  0.01031  0.71421  0.52306  1.0000
  C   C22       1.0  0.98969  0.28579  0.47694  1.0000
  C   C23       1.0  0.18609  0.66858  0.53149  1.0000
  C   C24       1.0  0.81391  0.33142  0.46851  1.0000
  C   C25       1.0  0.28358  0.58295  0.38530  1.0000
  C   C26       1.0  0.71643  0.41704  0.61471  1.0000
  C   C27       1.0  0.37113  0.46953  0.33262  1.0000
  C   C28       1.0  0.62887  0.53047  0.66738  1.0000
  C   C29       1.0  0.47633  0.36043  0.36938  1.0000
  C   C30       1.0  0.52368  0.63957  0.63062  1.0000
  C   C31       1.0  0.56040  0.26860  0.31065  1.0000
  C   C32       1.0  0.43960  0.73140  0.68935  1.0000
  C   C33       1.0  0.53617  0.28685  0.21750  1.0000
  C   C34       1.0  0.46383  0.71315  0.78250  1.0000
  C   C35       1.0  0.35172  0.47865  0.23845  1.0000
  C   C36       1.0  0.64829  0.52135  0.76155  1.0000
  C   C37       1.0  0.25658  0.68201  0.04638  1.0000
  C   C38       1.0  0.74342  0.31798  0.95363  1.0000
  C   C39       1.0  0.18354  0.81389  0.08240  1.0000
  C   C40       1.0  0.81646  0.18611  0.91760  1.0000
  C   C41       1.0  0.24335  0.92554  0.05840  1.0000
  C   C42       1.0  0.75665  0.07445  0.94160  1.0000
  C   C43       1.0  0.17238  0.04641  0.09406  1.0000
  C   C44       1.0  0.82762  0.95359  0.90594  1.0000
  C   C45       1.0  0.04535  0.05390  0.15505  1.0000
  C   C46       1.0  0.95466  0.94610  0.84494  1.0000
  C   C47       1.0  0.98770  0.94261  0.18171  1.0000
  C   C48       1.0  0.01230  0.05740  0.81829  1.0000
  C   C49       1.0  0.05663  0.82328  0.14370  1.0000
  C   C50       1.0  0.94337  0.17673  0.85631  1.0000
  C   C51       1.0  0.85478  0.95100  0.24962  1.0000
  C   C52       1.0  0.14522  0.04901  0.75038  1.0000
  C   C53       1.0  0.23234  0.16842  0.07028  1.0000
  C   C54       1.0  0.76766  0.83157  0.92970  1.0000
  N   N1        1.0  0.27410  0.42561  0.88154  1.0000
  N   N2        1.0  0.72590  0.57439  0.11846  1.0000
  N   N3        1.0  0.47063  0.15822  0.67842  1.0000
  N   N4        1.0  0.52937  0.84178  0.32159  1.0000
  N   N5        1.0  0.25825  0.56037  0.47537  1.0000
  N   N6        1.0  0.74175  0.43964  0.52462  1.0000
  N   N7        1.0  0.43142  0.38968  0.18241  1.0000
  N   N8        1.0  0.56858  0.61032  0.81759  1.0000
  O   O1        1.0  0.18360  0.58926  0.06259  1.0000
  O   O2        1.0  0.81638  0.41074  0.93741  1.0000
  O   O3        1.0  0.38662  0.66689  0.00359  1.0000
  O   O4        1.0  0.61338  0.33309  0.99643  1.0000
  O   O5        1.0  0.16402  0.27518  0.10678  1.0000
  O   O6        1.0  0.83600  0.72482  0.89321  1.0000
  O   O7        1.0  0.34977  0.16209  0.01609  1.0000
  O   O8        1.0  0.65023  0.83790  0.98389  1.0000
  O   O9        1.0  0.35819  0.31363  0.57240  1.0000
  O   O10       1.0  0.64181  0.68637  0.42761  1.0000
  O   O11       1.0  0.23944  0.69298  0.34570  1.0000
  O   O12       1.0  0.76055  0.30703  0.65429  1.0000
