data_image0
_chemical_formula_structural       Zn2H50C52N10O16
_chemical_formula_sum              "Zn2 H50 C52 N10 O16"
_cell_length_a       8.99287
_cell_length_b       9.62614
_cell_length_c       16.0998
_cell_angle_alpha    73.3497
_cell_angle_beta     76.6236
_cell_angle_gamma    80.6308

_space_group_name_H-M_alt    "P 1"
_space_group_IT_number       1

loop_
  _space_group_symop_operation_xyz
  'x, y, z'

loop_
  _atom_site_type_symbol
  _atom_site_label
  _atom_site_symmetry_multiplicity
  _atom_site_fract_x
  _atom_site_fract_y
  _atom_site_fract_z
  _atom_site_occupancy
  Zn  Zn1       1.0  0.54119  0.34754  0.16833  1.0000
  Zn  Zn2       1.0  0.45881  0.65246  0.83167  1.0000
  H   H1        1.0  0.98069  0.92346  0.20297  1.0000
  H   H2        1.0  0.01931  0.07654  0.79703  1.0000
  H   H3        1.0  0.76459  0.02106  0.57619  1.0000
  H   H4        1.0  0.23541  0.97894  0.42382  1.0000
  H   H5        1.0  0.49883  0.79410  0.16626  1.0000
  H   H6        1.0  0.50118  0.20590  0.83373  1.0000
  H   H7        1.0  0.21403  0.80401  0.98319  1.0000
  H   H8        1.0  0.78597  0.19600  0.01680  1.0000
  H   H9        1.0  0.28485  0.20403  0.03333  1.0000
  H   H10       1.0  0.71515  0.79597  0.96666  1.0000
  H   H11       1.0  0.79212  0.52489  0.08651  1.0000
  H   H12       1.0  0.20788  0.47511  0.91349  1.0000
  H   H13       1.0  0.07284  0.51447  0.09265  1.0000
  H   H14       1.0  0.92716  0.48553  0.90735  1.0000
  H   H15       1.0  0.19784  0.28645  0.17927  1.0000
  H   H16       1.0  0.80216  0.71355  0.82073  1.0000
  H   H17       1.0  0.76499  0.10093  0.24295  1.0000
  H   H18       1.0  0.23501  0.89907  0.75705  1.0000
  H   H19       1.0  0.08405  0.76922  0.36956  1.0000
  H   H20       1.0  0.91595  0.23078  0.63044  1.0000
  H   H21       1.0  0.20127  0.73029  0.27258  1.0000
  H   H22       1.0  0.79873  0.26971  0.72741  1.0000
  H   H23       1.0  0.97420  0.65895  0.23412  1.0000
  H   H24       1.0  0.02580  0.34105  0.76588  1.0000
  H   H25       1.0  0.85334  0.71044  0.32550  1.0000
  H   H26       1.0  0.14666  0.28956  0.67450  1.0000
  H   H27       1.0  0.01694  0.51528  0.42505  1.0000
  H   H28       1.0  0.98306  0.48472  0.57495  1.0000
  H   H29       1.0  0.10844  0.45422  0.33078  1.0000
  H   H30       1.0  0.89156  0.54578  0.66922  1.0000
  H   H31       1.0  0.85265  0.40799  0.31151  1.0000
  H   H32       1.0  0.14735  0.59201  0.68850  1.0000
  H   H33       1.0  0.76082  0.47488  0.40305  1.0000
  H   H34       1.0  0.23918  0.52512  0.59695  1.0000
  H   H35       1.0  0.98240  0.19523  0.40478  1.0000
  H   H36       1.0  0.01760  0.80477  0.59522  1.0000
  H   H37       1.0  0.92313  0.26934  0.49724  1.0000
  H   H38       1.0  0.07687  0.73066  0.50276  1.0000
  H   H39       1.0  0.64805  0.26088  0.49579  1.0000
  H   H40       1.0  0.35194  0.73912  0.50421  1.0000
  H   H41       1.0  0.70248  0.19515  0.39986  1.0000
  H   H42       1.0  0.29752  0.80486  0.60014  1.0000
  H   H43       1.0  0.58553  0.88564  0.66832  1.0000
  H   H44       1.0  0.41446  0.11436  0.33169  1.0000
  H   H45       1.0  0.71821  0.68030  0.45309  1.0000
  H   H46       1.0  0.28179  0.31971  0.54691  1.0000
  H   H47       1.0  0.63121  0.44604  0.56185  1.0000
  H   H48       1.0  0.36879  0.55396  0.43814  1.0000
  H   H49       1.0  0.52280  0.45069  0.71998  1.0000
  H   H50       1.0  0.47720  0.54931  0.28002  1.0000
  C   C1        1.0  0.47043  0.08316  0.15291  1.0000
  C   C2        1.0  0.52957  0.91684  0.84709  1.0000
  C   C3        1.0  0.39393  0.00567  0.10775  1.0000
  C   C4        1.0  0.60607  0.99433  0.89225  1.0000
  C   C5        1.0  0.42244  0.85433  0.12155  1.0000
  C   C6        1.0  0.57757  0.14567  0.87845  1.0000
  C   C7        1.0  0.35861  0.78138  0.07663  1.0000
  C   C8        1.0  0.64139  0.21862  0.92337  1.0000
  C   C9        1.0  0.26348  0.86021  0.01835  1.0000
  C   C10       1.0  0.73652  0.13979  0.98165  1.0000
  C   C11       1.0  0.23886  0.01116  0.00397  1.0000
  C   C12       1.0  0.76114  0.98884  0.99603  1.0000
  C   C13       1.0  0.30264  0.08588  0.04731  1.0000
  C   C14       1.0  0.69736  0.91413  0.95269  1.0000
  C   C15       1.0  0.39399  0.61957  0.08700  1.0000
  C   C16       1.0  0.60601  0.38043  0.91300  1.0000
  C   C17       1.0  0.85351  0.42795  0.12282  1.0000
  C   C18       1.0  0.14649  0.57205  0.87718  1.0000
  C   C19       1.0  0.00720  0.42183  0.12694  1.0000
  C   C20       1.0  0.99279  0.57817  0.87306  1.0000
  C   C21       1.0  0.07706  0.29435  0.17572  1.0000
  C   C22       1.0  0.92294  0.70565  0.82428  1.0000
  C   C23       1.0  0.99257  0.17459  0.21699  1.0000
  C   C24       1.0  0.00743  0.82541  0.78301  1.0000
  C   C25       1.0  0.83813  0.18900  0.21059  1.0000
  C   C26       1.0  0.16186  0.81100  0.78941  1.0000
  C   C27       1.0  0.06632  0.03506  0.26866  1.0000
  C   C28       1.0  0.93368  0.96494  0.73135  1.0000
  C   C29       1.0  0.08285  0.76643  0.30192  1.0000
  C   C30       1.0  0.91715  0.23357  0.69808  1.0000
  C   C31       1.0  0.97047  0.66296  0.30231  1.0000
  C   C32       1.0  0.02953  0.33704  0.69769  1.0000
  C   C33       1.0  0.00030  0.50896  0.36045  1.0000
  C   C34       1.0  0.99970  0.49104  0.63955  1.0000
  C   C35       1.0  0.86888  0.41660  0.37556  1.0000
  C   C36       1.0  0.13112  0.58340  0.62444  1.0000
  C   C37       1.0  0.88943  0.26336  0.43678  1.0000
  C   C38       1.0  0.11057  0.73664  0.56322  1.0000
  C   C39       1.0  0.73866  0.19437  0.46062  1.0000
  C   C40       1.0  0.26134  0.80563  0.53938  1.0000
  C   C41       1.0  0.70170  0.93933  0.48497  1.0000
  C   C42       1.0  0.29830  0.06067  0.51503  1.0000
  C   C43       1.0  0.60260  0.79100  0.64148  1.0000
  C   C44       1.0  0.39740  0.20900  0.35852  1.0000
  C   C45       1.0  0.66508  0.79849  0.55246  1.0000
  C   C46       1.0  0.33491  0.20152  0.44754  1.0000
  C   C47       1.0  0.67455  0.67348  0.52301  1.0000
  C   C48       1.0  0.32545  0.32653  0.47699  1.0000
  C   C49       1.0  0.62468  0.54569  0.58243  1.0000
  C   C50       1.0  0.37532  0.45431  0.41757  1.0000
  C   C51       1.0  0.56426  0.54677  0.66994  1.0000
  C   C52       1.0  0.43573  0.45323  0.33006  1.0000
  N   N1        1.0  0.77055  0.31407  0.16490  1.0000
  N   N2        1.0  0.22945  0.68592  0.83510  1.0000
  N   N3        1.0  0.03645  0.91327  0.25346  1.0000
  N   N4        1.0  0.96355  0.08673  0.74654  1.0000
  N   N5        1.0  0.74056  0.04454  0.51405  1.0000
  N   N6        1.0  0.25943  0.95546  0.48595  1.0000
  N   N7        1.0  0.55341  0.66736  0.69856  1.0000
  N   N8        1.0  0.44659  0.33264  0.30144  1.0000
  N   N9        1.0  0.14774  0.09394  0.93860  1.0000
  N   N10       1.0  0.85226  0.90606  0.06140  1.0000
  O   O1        1.0  0.44012  0.22432  0.12898  1.0000
  O   O2        1.0  0.55988  0.77568  0.87102  1.0000
  O   O3        1.0  0.55485  0.01427  0.20566  1.0000
  O   O4        1.0  0.44515  0.98573  0.79434  1.0000
  O   O5        1.0  0.50348  0.56027  0.13059  1.0000
  O   O6        1.0  0.49652  0.43973  0.86941  1.0000
  O   O7        1.0  0.32008  0.55554  0.05552  1.0000
  O   O8        1.0  0.67992  0.44446  0.94448  1.0000
  O   O9        1.0  0.09010  0.02279  0.90245  1.0000
  O   O10       1.0  0.90990  0.97721  0.09755  1.0000
  O   O11       1.0  0.13085  0.22884  0.92177  1.0000
  O   O12       1.0  0.86916  0.77116  0.07823  1.0000
  O   O13       1.0  0.14823  0.03687  0.32138  1.0000
  O   O14       1.0  0.85177  0.96313  0.67862  1.0000
  O   O15       1.0  0.68714  0.95471  0.40763  1.0000
  O   O16       1.0  0.31286  0.04529  0.59237  1.0000
