data_image0
_chemical_formula_structural       K2H24C22O12
_chemical_formula_sum              "K2 H24 C22 O12"
_cell_length_a       5.8065
_cell_length_b       8.39586
_cell_length_c       13.7487
_cell_angle_alpha    110.404
_cell_angle_beta     99.801
_cell_angle_gamma    94.736

_space_group_name_H-M_alt    "P 1"
_space_group_IT_number       1

loop_
  _space_group_symop_operation_xyz
  'x, y, z'

loop_
  _atom_site_type_symbol
  _atom_site_label
  _atom_site_symmetry_multiplicity
  _atom_site_fract_x
  _atom_site_fract_y
  _atom_site_fract_z
  _atom_site_occupancy
  K   K1        1.0  0.77854  0.37500  0.04644  1.0000
  K   K2        1.0  0.22145  0.62499  0.95356  1.0000
  H   H1        1.0  0.16310  0.72893  0.20024  1.0000
  H   H2        1.0  0.83690  0.27107  0.79976  1.0000
  H   H3        1.0  0.27667  0.56076  0.18425  1.0000
  H   H4        1.0  0.72334  0.43923  0.81575  1.0000
  H   H5        1.0  0.76618  0.29404  0.42914  1.0000
  H   H6        1.0  0.23381  0.70596  0.57086  1.0000
  H   H7        1.0  0.64944  0.10406  0.15092  1.0000
  H   H8        1.0  0.35056  0.89593  0.84907  1.0000
  H   H9        1.0  0.92163  0.12469  0.15736  1.0000
  H   H10       1.0  0.07835  0.87530  0.84264  1.0000
  H   H11       1.0  0.67787  0.62061  0.28901  1.0000
  H   H12       1.0  0.32214  0.37939  0.71098  1.0000
  H   H13       1.0  0.40932  0.83297  0.43503  1.0000
  H   H14       1.0  0.59069  0.16703  0.56497  1.0000
  H   H15       1.0  0.60867  0.90152  0.27142  1.0000
  H   H16       1.0  0.39134  0.09848  0.72858  1.0000
  H   H17       1.0  0.94369  0.14039  0.33046  1.0000
  H   H18       1.0  0.05631  0.85961  0.66954  1.0000
  H   H19       1.0  0.34044  0.10829  0.41387  1.0000
  H   H20       1.0  0.65956  0.89172  0.58613  1.0000
  H   H21       1.0  0.69286  0.70664  0.92835  1.0000
  H   H22       1.0  0.30713  0.29335  0.07165  1.0000
  H   H23       1.0  0.75081  0.85258  0.04282  1.0000
  H   H24       1.0  0.24918  0.14742  0.95718  1.0000
  C   C1        1.0  0.43930  0.30914  0.27088  1.0000
  C   C2        1.0  0.56070  0.69087  0.72912  1.0000
  C   C3        1.0  0.64797  0.38368  0.46039  1.0000
  C   C4        1.0  0.35202  0.61632  0.53961  1.0000
  C   C5        1.0  0.31139  0.52255  0.43020  1.0000
  C   C6        1.0  0.68859  0.47744  0.56980  1.0000
  C   C7        1.0  0.09430  0.53736  0.35978  1.0000
  C   C8        1.0  0.90571  0.46265  0.64021  1.0000
  C   C9        1.0  0.04658  0.71017  0.36472  1.0000
  C   C10       1.0  0.95343  0.28985  0.63529  1.0000
  C   C11       1.0  0.82019  0.72986  0.31857  1.0000
  C   C12       1.0  0.17980  0.27014  0.68142  1.0000
  C   C13       1.0  0.23259  0.84910  0.40199  1.0000
  C   C14       1.0  0.76741  0.15090  0.59801  1.0000
  C   C15       1.0  0.78227  0.88510  0.30814  1.0000
  C   C16       1.0  0.21775  0.11491  0.69186  1.0000
  C   C17       1.0  0.97048  0.02100  0.34253  1.0000
  C   C18       1.0  0.02951  0.97900  0.65747  1.0000
  C   C19       1.0  0.19444  0.00340  0.38997  1.0000
  C   C20       1.0  0.80557  0.99661  0.61003  1.0000
  C   C21       1.0  0.46237  0.40528  0.38906  1.0000
  C   C22       1.0  0.53763  0.59473  0.61094  1.0000
  O   O1        1.0  0.47697  0.15532  0.24129  1.0000
  O   O2        1.0  0.52303  0.84468  0.75871  1.0000
  O   O3        1.0  0.39168  0.39286  0.20996  1.0000
  O   O4        1.0  0.60835  0.60714  0.79004  1.0000
  O   O5        1.0  0.95945  0.40530  0.29798  1.0000
  O   O6        1.0  0.04056  0.59470  0.70201  1.0000
  O   O7        1.0  0.19661  0.62837  0.14592  1.0000
  O   O8        1.0  0.80339  0.37162  0.85408  1.0000
  O   O9        1.0  0.77163  0.08032  0.10589  1.0000
  O   O10       1.0  0.22836  0.91968  0.89410  1.0000
  O   O11       1.0  0.73234  0.72595  0.00524  1.0000
  O   O12       1.0  0.26764  0.27404  0.99476  1.0000
