data_image0
_chemical_formula_structural       Li4H16C8N4O8
_chemical_formula_sum              "Li4 H16 C8 N4 O8"
_cell_length_a       5.00917
_cell_length_b       7.79026
_cell_length_c       9.15144
_cell_angle_alpha    90.0002
_cell_angle_beta     90.0001
_cell_angle_gamma    89.9979

_space_group_name_H-M_alt    "P 1"
_space_group_IT_number       1

loop_
  _space_group_symop_operation_xyz
  'x, y, z'

loop_
  _atom_site_type_symbol
  _atom_site_label
  _atom_site_symmetry_multiplicity
  _atom_site_fract_x
  _atom_site_fract_y
  _atom_site_fract_z
  _atom_site_occupancy
  Li  Li1       1.0  0.24254  0.17082  0.92575  1.0000
  Li  Li2       1.0  0.74255  0.32918  0.07425  1.0000
  Li  Li3       1.0  0.75744  0.67082  0.57425  1.0000
  Li  Li4       1.0  0.25747  0.82919  0.42575  1.0000
  H   H1        1.0  0.99688  0.25958  0.69098  1.0000
  H   H2        1.0  0.49693  0.24041  0.30902  1.0000
  H   H3        1.0  0.00307  0.75958  0.80900  1.0000
  H   H4        1.0  0.50310  0.74043  0.19098  1.0000
  H   H5        1.0  0.22050  0.12269  0.63310  1.0000
  H   H6        1.0  0.72053  0.37731  0.36687  1.0000
  H   H7        1.0  0.77949  0.62269  0.86688  1.0000
  H   H8        1.0  0.27949  0.87731  0.13311  1.0000
  H   H9        1.0  0.54969  0.31536  0.61944  1.0000
  H   H10       1.0  0.04973  0.18468  0.38057  1.0000
  H   H11       1.0  0.45029  0.81533  0.88056  1.0000
  H   H12       1.0  0.95029  0.68465  0.11943  1.0000
  H   H13       1.0  0.42215  0.43531  0.76683  1.0000
  H   H14       1.0  0.92224  0.06471  0.23320  1.0000
  H   H15       1.0  0.57781  0.93528  0.73320  1.0000
  H   H16       1.0  0.07783  0.56469  0.26683  1.0000
  C   C1        1.0  0.36374  0.36384  0.66772  1.0000
  C   C2        1.0  0.86380  0.13619  0.33228  1.0000
  C   C3        1.0  0.63623  0.86379  0.83227  1.0000
  C   C4        1.0  0.13623  0.63616  0.16772  1.0000
  C   C5        1.0  0.24071  0.49588  0.56435  1.0000
  C   C6        1.0  0.74081  0.00417  0.43562  1.0000
  C   C7        1.0  0.75921  0.99581  0.93561  1.0000
  C   C8        1.0  0.25925  0.50412  0.06435  1.0000
  N   N1        1.0  0.18970  0.21956  0.70677  1.0000
  N   N2        1.0  0.68976  0.28040  0.29325  1.0000
  N   N3        1.0  0.81022  0.71961  0.79325  1.0000
  N   N4        1.0  0.31029  0.78044  0.20677  1.0000
  O   O1        1.0  0.99700  0.48038  0.52972  1.0000
  O   O2        1.0  0.49707  0.01959  0.47028  1.0000
  O   O3        1.0  0.00290  0.98043  0.97028  1.0000
  O   O4        1.0  0.50299  0.51962  0.02974  1.0000
  O   O5        1.0  0.39039  0.62017  0.52373  1.0000
  O   O6        1.0  0.89037  0.87987  0.47629  1.0000
  O   O7        1.0  0.60968  0.12012  0.97629  1.0000
  O   O8        1.0  0.10961  0.37984  0.02373  1.0000
