data_image0
_chemical_formula_structural       Li2H14C8N4O6
_chemical_formula_sum              "Li2 H14 C8 N4 O6"
_cell_length_a       4.97404
_cell_length_b       7.68635
_cell_length_c       8.87663
_cell_angle_alpha    106.655
_cell_angle_beta     90.0002
_cell_angle_gamma    90.0008

_space_group_name_H-M_alt    "P 1"
_space_group_IT_number       1

loop_
  _space_group_symop_operation_xyz
  'x, y, z'

loop_
  _atom_site_type_symbol
  _atom_site_label
  _atom_site_symmetry_multiplicity
  _atom_site_fract_x
  _atom_site_fract_y
  _atom_site_fract_z
  _atom_site_occupancy
  Li  Li1       1.0  0.45486  0.62026  0.48685  1.0000
  Li  Li2       1.0  0.95486  0.37974  0.51315  1.0000
  H   H1        1.0  0.90888  0.81271  0.76027  1.0000
  H   H2        1.0  0.40890  0.18728  0.23974  1.0000
  H   H3        1.0  0.06824  0.63012  0.77345  1.0000
  H   H4        1.0  0.56825  0.36988  0.22655  1.0000
  H   H5        1.0  0.42508  0.19043  0.93599  1.0000
  H   H6        1.0  0.92509  0.80957  0.06401  1.0000
  H   H7        1.0  0.42751  0.77576  0.90127  1.0000
  H   H8        1.0  0.92752  0.22424  0.09873  1.0000
  H   H9        1.0  0.24292  0.97519  0.98856  1.0000
  H   H10       1.0  0.74293  0.02481  0.01144  1.0000
  H   H11       1.0  0.70186  0.12825  0.62771  1.0000
  H   H12       1.0  0.20187  0.87176  0.37230  1.0000
  H   H13       1.0  0.77814  0.29984  0.80235  1.0000
  H   H14       1.0  0.27815  0.70018  0.19766  1.0000
  C   C1        1.0  0.27227  0.86711  0.87789  1.0000
  C   C2        1.0  0.77228  0.13288  0.12212  1.0000
  C   C3        1.0  0.39294  0.95327  0.75868  1.0000
  C   C4        1.0  0.89296  0.04672  0.24130  1.0000
  C   C5        1.0  0.61087  0.22705  0.72999  1.0000
  C   C6        1.0  0.11089  0.77295  0.27001  1.0000
  C   C7        1.0  0.45327  0.36316  0.66774  1.0000
  C   C8        1.0  0.95328  0.63684  0.33225  1.0000
  N   N1        1.0  0.02443  0.76251  0.83335  1.0000
  N   N2        1.0  0.52444  0.23749  0.16665  1.0000
  N   N3        1.0  0.45621  0.12978  0.81731  1.0000
  N   N4        1.0  0.95623  0.87023  0.18270  1.0000
  O   O1        1.0  0.43976  0.86445  0.61925  1.0000
  O   O2        1.0  0.93979  0.13555  0.38076  1.0000
  O   O3        1.0  0.20252  0.37988  0.68904  1.0000
  O   O4        1.0  0.70253  0.62013  0.31096  1.0000
  O   O5        1.0  0.59543  0.45155  0.59467  1.0000
  O   O6        1.0  0.09544  0.54843  0.40531  1.0000
