data_image0
_chemical_formula_structural       Cd2H24C28S4N16
_chemical_formula_sum              "Cd2 H24 C28 S4 N16"
_cell_length_a       8.0447
_cell_length_b       9.40952
_cell_length_c       12.2316
_cell_angle_alpha    112.629
_cell_angle_beta     98.3761
_cell_angle_gamma    90.0324

_space_group_name_H-M_alt    "P 1"
_space_group_IT_number       1

loop_
  _space_group_symop_operation_xyz
  'x, y, z'

loop_
  _atom_site_type_symbol
  _atom_site_label
  _atom_site_symmetry_multiplicity
  _atom_site_fract_x
  _atom_site_fract_y
  _atom_site_fract_z
  _atom_site_occupancy
  Cd  Cd1       1.0  1.00000  1.00000  0.50000  1.0000
  Cd  Cd2       1.0  0.50000  0.50000  0.50000  1.0000
  H   H1        1.0  0.88397  0.18044  0.30292  1.0000
  H   H2        1.0  0.61607  0.87720  0.69712  1.0000
  H   H3        1.0  0.11604  0.81956  0.69708  1.0000
  H   H4        1.0  0.38393  0.12280  0.30287  1.0000
  H   H5        1.0  0.64117  0.77841  0.29083  1.0000
  H   H6        1.0  0.85910  0.48729  0.70845  1.0000
  H   H7        1.0  0.35882  0.22160  0.70917  1.0000
  H   H8        1.0  0.14089  0.51270  0.29155  1.0000
  H   H9        1.0  0.44496  0.87589  0.02072  1.0000
  H   H10       1.0  0.05478  0.85506  0.97915  1.0000
  H   H11       1.0  0.55504  0.12411  0.97927  1.0000
  H   H12       1.0  0.94521  0.14494  0.02085  1.0000
  H   H13       1.0  0.33926  0.85728  0.13370  1.0000
  H   H14       1.0  0.16060  0.72357  0.86623  1.0000
  H   H15       1.0  0.66074  0.14272  0.86630  1.0000
  H   H16       1.0  0.83940  0.27644  0.13377  1.0000
  H   H17       1.0  0.37181  0.62345  0.18463  1.0000
  H   H18       1.0  0.12786  0.43872  0.81520  1.0000
  H   H19       1.0  0.62819  0.37655  0.81536  1.0000
  H   H20       1.0  0.87216  0.56128  0.18480  1.0000
  H   H21       1.0  0.57615  0.65550  0.88798  1.0000
  H   H22       1.0  0.92402  0.76754  0.11199  1.0000
  H   H23       1.0  0.42384  0.34450  0.11201  1.0000
  H   H24       1.0  0.07598  0.23246  0.88800  1.0000
  C   C1        1.0  0.79842  0.07921  0.27371  1.0000
  C   C2        1.0  0.70156  0.80514  0.72621  1.0000
  C   C3        1.0  0.20158  0.92079  0.72629  1.0000
  C   C4        1.0  0.29843  0.19486  0.27379  1.0000
  C   C5        1.0  0.67729  0.87610  0.27125  1.0000
  C   C6        1.0  0.82289  0.60454  0.72827  1.0000
  C   C7        1.0  0.32270  0.12390  0.72875  1.0000
  C   C8        1.0  0.17711  0.39546  0.27174  1.0000
  C   C9        1.0  0.45248  0.82926  0.09070  1.0000
  C   C10       1.0  0.04730  0.73842  0.90916  1.0000
  C   C11       1.0  0.54752  0.17075  0.90930  1.0000
  C   C12       1.0  0.95269  0.26158  0.09084  1.0000
  C   C13       1.0  0.47273  0.65793  0.04188  1.0000
  C   C14       1.0  0.02709  0.61593  0.95798  1.0000
  C   C15       1.0  0.52726  0.34208  0.95812  1.0000
  C   C16       1.0  0.97292  0.38407  0.04202  1.0000
  C   C17       1.0  0.42938  0.56936  0.10414  1.0000
  C   C18       1.0  0.07044  0.46513  0.89576  1.0000
  C   C19       1.0  0.57061  0.43064  0.89586  1.0000
  C   C20       1.0  0.92957  0.53487  0.10424  1.0000
  C   C21       1.0  0.54298  0.58729  0.93722  1.0000
  C   C22       1.0  0.95709  0.65008  0.06278  1.0000
  C   C23       1.0  0.45701  0.41271  0.06278  1.0000
  C   C24       1.0  0.04292  0.34991  0.93723  1.0000
  C   C25       1.0  0.65514  0.20770  0.57240  1.0000
  C   C26       1.0  0.84467  0.63545  0.42755  1.0000
  C   C27       1.0  0.34487  0.79230  0.42760  1.0000
  C   C28       1.0  0.15533  0.36454  0.57245  1.0000
  S   S1        1.0  0.76240  0.11900  0.64800  1.0000
  S   S2        1.0  0.73715  0.47121  0.35185  1.0000
  S   S3        1.0  0.23761  0.88100  0.35200  1.0000
  S   S4        1.0  0.26285  0.52879  0.64816  1.0000
  N   N1        1.0  0.59884  0.91134  0.18074  1.0000
  N   N2        1.0  0.90108  0.73029  0.81904  1.0000
  N   N3        1.0  0.40116  0.08866  0.81926  1.0000
  N   N4        1.0  0.09892  0.26971  0.18096  1.0000
  N   N5        1.0  0.67444  0.04128  0.18084  1.0000
  N   N6        1.0  0.82535  0.86009  0.81921  1.0000
  N   N7        1.0  0.32557  0.95871  0.81916  1.0000
  N   N8        1.0  0.17465  0.13990  0.18079  1.0000
  N   N9        1.0  0.80524  0.98022  0.33125  1.0000
  N   N10       1.0  0.69499  0.64867  0.66836  1.0000
  N   N11       1.0  0.19475  0.01978  0.66875  1.0000
  N   N12       1.0  0.30501  0.35133  0.33164  1.0000
  N   N13       1.0  0.57539  0.27238  0.51853  1.0000
  N   N14       1.0  0.92471  0.75394  0.48146  1.0000
  N   N15       1.0  0.42463  0.72763  0.48147  1.0000
  N   N16       1.0  0.07530  0.24606  0.51855  1.0000
