data_image0
_chemical_formula_structural       ZnH24C22N4O4
_chemical_formula_sum              "Zn1 H24 C22 N4 O4"
_cell_length_a       5.96339
_cell_length_b       8.95634
_cell_length_c       10.6666
_cell_angle_alpha    88.5416
_cell_angle_beta     72.6324
_cell_angle_gamma    90.6523

_space_group_name_H-M_alt    "P 1"
_space_group_IT_number       1

loop_
  _space_group_symop_operation_xyz
  'x, y, z'

loop_
  _atom_site_type_symbol
  _atom_site_label
  _atom_site_symmetry_multiplicity
  _atom_site_fract_x
  _atom_site_fract_y
  _atom_site_fract_z
  _atom_site_occupancy
  Zn  Zn1       1.0  0.50002  0.50000  0.50000  1.0000
  H   H1        1.0  0.70721  0.18912  0.71125  1.0000
  H   H2        1.0  0.29280  0.81090  0.28872  1.0000
  H   H3        1.0  0.99973  0.34427  0.54413  1.0000
  H   H4        1.0  0.00033  0.65573  0.45585  1.0000
  H   H5        1.0  0.40869  0.40910  0.79171  1.0000
  H   H6        1.0  0.59132  0.59087  0.20829  1.0000
  H   H7        1.0  0.13135  0.25454  0.97231  1.0000
  H   H8        1.0  0.86863  0.74545  0.02769  1.0000
  H   H9        1.0  0.78290  0.10044  0.05366  1.0000
  H   H10       1.0  0.21706  0.89958  0.94633  1.0000
  H   H11       1.0  0.25936  0.99553  0.51181  1.0000
  H   H12       1.0  0.74062  0.00447  0.48821  1.0000
  H   H13       1.0  0.26312  0.03020  0.67523  1.0000
  H   H14       1.0  0.73685  0.96978  0.32479  1.0000
  H   H15       1.0  0.03389  0.91878  0.64583  1.0000
  H   H16       1.0  0.96610  0.08120  0.35418  1.0000
  H   H17       1.0  0.51583  0.89097  0.74960  1.0000
  H   H18       1.0  0.48417  0.10904  0.25041  1.0000
  H   H19       1.0  0.70688  0.58404  0.87815  1.0000
  H   H20       1.0  0.29309  0.41594  0.12185  1.0000
  H   H21       1.0  0.75467  0.78202  0.85532  1.0000
  H   H22       1.0  0.24531  0.21797  0.14470  1.0000
  H   H23       1.0  0.96232  0.65453  0.75870  1.0000
  H   H24       1.0  0.03767  0.34547  0.24132  1.0000
  C   C1        1.0  0.89519  0.20775  0.85688  1.0000
  C   C2        1.0  0.10481  0.79227  0.14310  1.0000
  C   C3        1.0  0.85950  0.23522  0.73423  1.0000
  C   C4        1.0  0.14051  0.76479  0.26575  1.0000
  C   C5        1.0  0.02384  0.32241  0.63996  1.0000
  C   C6        1.0  0.97620  0.67759  0.36002  1.0000
  C   C7        1.0  0.24988  0.35844  0.77938  1.0000
  C   C8        1.0  0.75014  0.64155  0.22062  1.0000
  C   C9        1.0  0.09528  0.27267  0.87895  1.0000
  C   C10       1.0  0.90474  0.72733  0.12104  1.0000
  C   C11       1.0  0.74068  0.11277  0.96038  1.0000
  C   C12       1.0  0.25929  0.88724  0.03962  1.0000
  C   C13       1.0  0.22298  0.94644  0.61155  1.0000
  C   C14       1.0  0.77701  0.05356  0.38847  1.0000
  C   C15       1.0  0.36166  0.80575  0.60781  1.0000
  C   C16       1.0  0.63833  0.19425  0.39220  1.0000
  C   C17       1.0  0.50996  0.79538  0.68932  1.0000
  C   C18       1.0  0.49005  0.20461  0.31069  1.0000
  C   C19       1.0  0.64577  0.67190  0.70294  1.0000
  C   C20       1.0  0.35424  0.32809  0.29707  1.0000
  C   C21       1.0  0.77507  0.67553  0.80520  1.0000
  C   C22       1.0  0.22491  0.32446  0.19482  1.0000
  N   N1        1.0  0.21681  0.38252  0.66118  1.0000
  N   N2        1.0  0.78322  0.61747  0.33881  1.0000
  N   N3        1.0  0.55970  0.04308  0.94469  1.0000
  N   N4        1.0  0.44027  0.95692  0.05529  1.0000
  O   O1        1.0  0.66930  0.55231  0.63747  1.0000
  O   O2        1.0  0.33072  0.44770  0.36253  1.0000
  O   O3        1.0  0.32988  0.70523  0.53166  1.0000
  O   O4        1.0  0.67013  0.29477  0.46835  1.0000
