data_image0
_chemical_formula_structural       ZnH24C22N4O4
_chemical_formula_sum              "Zn1 H24 C22 N4 O4"
_cell_length_a       6.82375
_cell_length_b       8.3815
_cell_length_c       9.85336
_cell_angle_alpha    81.7628
_cell_angle_beta     74.1157
_cell_angle_gamma    75.3413

_space_group_name_H-M_alt    "P 1"
_space_group_IT_number       1

loop_
  _space_group_symop_operation_xyz
  'x, y, z'

loop_
  _atom_site_type_symbol
  _atom_site_label
  _atom_site_symmetry_multiplicity
  _atom_site_fract_x
  _atom_site_fract_y
  _atom_site_fract_z
  _atom_site_occupancy
  Zn  Zn1       1.0  0.50000  0.50000  0.50000  1.0000
  H   H1        1.0  0.96981  0.52380  0.35680  1.0000
  H   H2        1.0  0.03020  0.47620  0.64319  1.0000
  H   H3        1.0  0.59377  0.25104  0.27652  1.0000
  H   H4        1.0  0.40623  0.74896  0.72348  1.0000
  H   H5        1.0  0.86084  0.15246  0.05554  1.0000
  H   H6        1.0  0.13917  0.84754  0.94446  1.0000
  H   H7        1.0  0.19121  0.25943  0.97948  1.0000
  H   H8        1.0  0.80879  0.74057  0.02052  1.0000
  H   H9        1.0  0.29986  0.55059  0.20669  1.0000
  H   H10       1.0  0.70014  0.44940  0.79331  1.0000
  H   H11       1.0  0.42236  0.81662  0.08627  1.0000
  H   H12       1.0  0.57764  0.18338  0.91373  1.0000
  H   H13       1.0  0.41838  0.01346  0.14007  1.0000
  H   H14       1.0  0.58163  0.98654  0.85993  1.0000
  H   H15       1.0  0.19722  0.92144  0.20628  1.0000
  H   H16       1.0  0.80278  0.07856  0.79372  1.0000
  H   H17       1.0  0.65927  0.96461  0.27363  1.0000
  H   H18       1.0  0.34073  0.03539  0.72638  1.0000
  H   H19       1.0  0.82189  0.88612  0.59076  1.0000
  H   H20       1.0  0.17810  0.11389  0.40924  1.0000
  H   H21       1.0  0.85438  0.99534  0.41953  1.0000
  H   H22       1.0  0.14560  0.00466  0.58047  1.0000
  H   H23       1.0  0.01610  0.79517  0.44630  1.0000
  H   H24       1.0  0.98390  0.20484  0.55370  1.0000
  C   C1        1.0  0.10618  0.40023  0.16311  1.0000
  C   C2        1.0  0.89382  0.59977  0.83689  1.0000
  C   C3        1.0  0.94935  0.44381  0.28624  1.0000
  C   C4        1.0  0.05066  0.55619  0.71376  1.0000
  C   C5        1.0  0.74267  0.28854  0.24180  1.0000
  C   C6        1.0  0.25733  0.71146  0.75820  1.0000
  C   C7        1.0  0.89204  0.23502  0.11914  1.0000
  C   C8        1.0  0.10797  0.76498  0.88086  1.0000
  C   C9        1.0  0.07464  0.29316  0.07750  1.0000
  C   C10       1.0  0.92537  0.70684  0.92249  1.0000
  C   C11       1.0  0.28638  0.47471  0.12876  1.0000
  C   C12       1.0  0.71362  0.52530  0.87123  1.0000
  C   C13       1.0  0.36879  0.89653  0.17494  1.0000
  C   C14       1.0  0.63121  0.10347  0.82506  1.0000
  C   C15       1.0  0.45634  0.80138  0.29557  1.0000
  C   C16       1.0  0.54366  0.19861  0.70443  1.0000
  C   C17       1.0  0.61234  0.85515  0.33370  1.0000
  C   C18       1.0  0.38765  0.14485  0.66630  1.0000
  C   C19       1.0  0.70312  0.78956  0.44809  1.0000
  C   C20       1.0  0.29688  0.21044  0.55191  1.0000
  C   C21       1.0  0.85702  0.87314  0.47682  1.0000
  C   C22       1.0  0.14297  0.12687  0.52318  1.0000
  N   N1        1.0  0.77000  0.39231  0.32360  1.0000
  N   N2        1.0  0.23000  0.60769  0.67639  1.0000
  N   N3        1.0  0.42300  0.45622  0.00797  1.0000
  N   N4        1.0  0.57700  0.54378  0.99202  1.0000
  O   O1        1.0  0.66817  0.66171  0.53108  1.0000
  O   O2        1.0  0.33183  0.33829  0.46892  1.0000
  O   O3        1.0  0.37948  0.67686  0.35433  1.0000
  O   O4        1.0  0.62052  0.32314  0.64567  1.0000
