data_image0
_chemical_formula_structural       K2Zn3H26C18N2O28
_chemical_formula_sum              "K2 Zn3 H26 C18 N2 O28"
_cell_length_a       8.17814
_cell_length_b       9.84007
_cell_length_c       10.6567
_cell_angle_alpha    104.989
_cell_angle_beta     94.2575
_cell_angle_gamma    102.286

_space_group_name_H-M_alt    "P 1"
_space_group_IT_number       1

loop_
  _space_group_symop_operation_xyz
  'x, y, z'

loop_
  _atom_site_type_symbol
  _atom_site_label
  _atom_site_symmetry_multiplicity
  _atom_site_fract_x
  _atom_site_fract_y
  _atom_site_fract_z
  _atom_site_occupancy
  K   K1        1.0  0.09303  0.19760  0.97125  1.0000
  K   K2        1.0  0.90698  0.80240  0.02875  1.0000
  Zn  Zn1       1.0  0.86692  0.71474  0.64943  1.0000
  Zn  Zn2       1.0  0.13308  0.28525  0.35057  1.0000
  Zn  Zn3       1.0  0.50000  0.50000  0.00000  1.0000
  H   H1        1.0  0.79548  0.43886  0.96226  1.0000
  H   H2        1.0  0.20452  0.56114  0.03774  1.0000
  H   H3        1.0  0.79663  0.50776  0.11626  1.0000
  H   H4        1.0  0.20337  0.49224  0.88374  1.0000
  H   H5        1.0  0.51382  0.77984  0.12395  1.0000
  H   H6        1.0  0.48618  0.22016  0.87605  1.0000
  H   H7        1.0  0.49229  0.76404  0.97138  1.0000
  H   H8        1.0  0.50771  0.23596  0.02862  1.0000
  H   H9        1.0  0.72274  0.06230  0.99379  1.0000
  H   H10       1.0  0.27726  0.93769  0.00621  1.0000
  H   H11       1.0  0.72468  0.97169  0.84675  1.0000
  H   H12       1.0  0.27533  0.02831  0.15325  1.0000
  H   H13       1.0  0.57884  0.10174  0.37637  1.0000
  H   H14       1.0  0.42116  0.89826  0.62363  1.0000
  H   H15       1.0  0.90585  0.98019  0.67035  1.0000
  H   H16       1.0  0.09415  0.01981  0.32965  1.0000
  H   H17       1.0  0.73549  0.89304  0.57030  1.0000
  H   H18       1.0  0.26451  0.10696  0.42970  1.0000
  H   H19       1.0  0.03819  0.18082  0.64340  1.0000
  H   H20       1.0  0.96181  0.81918  0.35660  1.0000
  H   H21       1.0  0.16815  0.08940  0.65436  1.0000
  H   H22       1.0  0.83185  0.91060  0.34563  1.0000
  H   H23       1.0  0.75578  0.25922  0.79933  1.0000
  H   H24       1.0  0.24423  0.74078  0.20067  1.0000
  H   H25       1.0  0.93054  0.37511  0.80737  1.0000
  H   H26       1.0  0.06946  0.62489  0.19263  1.0000
  C   C1        1.0  0.89554  0.56169  0.37158  1.0000
  C   C2        1.0  0.10447  0.43831  0.62843  1.0000
  C   C3        1.0  0.78427  0.45241  0.42428  1.0000
  C   C4        1.0  0.21573  0.54759  0.57572  1.0000
  C   C5        1.0  0.72533  0.30431  0.35938  1.0000
  C   C6        1.0  0.27467  0.69569  0.64062  1.0000
  C   C7        1.0  0.77188  0.23147  0.22827  1.0000
  C   C8        1.0  0.22812  0.76853  0.77173  1.0000
  C   C9        1.0  0.62528  0.21764  0.42401  1.0000
  C   C10       1.0  0.37472  0.78236  0.57599  1.0000
  C   C11       1.0  0.58901  0.27660  0.55033  1.0000
  C   C12       1.0  0.41099  0.72340  0.44967  1.0000
  C   C13       1.0  0.49288  0.17610  0.62072  1.0000
  C   C14       1.0  0.50712  0.82390  0.37928  1.0000
  C   C15       1.0  0.65030  0.42664  0.60713  1.0000
  C   C16       1.0  0.34970  0.57336  0.39287  1.0000
  C   C17       1.0  0.62017  0.51374  0.73945  1.0000
  C   C18       1.0  0.37983  0.48626  0.26055  1.0000
  N   N1        1.0  0.74517  0.50762  0.54350  1.0000
  N   N2        1.0  0.25483  0.49238  0.45650  1.0000
  O   O1        1.0  0.95193  0.68920  0.44888  1.0000
  O   O2        1.0  0.04807  0.31080  0.55113  1.0000
  O   O3        1.0  0.92671  0.51857  0.25564  1.0000
  O   O4        1.0  0.07329  0.48144  0.74437  1.0000
  O   O5        1.0  0.92076  0.20870  0.22661  1.0000
  O   O6        1.0  0.07924  0.79130  0.77339  1.0000
  O   O7        1.0  0.65956  0.18640  0.13058  1.0000
  O   O8        1.0  0.34043  0.81360  0.86942  1.0000
  O   O9        1.0  0.34372  0.10669  0.56763  1.0000
  O   O10       1.0  0.65628  0.89330  0.43237  1.0000
  O   O11       1.0  0.56722  0.16008  0.72219  1.0000
  O   O12       1.0  0.43278  0.83992  0.27781  1.0000
  O   O13       1.0  0.50368  0.45350  0.79284  1.0000
  O   O14       1.0  0.49632  0.54649  0.20716  1.0000
  O   O15       1.0  0.71376  0.64129  0.78416  1.0000
  O   O16       1.0  0.28624  0.35871  0.21584  1.0000
  O   O17       1.0  0.80015  0.89812  0.65725  1.0000
  O   O18       1.0  0.19985  0.10188  0.34275  1.0000
  O   O19       1.0  0.75606  0.51597  0.02949  1.0000
  O   O20       1.0  0.24394  0.48403  0.97051  1.0000
  O   O21       1.0  0.55262  0.73571  0.04064  1.0000
  O   O22       1.0  0.44738  0.26429  0.95936  1.0000
  O   O23       1.0  0.06436  0.11051  0.68921  1.0000
  O   O24       1.0  0.93564  0.88949  0.31079  1.0000
  O   O25       1.0  0.85727  0.32433  0.86003  1.0000
  O   O26       1.0  0.14274  0.67567  0.13997  1.0000
  O   O27       1.0  0.78398  0.00116  0.93593  1.0000
  O   O28       1.0  0.21602  0.99884  0.06407  1.0000
