data_image0
_chemical_formula_structural       Yb2H22C18N2O18
_chemical_formula_sum              "Yb2 H22 C18 N2 O18"
_cell_length_a       7.29503
_cell_length_b       9.36698
_cell_length_c       11.3326
_cell_angle_alpha    73.0775
_cell_angle_beta     71.1965
_cell_angle_gamma    71.965

_space_group_name_H-M_alt    "P 1"
_space_group_IT_number       1

loop_
  _space_group_symop_operation_xyz
  'x, y, z'

loop_
  _atom_site_type_symbol
  _atom_site_label
  _atom_site_symmetry_multiplicity
  _atom_site_fract_x
  _atom_site_fract_y
  _atom_site_fract_z
  _atom_site_occupancy
  Yb  Yb1       1.0  0.89842  0.45208  0.27744  1.0000
  Yb  Yb2       1.0  0.10159  0.54792  0.72256  1.0000
  H   H1        1.0  0.32383  0.39562  0.12915  1.0000
  H   H2        1.0  0.67617  0.60438  0.87084  1.0000
  H   H3        1.0  0.18649  0.38206  0.04549  1.0000
  H   H4        1.0  0.81351  0.61794  0.95451  1.0000
  H   H5        1.0  0.08360  0.13640  0.41937  1.0000
  H   H6        1.0  0.91638  0.86360  0.58063  1.0000
  H   H7        1.0  0.96138  0.13809  0.32639  1.0000
  H   H8        1.0  0.03862  0.86191  0.67361  1.0000
  H   H9        1.0  0.52642  0.48857  0.25009  1.0000
  H   H10       1.0  0.47358  0.51143  0.74991  1.0000
  H   H11       1.0  0.45085  0.51169  0.39549  1.0000
  H   H12       1.0  0.54915  0.48831  0.60451  1.0000
  H   H13       1.0  0.58725  0.24575  0.74077  1.0000
  H   H14       1.0  0.41275  0.75426  0.25923  1.0000
  H   H15       1.0  0.60241  0.05885  0.75452  1.0000
  H   H16       1.0  0.39759  0.94115  0.24548  1.0000
  H   H17       1.0  0.81946  0.98720  0.22128  1.0000
  H   H18       1.0  0.18054  0.01280  0.77872  1.0000
  H   H19       1.0  0.76068  0.85398  0.90517  1.0000
  H   H20       1.0  0.23932  0.14603  0.09483  1.0000
  H   H21       1.0  0.61961  0.33377  0.91268  1.0000
  H   H22       1.0  0.38039  0.66623  0.08733  1.0000
  C   C1        1.0  0.84255  0.74183  0.13671  1.0000
  C   C2        1.0  0.15744  0.25817  0.86329  1.0000
  C   C3        1.0  0.79185  0.90490  0.07023  1.0000
  C   C4        1.0  0.20815  0.09510  0.92977  1.0000
  C   C5        1.0  0.78121  0.01954  0.13030  1.0000
  C   C6        1.0  0.21880  0.98045  0.86970  1.0000
  C   C7        1.0  0.74986  0.94412  0.95151  1.0000
  C   C8        1.0  0.25014  0.05589  0.04849  1.0000
  C   C9        1.0  0.69331  0.09858  0.89069  1.0000
  C   C10       1.0  0.30668  0.90142  0.10932  1.0000
  C   C11       1.0  0.67183  0.21309  0.95454  1.0000
  C   C12       1.0  0.32817  0.78691  0.04546  1.0000
  C   C13       1.0  0.71720  0.17326  0.07270  1.0000
  C   C14       1.0  0.28280  0.82673  0.92730  1.0000
  C   C15       1.0  0.69281  0.29712  0.13860  1.0000
  C   C16       1.0  0.30719  0.70288  0.86140  1.0000
  C   C17       1.0  0.11080  0.48356  0.46380  1.0000
  C   C18       1.0  0.88919  0.51644  0.53620  1.0000
  N   N1        1.0  0.66135  0.13493  0.76982  1.0000
  N   N2        1.0  0.33864  0.86507  0.23017  1.0000
  O   O1        1.0  0.88659  0.70725  0.24377  1.0000
  O   O2        1.0  0.11341  0.29275  0.75623  1.0000
  O   O3        1.0  0.83722  0.63227  0.09122  1.0000
  O   O4        1.0  0.16278  0.36773  0.90878  1.0000
  O   O5        1.0  0.53921  0.40857  0.13915  1.0000
  O   O6        1.0  0.46079  0.59143  0.86085  1.0000
  O   O7        1.0  0.82734  0.28540  0.19325  1.0000
  O   O8        1.0  0.17266  0.71460  0.80675  1.0000
  O   O9        1.0  0.18731  0.39042  0.13139  1.0000
  O   O10       1.0  0.81269  0.60958  0.86861  1.0000
  O   O11       1.0  0.96080  0.18635  0.39269  1.0000
  O   O12       1.0  0.03920  0.81366  0.60730  1.0000
  O   O13       1.0  0.15701  0.43401  0.36348  1.0000
  O   O14       1.0  0.84299  0.56599  0.63651  1.0000
  O   O15       1.0  0.22921  0.50981  0.51215  1.0000
  O   O16       1.0  0.77078  0.49019  0.48785  1.0000
  O   O17       1.0  0.55680  0.52746  0.31486  1.0000
  O   O18       1.0  0.44321  0.47253  0.68513  1.0000
