data_image0
_chemical_formula_structural       Tb4H32C40N4O36
_chemical_formula_sum              "Tb4 H32 C40 N4 O36"
_cell_length_a       9.45222
_cell_length_b       11.0404
_cell_length_c       13.3901
_cell_angle_alpha    65.9669
_cell_angle_beta     69.3278
_cell_angle_gamma    64.6656

_space_group_name_H-M_alt    "P 1"
_space_group_IT_number       1

loop_
  _space_group_symop_operation_xyz
  'x, y, z'

loop_
  _atom_site_type_symbol
  _atom_site_label
  _atom_site_symmetry_multiplicity
  _atom_site_fract_x
  _atom_site_fract_y
  _atom_site_fract_z
  _atom_site_occupancy
  Tb  Tb1       1.0  0.06667  0.92547  0.81273  1.0000
  Tb  Tb2       1.0  0.80485  0.57454  0.68728  1.0000
  Tb  Tb3       1.0  0.93332  0.07453  0.18727  1.0000
  Tb  Tb4       1.0  0.19515  0.42546  0.31272  1.0000
  H   H1        1.0  0.48194  0.00558  0.85062  1.0000
  H   H2        1.0  0.33805  0.49440  0.64942  1.0000
  H   H3        1.0  0.51806  0.99442  0.14939  1.0000
  H   H4        1.0  0.66195  0.50560  0.35057  1.0000
  H   H5        1.0  0.59290  0.30342  0.91623  1.0000
  H   H6        1.0  0.81233  0.19662  0.58375  1.0000
  H   H7        1.0  0.40710  0.69658  0.08377  1.0000
  H   H8        1.0  0.18767  0.80338  0.41626  1.0000
  H   H9        1.0  0.10229  0.35002  0.95800  1.0000
  H   H10       1.0  0.41009  0.14998  0.54198  1.0000
  H   H11       1.0  0.89771  0.64998  0.04200  1.0000
  H   H12       1.0  0.58991  0.85001  0.45802  1.0000
  H   H13       1.0  0.37838  0.49588  0.96576  1.0000
  H   H14       1.0  0.83986  0.00424  0.53420  1.0000
  H   H15       1.0  0.62162  0.50412  0.03424  1.0000
  H   H16       1.0  0.16014  0.99576  0.46580  1.0000
  H   H17       1.0  0.21515  0.45144  0.04830  1.0000
  H   H18       1.0  0.71484  0.04852  0.45167  1.0000
  H   H19       1.0  0.78485  0.54857  0.95170  1.0000
  H   H20       1.0  0.28516  0.95148  0.54833  1.0000
  H   H21       1.0  0.21201  0.55416  0.91564  1.0000
  H   H22       1.0  0.68171  0.94582  0.58435  1.0000
  H   H23       1.0  0.78799  0.44584  0.08436  1.0000
  H   H24       1.0  0.31829  0.05418  0.41565  1.0000
  H   H25       1.0  0.11527  0.17859  0.59518  1.0000
  H   H26       1.0  0.88896  0.32144  0.90478  1.0000
  H   H27       1.0  0.88473  0.82141  0.40482  1.0000
  H   H28       1.0  0.11104  0.67857  0.09522  1.0000
  H   H29       1.0  0.94190  0.22144  0.66113  1.0000
  H   H30       1.0  0.82447  0.27847  0.83885  1.0000
  H   H31       1.0  0.05810  0.77856  0.33886  1.0000
  H   H32       1.0  0.17553  0.72153  0.16115  1.0000
  C   C1        1.0  0.43773  0.72228  0.82589  1.0000
  C   C2        1.0  0.98599  0.77775  0.67412  1.0000
  C   C3        1.0  0.56227  0.27772  0.17411  1.0000
  C   C4        1.0  0.01401  0.22225  0.32588  1.0000
  C   C5        1.0  0.73029  0.06939  0.85079  1.0000
  C   C6        1.0  0.65050  0.43048  0.64926  1.0000
  C   C7        1.0  0.26971  0.93060  0.14921  1.0000
  C   C8        1.0  0.34950  0.56952  0.35074  1.0000
  C   C9        1.0  0.55538  0.14768  0.87788  1.0000
  C   C10       1.0  0.58081  0.35230  0.62217  1.0000
  C   C11       1.0  0.44462  0.85232  0.12212  1.0000
  C   C12       1.0  0.41919  0.64770  0.37783  1.0000
  C   C13       1.0  0.44209  0.10072  0.87378  1.0000
  C   C14       1.0  0.41650  0.39927  0.62626  1.0000
  C   C15       1.0  0.55791  0.89928  0.12622  1.0000
  C   C16       1.0  0.58350  0.60073  0.37374  1.0000
  C   C17       1.0  0.34329  0.34204  0.93381  1.0000
  C   C18       1.0  0.61896  0.15797  0.56614  1.0000
  C   C19       1.0  0.65670  0.65796  0.06620  1.0000
  C   C20       1.0  0.38104  0.84203  0.43386  1.0000
  C   C21       1.0  0.50576  0.26834  0.90981  1.0000
  C   C22       1.0  0.68370  0.23167  0.59018  1.0000
  C   C23       1.0  0.49423  0.73166  0.09019  1.0000
  C   C24       1.0  0.31630  0.76833  0.40982  1.0000
  C   C25       1.0  0.22941  0.29512  0.93286  1.0000
  C   C26       1.0  0.45721  0.20489  0.56711  1.0000
  C   C27       1.0  0.77059  0.70487  0.06715  1.0000
  C   C28       1.0  0.54279  0.79511  0.43289  1.0000
  C   C29       1.0  0.27873  0.17245  0.90442  1.0000
  C   C30       1.0  0.35550  0.32756  0.59557  1.0000
  C   C31       1.0  0.72127  0.82755  0.09558  1.0000
  C   C32       1.0  0.64450  0.67244  0.40443  1.0000
  C   C33       1.0  0.45453  0.82410  0.70570  1.0000
  C   C34       1.0  0.98428  0.67592  0.79433  1.0000
  C   C35       1.0  0.54546  0.17590  0.29430  1.0000
  C   C36       1.0  0.01572  0.32408  0.20567  1.0000
  C   C37       1.0  0.15225  0.11637  0.91661  1.0000
  C   C38       1.0  0.18517  0.38368  0.58333  1.0000
  C   C39       1.0  0.84775  0.88363  0.08339  1.0000
  C   C40       1.0  0.81483  0.61632  0.41667  1.0000
  N   N1        1.0  0.28666  0.46853  0.96644  1.0000
  N   N2        1.0  0.72149  0.03150  0.53353  1.0000
  N   N3        1.0  0.71334  0.53147  0.03356  1.0000
  N   N4        1.0  0.27851  0.96850  0.46647  1.0000
  O   O1        1.0  0.03870  0.13628  0.65545  1.0000
  O   O2        1.0  0.83039  0.36367  0.84452  1.0000
  O   O3        1.0  0.96130  0.86372  0.34455  1.0000
  O   O4        1.0  0.16961  0.63633  0.15548  1.0000
  O   O5        1.0  0.82956  0.11792  0.85463  1.0000
  O   O6        1.0  0.80215  0.38200  0.64530  1.0000
  O   O7        1.0  0.17044  0.88208  0.14537  1.0000
  O   O8        1.0  0.19785  0.61800  0.35470  1.0000
  O   O9        1.0  0.29744  0.74398  0.88677  1.0000
  O   O10       1.0  0.92823  0.75613  0.61323  1.0000
  O   O11       1.0  0.70256  0.25601  0.11322  1.0000
  O   O12       1.0  0.07177  0.24388  0.38677  1.0000
  O   O13       1.0  0.78227  0.95607  0.82613  1.0000
  O   O14       1.0  0.56454  0.54377  0.67399  1.0000
  O   O15       1.0  0.21773  0.04393  0.17387  1.0000
  O   O16       1.0  0.43546  0.45623  0.32601  1.0000
  O   O17       1.0  0.59569  0.81405  0.64777  1.0000
  O   O18       1.0  0.05737  0.68593  0.85233  1.0000
  O   O19       1.0  0.40431  0.18595  0.35223  1.0000
  O   O20       1.0  0.94263  0.31407  0.14767  1.0000
  O   O21       1.0  0.32489  0.90883  0.67444  1.0000
  O   O22       1.0  0.90794  0.59130  0.82554  1.0000
  O   O23       1.0  0.67511  0.09117  0.32555  1.0000
  O   O24       1.0  0.09206  0.40870  0.17446  1.0000
  O   O25       1.0  0.56400  0.62446  0.85238  1.0000
  O   O26       1.0  0.04101  0.87554  0.64764  1.0000
  O   O27       1.0  0.43601  0.37553  0.14762  1.0000
  O   O28       1.0  0.95899  0.12446  0.35236  1.0000
  O   O29       1.0  0.02284  0.14745  0.99008  1.0000
  O   O30       1.0  0.16033  0.35254  0.50988  1.0000
  O   O31       1.0  0.97716  0.85254  0.00992  1.0000
  O   O32       1.0  0.83967  0.64746  0.49012  1.0000
  O   O33       1.0  0.18090  0.04409  0.85482  1.0000
  O   O34       1.0  0.07974  0.45604  0.64505  1.0000
  O   O35       1.0  0.81910  0.95592  0.14518  1.0000
  O   O36       1.0  0.92026  0.54397  0.35495  1.0000
