data_image0
_chemical_formula_structural       Nd2H12C20N4O14
_chemical_formula_sum              "Nd2 H12 C20 N4 O14"
_cell_length_a       7.56012
_cell_length_b       9.01184
_cell_length_c       9.77233
_cell_angle_alpha    117.451
_cell_angle_beta     92.4186
_cell_angle_gamma    98.966

_space_group_name_H-M_alt    "P 1"
_space_group_IT_number       1

loop_
  _space_group_symop_operation_xyz
  'x, y, z'

loop_
  _atom_site_type_symbol
  _atom_site_label
  _atom_site_symmetry_multiplicity
  _atom_site_fract_x
  _atom_site_fract_y
  _atom_site_fract_z
  _atom_site_occupancy
  Nd  Nd1       1.0  0.12541  0.34620  0.32003  1.0000
  Nd  Nd2       1.0  0.87460  0.65380  0.67997  1.0000
  H   H1        1.0  0.72526  0.21205  0.00449  1.0000
  H   H2        1.0  0.27474  0.78796  0.99551  1.0000
  H   H3        1.0  0.53814  0.22072  0.21501  1.0000
  H   H4        1.0  0.46186  0.77928  0.78498  1.0000
  H   H5        1.0  0.66423  0.26210  0.73103  1.0000
  H   H6        1.0  0.33577  0.73790  0.26897  1.0000
  H   H7        1.0  0.08012  0.37715  0.94529  1.0000
  H   H8        1.0  0.91988  0.62284  0.05471  1.0000
  H   H9        1.0  0.82722  0.08073  0.36339  1.0000
  H   H10       1.0  0.17278  0.91928  0.63661  1.0000
  H   H11       1.0  0.75199  0.25412  0.43237  1.0000
  H   H12       1.0  0.24800  0.74588  0.56764  1.0000
  C   C1        1.0  0.49409  0.26426  0.90489  1.0000
  C   C2        1.0  0.50590  0.73574  0.09511  1.0000
  C   C3        1.0  0.33074  0.29803  0.96788  1.0000
  C   C4        1.0  0.66925  0.70196  0.03211  1.0000
  C   C5        1.0  0.49134  0.24022  0.11906  1.0000
  C   C6        1.0  0.50865  0.75978  0.88094  1.0000
  C   C7        1.0  0.53466  0.27992  0.77404  1.0000
  C   C8        1.0  0.46534  0.72008  0.22596  1.0000
  C   C9        1.0  0.20339  0.34464  0.89589  1.0000
  C   C10       1.0  0.79661  0.65536  0.10411  1.0000
  C   C11       1.0  0.46207  0.33056  0.55643  1.0000
  C   C12       1.0  0.53793  0.66944  0.44357  1.0000
  C   C13       1.0  0.10026  0.42697  0.70645  1.0000
  C   C14       1.0  0.89974  0.57303  0.29355  1.0000
  C   C15       1.0  0.40691  0.32653  0.70129  1.0000
  C   C16       1.0  0.59309  0.67346  0.29871  1.0000
  C   C17       1.0  0.23911  0.35796  0.76184  1.0000
  C   C18       1.0  0.76089  0.64204  0.23816  1.0000
  C   C19       1.0  0.94868  0.04541  0.96577  1.0000
  C   C20       1.0  0.05132  0.95459  0.03422  1.0000
  N   N1        1.0  0.33372  0.28274  0.10350  1.0000
  N   N2        1.0  0.66627  0.71726  0.89650  1.0000
  N   N3        1.0  0.59110  0.22663  0.00321  1.0000
  N   N4        1.0  0.40890  0.77337  0.99679  1.0000
  O   O1        1.0  0.13206  0.48339  0.60745  1.0000
  O   O2        1.0  0.86795  0.51661  0.39255  1.0000
  O   O3        1.0  0.95378  0.44161  0.76537  1.0000
  O   O4        1.0  0.04622  0.55839  0.23463  1.0000
  O   O5        1.0  0.62868  0.39027  0.55963  1.0000
  O   O6        1.0  0.37132  0.60974  0.44037  1.0000
  O   O7        1.0  0.92931  0.19505  0.06170  1.0000
  O   O8        1.0  0.07069  0.80495  0.93829  1.0000
  O   O9        1.0  0.34900  0.26258  0.43472  1.0000
  O   O10       1.0  0.65100  0.73742  0.56528  1.0000
  O   O11       1.0  0.89075  0.96761  0.82309  1.0000
  O   O12       1.0  0.10925  0.03238  0.17690  1.0000
  O   O13       1.0  0.83881  0.19045  0.36509  1.0000
  O   O14       1.0  0.16119  0.80956  0.63491  1.0000
