data_image0
_chemical_formula_structural       Gd2H8C20N4O12
_chemical_formula_sum              "Gd2 H8 C20 N4 O12"
_cell_length_a       7.27477
_cell_length_b       7.48301
_cell_length_c       9.54446
_cell_angle_alpha    92.4293
_cell_angle_beta     101.51
_cell_angle_gamma    98.0473

_space_group_name_H-M_alt    "P 1"
_space_group_IT_number       1

loop_
  _space_group_symop_operation_xyz
  'x, y, z'

loop_
  _atom_site_type_symbol
  _atom_site_label
  _atom_site_symmetry_multiplicity
  _atom_site_fract_x
  _atom_site_fract_y
  _atom_site_fract_z
  _atom_site_occupancy
  Gd  Gd1       1.0  0.63886  0.18909  0.91476  1.0000
  Gd  Gd2       1.0  0.36114  0.81091  0.08524  1.0000
  H   H1        1.0  0.82549  0.64215  0.90154  1.0000
  H   H2        1.0  0.17452  0.35785  0.09847  1.0000
  H   H3        1.0  0.62682  0.12434  0.52932  1.0000
  H   H4        1.0  0.37319  0.87567  0.47069  1.0000
  H   H5        1.0  0.79774  0.75027  0.37863  1.0000
  H   H6        1.0  0.20225  0.24972  0.62137  1.0000
  H   H7        1.0  0.86585  0.82990  0.69223  1.0000
  H   H8        1.0  0.13416  0.17010  0.30777  1.0000
  C   C1        1.0  0.80446  0.58851  0.79130  1.0000
  C   C2        1.0  0.19556  0.41150  0.20871  1.0000
  C   C3        1.0  0.77959  0.58070  0.55645  1.0000
  C   C4        1.0  0.22040  0.41931  0.44354  1.0000
  C   C5        1.0  0.73223  0.40467  0.60058  1.0000
  C   C6        1.0  0.26777  0.59533  0.39941  1.0000
  C   C7        1.0  0.67156  0.25906  0.49859  1.0000
  C   C8        1.0  0.32843  0.74093  0.50141  1.0000
  C   C9        1.0  0.65581  0.28927  0.35289  1.0000
  C   C10       1.0  0.34418  0.71074  0.64712  1.0000
  C   C11       1.0  0.70398  0.46783  0.31040  1.0000
  C   C12       1.0  0.29601  0.53218  0.68959  1.0000
  C   C13       1.0  0.76599  0.61437  0.41283  1.0000
  C   C14       1.0  0.23399  0.38563  0.58715  1.0000
  C   C15       1.0  0.69509  0.51814  0.15845  1.0000
  C   C16       1.0  0.30491  0.48186  0.84155  1.0000
  C   C17       1.0  0.56602  0.12781  0.25317  1.0000
  C   C18       1.0  0.43398  0.87218  0.74683  1.0000
  C   C19       1.0  0.01286  0.00025  0.92152  1.0000
  C   C20       1.0  0.98714  0.99975  0.07848  1.0000
  N   N1        1.0  0.74855  0.41458  0.74910  1.0000
  N   N2        1.0  0.25146  0.58542  0.25091  1.0000
  N   N3        1.0  0.82574  0.69267  0.68079  1.0000
  N   N4        1.0  0.17426  0.30733  0.31922  1.0000
  O   O1        1.0  0.88669  0.06033  0.83097  1.0000
  O   O2        1.0  0.11331  0.93967  0.16903  1.0000
  O   O3        1.0  0.61712  0.65483  0.12197  1.0000
  O   O4        1.0  0.38289  0.34517  0.87803  1.0000
  O   O5        1.0  0.77479  0.43099  0.07596  1.0000
  O   O6        1.0  0.22520  0.56902  0.92404  1.0000
  O   O7        1.0  0.49775  0.14124  0.11803  1.0000
  O   O8        1.0  0.50225  0.85875  0.88197  1.0000
  O   O9        1.0  0.54358  0.97353  0.30335  1.0000
  O   O10       1.0  0.45641  0.02646  0.69665  1.0000
  O   O11       1.0  0.84590  0.06337  0.10530  1.0000
  O   O12       1.0  0.15409  0.93662  0.89469  1.0000
