data_image0
_chemical_formula_structural       Sm2H12C20N4O14
_chemical_formula_sum              "Sm2 H12 C20 N4 O14"
_cell_length_a       7.52214
_cell_length_b       9.05506
_cell_length_c       9.72525
_cell_angle_alpha    118.238
_cell_angle_beta     92.27
_cell_angle_gamma    98.7377

_space_group_name_H-M_alt    "P 1"
_space_group_IT_number       1

loop_
  _space_group_symop_operation_xyz
  'x, y, z'

loop_
  _atom_site_type_symbol
  _atom_site_label
  _atom_site_symmetry_multiplicity
  _atom_site_fract_x
  _atom_site_fract_y
  _atom_site_fract_z
  _atom_site_occupancy
  Sm  Sm1       1.0  0.12607  0.34734  0.31863  1.0000
  Sm  Sm2       1.0  0.87393  0.65266  0.68137  1.0000
  H   H1        1.0  0.46202  0.77957  0.78754  1.0000
  H   H2        1.0  0.53798  0.22043  0.21247  1.0000
  H   H3        1.0  0.92259  0.62257  0.05597  1.0000
  H   H4        1.0  0.07740  0.37742  0.94403  1.0000
  H   H5        1.0  0.27445  0.78914  0.99964  1.0000
  H   H6        1.0  0.72555  0.21087  0.00036  1.0000
  H   H7        1.0  0.75597  0.25556  0.43000  1.0000
  H   H8        1.0  0.24403  0.74443  0.57000  1.0000
  H   H9        1.0  0.83500  0.08274  0.35833  1.0000
  H   H10       1.0  0.16499  0.91726  0.64167  1.0000
  H   H11       1.0  0.33480  0.73793  0.27308  1.0000
  H   H12       1.0  0.66521  0.26209  0.72693  1.0000
  C   C1        1.0  0.50908  0.76014  0.88369  1.0000
  C   C2        1.0  0.49092  0.23987  0.11632  1.0000
  C   C3        1.0  0.67081  0.70226  0.03449  1.0000
  C   C4        1.0  0.32919  0.29775  0.96551  1.0000
  C   C5        1.0  0.50663  0.73649  0.09876  1.0000
  C   C6        1.0  0.49338  0.26351  0.90124  1.0000
  C   C7        1.0  0.59323  0.67279  0.30164  1.0000
  C   C8        1.0  0.40677  0.32721  0.69836  1.0000
  C   C9        1.0  0.53619  0.66656  0.44594  1.0000
  C   C10       1.0  0.46381  0.33344  0.55406  1.0000
  C   C11       1.0  0.76201  0.64117  0.24021  1.0000
  C   C12       1.0  0.23798  0.35883  0.75979  1.0000
  C   C13       1.0  0.90153  0.57159  0.29447  1.0000
  C   C14       1.0  0.09846  0.42840  0.70553  1.0000
  C   C15       1.0  0.79847  0.65511  0.10598  1.0000
  C   C16       1.0  0.20153  0.34489  0.89402  1.0000
  C   C17       1.0  0.46534  0.72035  0.22972  1.0000
  C   C18       1.0  0.53466  0.27966  0.77028  1.0000
  C   C19       1.0  0.05165  0.95554  0.03473  1.0000
  C   C20       1.0  0.94835  0.04446  0.96527  1.0000
  N   N1        1.0  0.66767  0.71744  0.89828  1.0000
  N   N2        1.0  0.33233  0.28256  0.10172  1.0000
  N   N3        1.0  0.40913  0.77436  0.00081  1.0000
  N   N4        1.0  0.59087  0.22565  0.99919  1.0000
  O   O1        1.0  0.04784  0.55467  0.23339  1.0000
  O   O2        1.0  0.95215  0.44532  0.76661  1.0000
  O   O3        1.0  0.87113  0.51642  0.39432  1.0000
  O   O4        1.0  0.12886  0.48357  0.60568  1.0000
  O   O5        1.0  0.64873  0.73148  0.56900  1.0000
  O   O6        1.0  0.35126  0.26851  0.43100  1.0000
  O   O7        1.0  0.36829  0.60824  0.44120  1.0000
  O   O8        1.0  0.63171  0.39176  0.55879  1.0000
  O   O9        1.0  0.06894  0.80399  0.93851  1.0000
  O   O10       1.0  0.93107  0.19601  0.06149  1.0000
  O   O11       1.0  0.11243  0.03678  0.17851  1.0000
  O   O12       1.0  0.88757  0.96322  0.82149  1.0000
  O   O13       1.0  0.84364  0.19226  0.36115  1.0000
  O   O14       1.0  0.15636  0.80773  0.63885  1.0000
