data_image0
_chemical_formula_structural       Pr2H12C20N4O14
_chemical_formula_sum              "Pr2 H12 C20 N4 O14"
_cell_length_a       7.58494
_cell_length_b       8.91708
_cell_length_c       9.82106
_cell_angle_alpha    117.014
_cell_angle_beta     92.3358
_cell_angle_gamma    99.0696

_space_group_name_H-M_alt    "P 1"
_space_group_IT_number       1

loop_
  _space_group_symop_operation_xyz
  'x, y, z'

loop_
  _atom_site_type_symbol
  _atom_site_label
  _atom_site_symmetry_multiplicity
  _atom_site_fract_x
  _atom_site_fract_y
  _atom_site_fract_z
  _atom_site_occupancy
  Pr  Pr1       1.0  0.12635  0.84594  0.32070  1.0000
  Pr  Pr2       1.0  0.87366  0.15407  0.67930  1.0000
  H   H1        1.0  0.82376  0.57532  0.36343  1.0000
  H   H2        1.0  0.17625  0.42469  0.63657  1.0000
  H   H3        1.0  0.75032  0.75055  0.43231  1.0000
  H   H4        1.0  0.24969  0.24946  0.56769  1.0000
  H   H5        1.0  0.27452  0.28723  0.99413  1.0000
  H   H6        1.0  0.72548  0.71277  0.00586  1.0000
  H   H7        1.0  0.45934  0.27638  0.78365  1.0000
  H   H8        1.0  0.54067  0.72361  0.21634  1.0000
  H   H9        1.0  0.91901  0.12424  0.05574  1.0000
  H   H10       1.0  0.08099  0.87576  0.94427  1.0000
  H   H11       1.0  0.33708  0.24193  0.26912  1.0000
  H   H12       1.0  0.66291  0.75807  0.73088  1.0000
  C   C1        1.0  0.50708  0.25851  0.88002  1.0000
  C   C2        1.0  0.49292  0.74148  0.11997  1.0000
  C   C3        1.0  0.66845  0.20293  0.03198  1.0000
  C   C4        1.0  0.33154  0.79706  0.96802  1.0000
  C   C5        1.0  0.79596  0.15707  0.10433  1.0000
  C   C6        1.0  0.20404  0.84293  0.89566  1.0000
  C   C7        1.0  0.76105  0.14510  0.23862  1.0000
  C   C8        1.0  0.23895  0.85490  0.76139  1.0000
  C   C9        1.0  0.59413  0.17728  0.29912  1.0000
  C   C10       1.0  0.40587  0.82272  0.70088  1.0000
  C   C11       1.0  0.46606  0.22300  0.22599  1.0000
  C   C12       1.0  0.53393  0.77700  0.77401  1.0000
  C   C13       1.0  0.50574  0.23717  0.09475  1.0000
  C   C14       1.0  0.49425  0.76282  0.90524  1.0000
  C   C15       1.0  0.89989  0.07666  0.29478  1.0000
  C   C16       1.0  0.10011  0.92334  0.70522  1.0000
  C   C17       1.0  0.53976  0.17375  0.44373  1.0000
  C   C18       1.0  0.46024  0.82624  0.55625  1.0000
  C   C19       1.0  0.94874  0.54700  0.96710  1.0000
  C   C20       1.0  0.05125  0.45301  0.03291  1.0000
  N   N1        1.0  0.66467  0.21687  0.89618  1.0000
  N   N2        1.0  0.33533  0.78312  0.10382  1.0000
  N   N3        1.0  0.40825  0.27316  0.99580  1.0000
  N   N4        1.0  0.59174  0.72683  0.00419  1.0000
  O   O1        1.0  0.37414  0.11225  0.44109  1.0000
  O   O2        1.0  0.62586  0.88775  0.55891  1.0000
  O   O3        1.0  0.65228  0.24357  0.56443  1.0000
  O   O4        1.0  0.34772  0.75643  0.43557  1.0000
  O   O5        1.0  0.86684  0.01763  0.39204  1.0000
  O   O6        1.0  0.13317  0.98237  0.60797  1.0000
  O   O7        1.0  0.04719  0.06485  0.23812  1.0000
  O   O8        1.0  0.95281  0.93516  0.76189  1.0000
  O   O9        1.0  0.92926  0.69666  0.06368  1.0000
  O   O10       1.0  0.07074  0.30335  0.93634  1.0000
  O   O11       1.0  0.89077  0.47157  0.82588  1.0000
  O   O12       1.0  0.10923  0.52844  0.17413  1.0000
  O   O13       1.0  0.83773  0.68712  0.36666  1.0000
  O   O14       1.0  0.16227  0.31288  0.63334  1.0000
