data_image0
_chemical_formula_structural       Pr2H12C20N4O14
_chemical_formula_sum              "Pr2 H12 C20 N4 O14"
_cell_length_a       7.57961
_cell_length_b       8.97248
_cell_length_c       9.80945
_cell_angle_alpha    117.065
_cell_angle_beta     92.3252
_cell_angle_gamma    99.0434

_space_group_name_H-M_alt    "P 1"
_space_group_IT_number       1

loop_
  _space_group_symop_operation_xyz
  'x, y, z'

loop_
  _atom_site_type_symbol
  _atom_site_label
  _atom_site_symmetry_multiplicity
  _atom_site_fract_x
  _atom_site_fract_y
  _atom_site_fract_z
  _atom_site_occupancy
  Pr  Pr1       1.0  0.62527  0.84550  0.82028  1.0000
  Pr  Pr2       1.0  0.37473  0.15450  0.17972  1.0000
  H   H1        1.0  0.24916  0.75263  0.93231  1.0000
  H   H2        1.0  0.75084  0.24737  0.06768  1.0000
  H   H3        1.0  0.32224  0.57797  0.86287  1.0000
  H   H4        1.0  0.67775  0.42202  0.13712  1.0000
  H   H5        1.0  0.96068  0.27911  0.28510  1.0000
  H   H6        1.0  0.03932  0.72089  0.71490  1.0000
  H   H7        1.0  0.83590  0.23899  0.76859  1.0000
  H   H8        1.0  0.16410  0.76102  0.23141  1.0000
  H   H9        1.0  0.41872  0.12466  0.55511  1.0000
  H   H10       1.0  0.58128  0.87533  0.44489  1.0000
  H   H11       1.0  0.77395  0.28697  0.49479  1.0000
  H   H12       1.0  0.22606  0.71304  0.50521  1.0000
  C   C1        1.0  0.26047  0.14380  0.73802  1.0000
  C   C2        1.0  0.73953  0.85620  0.26198  1.0000
  C   C3        1.0  0.09348  0.17581  0.79885  1.0000
  C   C4        1.0  0.90652  0.82419  0.20115  1.0000
  C   C5        1.0  0.96543  0.22160  0.72587  1.0000
  C   C6        1.0  0.03457  0.77840  0.27413  1.0000
  C   C7        1.0  0.29550  0.15654  0.60401  1.0000
  C   C8        1.0  0.70450  0.84346  0.39598  1.0000
  C   C9        1.0  0.03888  0.17223  0.94366  1.0000
  C   C10       1.0  0.96112  0.82779  0.05634  1.0000
  C   C11       1.0  0.39940  0.07529  0.79368  1.0000
  C   C12       1.0  0.60060  0.92470  0.20632  1.0000
  C   C13       1.0  0.16818  0.20279  0.53206  1.0000
  C   C14       1.0  0.83183  0.79721  0.46794  1.0000
  C   C15       1.0  0.00523  0.23640  0.59480  1.0000
  C   C16       1.0  0.99478  0.76360  0.40520  1.0000
  C   C17       1.0  0.00722  0.25932  0.38069  1.0000
  C   C18       1.0  0.99278  0.74068  0.61931  1.0000
  C   C19       1.0  0.55053  0.45352  0.53383  1.0000
  C   C20       1.0  0.44946  0.54649  0.46619  1.0000
  N   N1        1.0  0.90789  0.27307  0.49629  1.0000
  N   N2        1.0  0.09211  0.72693  0.50371  1.0000
  N   N3        1.0  0.16493  0.21789  0.39675  1.0000
  N   N4        1.0  0.83507  0.78211  0.60324  1.0000
  O   O1        1.0  0.36759  0.01879  0.89272  1.0000
  O   O2        1.0  0.63240  0.98120  0.10727  1.0000
  O   O3        1.0  0.54559  0.06106  0.73509  1.0000
  O   O4        1.0  0.45441  0.93893  0.26491  1.0000
  O   O5        1.0  0.87316  0.11105  0.94096  1.0000
  O   O6        1.0  0.12685  0.88896  0.05904  1.0000
  O   O7        1.0  0.60672  0.52885  0.67564  1.0000
  O   O8        1.0  0.39326  0.47114  0.32436  1.0000
  O   O9        1.0  0.15133  0.24182  0.06461  1.0000
  O   O10       1.0  0.84868  0.75819  0.93539  1.0000
  O   O11       1.0  0.33593  0.68891  0.86578  1.0000
  O   O12       1.0  0.66407  0.31109  0.13422  1.0000
  O   O13       1.0  0.57056  0.30455  0.43784  1.0000
  O   O14       1.0  0.42943  0.69544  0.56217  1.0000
