data_image0
_chemical_formula_structural       Gd4H32C40N4O36
_chemical_formula_sum              "Gd4 H32 C40 N4 O36"
_cell_length_a       9.48286
_cell_length_b       11.064
_cell_length_c       13.3944
_cell_angle_alpha    65.8735
_cell_angle_beta     69.2712
_cell_angle_gamma    64.6271

_space_group_name_H-M_alt    "P 1"
_space_group_IT_number       1

loop_
  _space_group_symop_operation_xyz
  'x, y, z'

loop_
  _atom_site_type_symbol
  _atom_site_label
  _atom_site_symmetry_multiplicity
  _atom_site_fract_x
  _atom_site_fract_y
  _atom_site_fract_z
  _atom_site_occupancy
  Gd  Gd1       1.0  0.69867  0.92654  0.81117  1.0000
  Gd  Gd2       1.0  0.43639  0.57348  0.68879  1.0000
  Gd  Gd3       1.0  0.30134  0.07346  0.18883  1.0000
  Gd  Gd4       1.0  0.56361  0.42652  0.31121  1.0000
  H   H1        1.0  0.79171  0.45086  0.04811  1.0000
  H   H2        1.0  0.29053  0.04918  0.45196  1.0000
  H   H3        1.0  0.20829  0.54914  0.95189  1.0000
  H   H4        1.0  0.70947  0.95082  0.54804  1.0000
  H   H5        1.0  0.66441  0.49319  0.96800  1.0000
  H   H6        1.0  0.12547  0.00679  0.53207  1.0000
  H   H7        1.0  0.33559  0.50681  0.03200  1.0000
  H   H8        1.0  0.87453  0.99321  0.46793  1.0000
  H   H9        1.0  0.82068  0.55412  0.91477  1.0000
  H   H10       1.0  0.28947  0.94586  0.58526  1.0000
  H   H11       1.0  0.17931  0.44589  0.08523  1.0000
  H   H12       1.0  0.71053  0.05414  0.41474  1.0000
  H   H13       1.0  0.69254  0.30424  0.91520  1.0000
  H   H14       1.0  0.91185  0.19569  0.58493  1.0000
  H   H15       1.0  0.30747  0.69576  0.08480  1.0000
  H   H16       1.0  0.08815  0.80430  0.41507  1.0000
  H   H17       1.0  0.16497  0.00577  0.85048  1.0000
  H   H18       1.0  0.02117  0.49421  0.64955  1.0000
  H   H19       1.0  0.83503  0.99423  0.14952  1.0000
  H   H20       1.0  0.97883  0.50580  0.35045  1.0000
  H   H21       1.0  0.09413  0.34925  0.95742  1.0000
  H   H22       1.0  0.40069  0.15078  0.54256  1.0000
  H   H23       1.0  0.90587  0.65075  0.04258  1.0000
  H   H24       1.0  0.59931  0.84921  0.45744  1.0000
  H   H25       1.0  0.62162  0.18044  0.59009  1.0000
  H   H26       1.0  0.39218  0.31950  0.90990  1.0000
  H   H27       1.0  0.37837  0.81956  0.40991  1.0000
  H   H28       1.0  0.60782  0.68050  0.09010  1.0000
  H   H29       1.0  0.68022  0.22285  0.65961  1.0000
  H   H30       1.0  0.56270  0.27715  0.84038  1.0000
  H   H31       1.0  0.31978  0.77715  0.34039  1.0000
  H   H32       1.0  0.43730  0.72285  0.15962  1.0000
  C   C1        1.0  0.51785  0.82323  0.70666  1.0000
  C   C2        1.0  0.04776  0.67677  0.79316  1.0000
  C   C3        1.0  0.48215  0.17677  0.29335  1.0000
  C   C4        1.0  0.95224  0.32323  0.20684  1.0000
  C   C5        1.0  0.92304  0.14802  0.87741  1.0000
  C   C6        1.0  0.94835  0.35192  0.62269  1.0000
  C   C7        1.0  0.07696  0.85198  0.12259  1.0000
  C   C8        1.0  0.05165  0.64808  0.37731  1.0000
  C   C9        1.0  0.85375  0.06991  0.85030  1.0000
  C   C10       1.0  0.77385  0.43003  0.64977  1.0000
  C   C11       1.0  0.14624  0.93009  0.14970  1.0000
  C   C12       1.0  0.22615  0.56997  0.35023  1.0000
  C   C13       1.0  0.08688  0.10081  0.87353  1.0000
  C   C14       1.0  0.06113  0.39915  0.62651  1.0000
  C   C15       1.0  0.91312  0.89919  0.12647  1.0000
  C   C16       1.0  0.93888  0.60085  0.37349  1.0000
  C   C17       1.0  0.14785  0.17229  0.90407  1.0000
  C   C18       1.0  0.22411  0.32775  0.59593  1.0000
  C   C19       1.0  0.85215  0.82772  0.09593  1.0000
  C   C20       1.0  0.77588  0.67225  0.40407  1.0000
  C   C21       1.0  0.88533  0.34181  0.93354  1.0000
  C   C22       1.0  0.16056  0.15816  0.56654  1.0000
  C   C23       1.0  0.11467  0.65819  0.06646  1.0000
  C   C24       1.0  0.83944  0.84184  0.43345  1.0000
  C   C25       1.0  0.82071  0.26858  0.90923  1.0000
  C   C26       1.0  0.99842  0.23134  0.59088  1.0000
  C   C27       1.0  0.17929  0.73142  0.09077  1.0000
  C   C28       1.0  0.00158  0.76866  0.40912  1.0000
  C   C29       1.0  0.04667  0.29478  0.93246  1.0000
  C   C30       1.0  0.27382  0.20525  0.56753  1.0000
  C   C31       1.0  0.95333  0.70522  0.06754  1.0000
  C   C32       1.0  0.72618  0.79475  0.43247  1.0000
  C   C33       1.0  0.51658  0.72182  0.82721  1.0000
  C   C34       1.0  0.06581  0.77831  0.67270  1.0000
  C   C35       1.0  0.48342  0.27818  0.17279  1.0000
  C   C36       1.0  0.93418  0.22169  0.32730  1.0000
  C   C37       1.0  0.31779  0.11654  0.91579  1.0000
  C   C38       1.0  0.35002  0.38353  0.58420  1.0000
  C   C39       1.0  0.68221  0.88346  0.08421  1.0000
  C   C40       1.0  0.64998  0.61647  0.41580  1.0000
  N   N1        1.0  0.78293  0.46778  0.96656  1.0000
  N   N2        1.0  0.21714  0.03221  0.53351  1.0000
  N   N3        1.0  0.21708  0.53222  0.03344  1.0000
  N   N4        1.0  0.78286  0.96779  0.46649  1.0000
  O   O1        1.0  0.70254  0.11843  0.85415  1.0000
  O   O2        1.0  0.67503  0.38150  0.64591  1.0000
  O   O3        1.0  0.29746  0.88157  0.14585  1.0000
  O   O4        1.0  0.32496  0.61850  0.35409  1.0000
  O   O5        1.0  0.93966  0.95680  0.82570  1.0000
  O   O6        1.0  0.72203  0.54313  0.67440  1.0000
  O   O7        1.0  0.06034  0.04320  0.17430  1.0000
  O   O8        1.0  0.27796  0.45687  0.32560  1.0000
  O   O9        1.0  0.59411  0.90789  0.67450  1.0000
  O   O10       1.0  0.17642  0.59201  0.82539  1.0000
  O   O11       1.0  0.40589  0.09211  0.32549  1.0000
  O   O12       1.0  0.82358  0.40799  0.17462  1.0000
  O   O13       1.0  0.57516  0.74357  0.88730  1.0000
  O   O14       1.0  0.20629  0.75653  0.61269  1.0000
  O   O15       1.0  0.42485  0.25643  0.11270  1.0000
  O   O16       1.0  0.79371  0.24347  0.38731  1.0000
  O   O17       1.0  0.46114  0.62438  0.85448  1.0000
  O   O18       1.0  0.94031  0.87588  0.64541  1.0000
  O   O19       1.0  0.53886  0.37562  0.14553  1.0000
  O   O20       1.0  0.05969  0.12411  0.35459  1.0000
  O   O21       1.0  0.34229  0.14548  0.99043  1.0000
  O   O22       1.0  0.47813  0.35454  0.50960  1.0000
  O   O23       1.0  0.65771  0.85451  0.00957  1.0000
  O   O24       1.0  0.52187  0.64546  0.49040  1.0000
  O   O25       1.0  0.42325  0.04694  0.85227  1.0000
  O   O26       1.0  0.32231  0.45323  0.64765  1.0000
  O   O27       1.0  0.57675  0.95306  0.14773  1.0000
  O   O28       1.0  0.67768  0.54677  0.35236  1.0000
  O   O29       1.0  0.44465  0.81313  0.64907  1.0000
  O   O30       1.0  0.90682  0.68692  0.85067  1.0000
  O   O31       1.0  0.55534  0.18687  0.35093  1.0000
  O   O32       1.0  0.09318  0.31308  0.14933  1.0000
  O   O33       1.0  0.67589  0.13795  0.65259  1.0000
  O   O34       1.0  0.46643  0.36202  0.84740  1.0000
  O   O35       1.0  0.32411  0.86205  0.34741  1.0000
  O   O36       1.0  0.53357  0.63798  0.15260  1.0000
