data_image0
_chemical_formula_structural       Cd2H16C32N8
_chemical_formula_sum              "Cd2 H16 C32 N8"
_cell_length_a       7.35197
_cell_length_b       8.27018
_cell_length_c       12.4751
_cell_angle_alpha    103.205
_cell_angle_beta     107.119
_cell_angle_gamma    90.0359

_space_group_name_H-M_alt    "P 1"
_space_group_IT_number       1

loop_
  _space_group_symop_operation_xyz
  'x, y, z'

loop_
  _atom_site_type_symbol
  _atom_site_label
  _atom_site_symmetry_multiplicity
  _atom_site_fract_x
  _atom_site_fract_y
  _atom_site_fract_z
  _atom_site_occupancy
  Cd  Cd1       1.0  0.00001  0.00000  0.50000  1.0000
  Cd  Cd2       1.0  0.50000  0.50000  0.50000  1.0000
  H   H1        1.0  0.88283  0.76776  0.22300  1.0000
  H   H2        1.0  0.65933  0.73241  0.77673  1.0000
  H   H3        1.0  0.11717  0.23222  0.77700  1.0000
  H   H4        1.0  0.34067  0.26759  0.22328  1.0000
  H   H5        1.0  0.59893  0.60022  0.07688  1.0000
  H   H6        1.0  0.52137  0.90072  0.92246  1.0000
  H   H7        1.0  0.40108  0.39977  0.92312  1.0000
  H   H8        1.0  0.47862  0.09928  0.07754  1.0000
  H   H9        1.0  0.25074  0.88333  0.26947  1.0000
  H   H10       1.0  0.98079  0.61659  0.73055  1.0000
  H   H11       1.0  0.74927  0.11667  0.73054  1.0000
  H   H12       1.0  0.01920  0.38342  0.26945  1.0000
  H   H13       1.0  0.54915  0.03759  0.40598  1.0000
  H   H14       1.0  0.14277  0.46190  0.59423  1.0000
  H   H15       1.0  0.45086  0.96241  0.59403  1.0000
  H   H16       1.0  0.85722  0.53809  0.40577  1.0000
  C   C1        1.0  0.73952  0.79031  0.22926  1.0000
  C   C2        1.0  0.50970  0.70993  0.77050  1.0000
  C   C3        1.0  0.26048  0.20968  0.77074  1.0000
  C   C4        1.0  0.49029  0.29007  0.22951  1.0000
  C   C5        1.0  0.58097  0.69644  0.14803  1.0000
  C   C6        1.0  0.43234  0.80414  0.85151  1.0000
  C   C7        1.0  0.41903  0.30356  0.85197  1.0000
  C   C8        1.0  0.56764  0.19587  0.14848  1.0000
  C   C9        1.0  0.39939  0.72452  0.16244  1.0000
  C   C10       1.0  0.23643  0.77582  0.83725  1.0000
  C   C11       1.0  0.60061  0.27548  0.83756  1.0000
  C   C12       1.0  0.76357  0.22418  0.16275  1.0000
  C   C13       1.0  0.38705  0.85373  0.25521  1.0000
  C   C14       1.0  0.13130  0.64632  0.74467  1.0000
  C   C15       1.0  0.61296  0.14627  0.74479  1.0000
  C   C16       1.0  0.86869  0.35369  0.25532  1.0000
  C   C17       1.0  0.55408  0.93997  0.33162  1.0000
  C   C18       1.0  0.22198  0.55983  0.66837  1.0000
  C   C19       1.0  0.44593  0.06003  0.66838  1.0000
  C   C20       1.0  0.77802  0.44017  0.33163  1.0000
  C   C21       1.0  0.23340  0.62538  0.08999  1.0000
  C   C22       1.0  0.14318  0.87483  0.90985  1.0000
  C   C23       1.0  0.76663  0.37463  0.91002  1.0000
  C   C24       1.0  0.85681  0.12517  0.09015  1.0000
  C   C25       1.0  0.08265  0.54405  0.03230  1.0000
  C   C26       1.0  0.05036  0.95603  0.96770  1.0000
  C   C27       1.0  0.91733  0.45593  0.96769  1.0000
  C   C28       1.0  0.94964  0.04395  0.03231  1.0000
  C   C29       1.0  0.85359  0.22768  0.55641  1.0000
  C   C30       1.0  0.29701  0.27271  0.44368  1.0000
  C   C31       1.0  0.14642  0.77233  0.44359  1.0000
  C   C32       1.0  0.70298  0.72730  0.55632  1.0000
  N   N1        1.0  0.72782  0.90780  0.32080  1.0000
  N   N2        1.0  0.40655  0.59204  0.67917  1.0000
  N   N3        1.0  0.27219  0.09220  0.67920  1.0000
  N   N4        1.0  0.59344  0.40796  0.32083  1.0000
  N   N5        1.0  0.77097  0.34285  0.58473  1.0000
  N   N6        1.0  0.18651  0.15714  0.41545  1.0000
  N   N7        1.0  0.22903  0.65716  0.41527  1.0000
  N   N8        1.0  0.81349  0.84286  0.58454  1.0000
