data_image0
_chemical_formula_structural       Zn2H28C36N8O18F8
_chemical_formula_sum              "Zn2 H28 C36 N8 O18 F8"
_cell_length_a       8.06415
_cell_length_b       11.8829
_cell_length_c       12.2028
_cell_angle_alpha    85.8453
_cell_angle_beta     70.7061
_cell_angle_gamma    77.3254

_space_group_name_H-M_alt    "P 1"
_space_group_IT_number       1

loop_
  _space_group_symop_operation_xyz
  'x, y, z'

loop_
  _atom_site_type_symbol
  _atom_site_label
  _atom_site_symmetry_multiplicity
  _atom_site_fract_x
  _atom_site_fract_y
  _atom_site_fract_z
  _atom_site_occupancy
  Zn  Zn1       1.0  0.57295  0.24999  0.85448  1.0000
  Zn  Zn2       1.0  0.42705  0.75001  0.14552  1.0000
  H   H1        1.0  0.46993  0.08804  0.54012  1.0000
  H   H2        1.0  0.98973  0.41205  0.54018  1.0000
  H   H3        1.0  0.53007  0.91196  0.45988  1.0000
  H   H4        1.0  0.01028  0.58795  0.45981  1.0000
  H   H5        1.0  0.49303  0.17792  0.07262  1.0000
  H   H6        1.0  0.43426  0.32197  0.07262  1.0000
  H   H7        1.0  0.50697  0.82208  0.92738  1.0000
  H   H8        1.0  0.56574  0.67804  0.92738  1.0000
  H   H9        1.0  0.66756  0.99455  0.78147  1.0000
  H   H10       1.0  0.55111  0.50536  0.78146  1.0000
  H   H11       1.0  0.33244  0.00545  0.21853  1.0000
  H   H12       1.0  0.44889  0.49464  0.21854  1.0000
  H   H13       1.0  0.99776  0.22837  0.71738  1.0000
  H   H14       1.0  0.28466  0.27154  0.71775  1.0000
  H   H15       1.0  0.00224  0.77163  0.28262  1.0000
  H   H16       1.0  0.71534  0.72846  0.28224  1.0000
  H   H17       1.0  0.02346  0.78993  0.68303  1.0000
  H   H18       1.0  0.29383  0.71005  0.68288  1.0000
  H   H19       1.0  0.97654  0.21007  0.31697  1.0000
  H   H20       1.0  0.70617  0.28995  0.31712  1.0000
  H   H21       1.0  0.05821  0.83793  0.53830  1.0000
  H   H22       1.0  0.40380  0.66177  0.53824  1.0000
  H   H23       1.0  0.94179  0.16207  0.46170  1.0000
  H   H24       1.0  0.59619  0.33823  0.46176  1.0000
  H   H25       1.0  0.83646  0.83240  0.63290  1.0000
  H   H26       1.0  0.53095  0.66729  0.63285  1.0000
  H   H27       1.0  0.16354  0.16760  0.36710  1.0000
  H   H28       1.0  0.46905  0.33271  0.36715  1.0000
  C   C1        1.0  0.94193  0.97153  0.66576  1.0000
  C   C2        1.0  0.39213  0.52839  0.66592  1.0000
  C   C3        1.0  0.05807  0.02847  0.33424  1.0000
  C   C4        1.0  0.60787  0.47161  0.33407  1.0000
  C   C5        1.0  0.06097  0.04765  0.64616  1.0000
  C   C6        1.0  0.29246  0.45230  0.64653  1.0000
  C   C7        1.0  0.93904  0.95235  0.35384  1.0000
  C   C8        1.0  0.70754  0.54770  0.35346  1.0000
  C   C9        1.0  0.95921  0.14813  0.71011  1.0000
  C   C10       1.0  0.33038  0.35182  0.71048  1.0000
  C   C11       1.0  0.04079  0.85186  0.28988  1.0000
  C   C12       1.0  0.66962  0.64818  0.28951  1.0000
  C   C13       1.0  0.96608  0.85163  0.62722  1.0000
  C   C14       1.0  0.40690  0.64818  0.62721  1.0000
  C   C15       1.0  0.03392  0.14837  0.37278  1.0000
  C   C16       1.0  0.59309  0.35182  0.37279  1.0000
  C   C17       1.0  0.25123  0.02553  0.57920  1.0000
  C   C18       1.0  0.16924  0.47443  0.57949  1.0000
  C   C19       1.0  0.74877  0.97446  0.42080  1.0000
  C   C20       1.0  0.83077  0.52558  0.42051  1.0000
  C   C21       1.0  0.74849  0.45994  0.88667  1.0000
  C   C22       1.0  0.36512  0.03981  0.88672  1.0000
  C   C23       1.0  0.25151  0.54006  0.11334  1.0000
  C   C24       1.0  0.63488  0.96019  0.11329  1.0000
  C   C25       1.0  0.87668  0.48121  0.94568  1.0000
  C   C26       1.0  0.17793  0.01848  0.94579  1.0000
  C   C27       1.0  0.12332  0.51879  0.05433  1.0000
  C   C28       1.0  0.82206  0.98152  0.05421  1.0000
  C   C29       1.0  0.89786  0.41757  0.04275  1.0000
  C   C30       1.0  0.05973  0.08210  0.04290  1.0000
  C   C31       1.0  0.10215  0.58242  0.95726  1.0000
  C   C32       1.0  0.94027  0.91790  0.95711  1.0000
  C   C33       1.0  0.01830  0.43609  0.09577  1.0000
  C   C34       1.0  0.88602  0.06392  0.09579  1.0000
  C   C35       1.0  0.98171  0.56391  0.90424  1.0000
  C   C36       1.0  0.11398  0.93607  0.90421  1.0000
  N   N1        1.0  0.79135  0.13470  0.76467  1.0000
  N   N2        1.0  0.44396  0.36525  0.76484  1.0000
  N   N3        1.0  0.20865  0.86530  0.23533  1.0000
  N   N4        1.0  0.55604  0.63475  0.23516  1.0000
  N   N5        1.0  0.78381  0.02783  0.73625  1.0000
  N   N6        1.0  0.47993  0.47210  0.73633  1.0000
  N   N7        1.0  0.21619  0.97217  0.26375  1.0000
  N   N8        1.0  0.52007  0.52790  0.26367  1.0000
  O   O1        1.0  0.76021  0.35700  0.86119  1.0000
  O   O2        1.0  0.37866  0.14276  0.86114  1.0000
  O   O3        1.0  0.23979  0.64300  0.13881  1.0000
  O   O4        1.0  0.62134  0.85724  0.13886  1.0000
  O   O5        1.0  0.63969  0.54772  0.86599  1.0000
  O   O6        1.0  0.49476  0.95211  0.86606  1.0000
  O   O7        1.0  0.36032  0.45228  0.13401  1.0000
  O   O8        1.0  0.50523  0.04789  0.13394  1.0000
  O   O9        1.0  0.33305  0.10896  0.58551  1.0000
  O   O10       1.0  0.08101  0.39108  0.58573  1.0000
  O   O11       1.0  0.66696  0.89104  0.41448  1.0000
  O   O12       1.0  0.91899  0.60892  0.41427  1.0000
  O   O13       1.0  0.32919  0.93471  0.52182  1.0000
  O   O14       1.0  0.14893  0.56520  0.52199  1.0000
  O   O15       1.0  0.67081  0.06529  0.47818  1.0000
  O   O16       1.0  0.85109  0.43480  0.47800  1.0000
  O   O17       1.0  0.48749  0.24996  0.02534  1.0000
  O   O18       1.0  0.51251  0.75004  0.97465  1.0000
  F   F1        1.0  0.79650  0.33849  0.08902  1.0000
  F   F2        1.0  0.11495  0.16105  0.08926  1.0000
  F   F3        1.0  0.20351  0.66151  0.91098  1.0000
  F   F4        1.0  0.88505  0.83895  0.91074  1.0000
  F   F5        1.0  0.02862  0.37476  0.19213  1.0000
  F   F6        1.0  0.77946  0.12525  0.19219  1.0000
  F   F7        1.0  0.97139  0.62524  0.80787  1.0000
  F   F8        1.0  0.22053  0.87475  0.80782  1.0000
