data_image0
_chemical_formula_structural       Ag4H48C28S28O12F12
_chemical_formula_sum              "Ag4 H48 C28 S28 O12 F12"
_cell_length_a       11.3878
_cell_length_b       12.0772
_cell_length_c       12.9076
_cell_angle_alpha    89.9997
_cell_angle_beta     107.938
_cell_angle_gamma    90.0004

_space_group_name_H-M_alt    "P 1"
_space_group_IT_number       1

loop_
  _space_group_symop_operation_xyz
  'x, y, z'

loop_
  _atom_site_type_symbol
  _atom_site_label
  _atom_site_symmetry_multiplicity
  _atom_site_fract_x
  _atom_site_fract_y
  _atom_site_fract_z
  _atom_site_occupancy
  Ag  Ag1       1.0  0.72919  0.24315  0.17132  1.0000
  Ag  Ag2       1.0  0.77082  0.74314  0.82868  1.0000
  Ag  Ag3       1.0  0.27082  0.75685  0.82867  1.0000
  Ag  Ag4       1.0  0.22918  0.25685  0.17133  1.0000
  H   H1        1.0  0.60274  0.26385  0.87393  1.0000
  H   H2        1.0  0.89726  0.76385  0.12607  1.0000
  H   H3        1.0  0.39725  0.73616  0.12606  1.0000
  H   H4        1.0  0.10274  0.23616  0.87394  1.0000
  H   H5        1.0  0.44412  0.29604  0.85988  1.0000
  H   H6        1.0  0.05588  0.79604  0.14012  1.0000
  H   H7        1.0  0.55587  0.70396  0.14012  1.0000
  H   H8        1.0  0.94412  0.20396  0.85988  1.0000
  H   H9        1.0  0.86663  0.42795  0.04177  1.0000
  H   H10       1.0  0.63337  0.92795  0.95823  1.0000
  H   H11       1.0  0.13336  0.57205  0.95823  1.0000
  H   H12       1.0  0.36663  0.07205  0.04178  1.0000
  H   H13       1.0  0.81628  0.31079  0.95347  1.0000
  H   H14       1.0  0.68373  0.81079  0.04653  1.0000
  H   H15       1.0  0.18372  0.68921  0.04653  1.0000
  H   H16       1.0  0.31628  0.18921  0.95347  1.0000
  H   H17       1.0  0.37116  0.39045  0.01105  1.0000
  H   H18       1.0  0.12884  0.89045  0.98895  1.0000
  H   H19       1.0  0.62884  0.60955  0.98895  1.0000
  H   H20       1.0  0.87116  0.10955  0.01105  1.0000
  H   H21       1.0  0.47583  0.43025  0.14149  1.0000
  H   H22       1.0  0.02418  0.93025  0.85851  1.0000
  H   H23       1.0  0.52418  0.56975  0.85851  1.0000
  H   H24       1.0  0.97582  0.06975  0.14149  1.0000
  H   H25       1.0  0.67911  0.97630  0.37346  1.0000
  H   H26       1.0  0.82090  0.47630  0.62654  1.0000
  H   H27       1.0  0.32089  0.02370  0.62654  1.0000
  H   H28       1.0  0.17911  0.52370  0.37346  1.0000
  H   H29       1.0  0.57358  0.02507  0.24920  1.0000
  H   H30       1.0  0.92642  0.52506  0.75080  1.0000
  H   H31       1.0  0.42642  0.97494  0.75080  1.0000
  H   H32       1.0  0.07358  0.47493  0.24920  1.0000
  H   H33       1.0  0.85707  0.09259  0.49921  1.0000
  H   H34       1.0  0.64293  0.59259  0.50079  1.0000
  H   H35       1.0  0.14293  0.90741  0.50079  1.0000
  H   H36       1.0  0.35707  0.40741  0.49921  1.0000
  H   H37       1.0  0.89299  0.23090  0.47044  1.0000
  H   H38       1.0  0.60701  0.73090  0.52956  1.0000
  H   H39       1.0  0.10701  0.76910  0.52956  1.0000
  H   H40       1.0  0.39299  0.26910  0.47044  1.0000
  H   H41       1.0  0.97628  0.92789  0.29193  1.0000
  H   H42       1.0  0.52372  0.42789  0.70807  1.0000
  H   H43       1.0  0.02372  0.07210  0.70807  1.0000
  H   H44       1.0  0.47628  0.57211  0.29193  1.0000
  H   H45       1.0  0.90378  0.91921  0.39681  1.0000
  H   H46       1.0  0.59622  0.41921  0.60319  1.0000
  H   H47       1.0  0.09622  0.08079  0.60319  1.0000
  H   H48       1.0  0.40378  0.58079  0.39681  1.0000
  C   C1        1.0  0.53253  0.26779  0.91593  1.0000
  C   C2        1.0  0.96747  0.76778  0.08407  1.0000
  C   C3        1.0  0.46746  0.73222  0.08407  1.0000
  C   C4        1.0  0.03253  0.23222  0.91592  1.0000
  C   C5        1.0  0.89386  0.34762  0.01693  1.0000
  C   C6        1.0  0.60614  0.84762  0.98308  1.0000
  C   C7        1.0  0.10614  0.65238  0.98307  1.0000
  C   C8        1.0  0.39386  0.15238  0.01693  1.0000
  C   C9        1.0  0.45464  0.36785  0.07683  1.0000
  C   C10       1.0  0.04536  0.86785  0.92317  1.0000
  C   C11       1.0  0.54536  0.63215  0.92317  1.0000
  C   C12       1.0  0.95464  0.13215  0.07683  1.0000
  C   C13       1.0  0.67045  0.02647  0.30042  1.0000
  C   C14       1.0  0.82955  0.52647  0.69957  1.0000
  C   C15       1.0  0.32955  0.97353  0.69958  1.0000
  C   C16       1.0  0.17045  0.47353  0.30042  1.0000
  C   C17       1.0  0.86245  0.14956  0.43433  1.0000
  C   C18       1.0  0.63755  0.64956  0.56567  1.0000
  C   C19       1.0  0.13755  0.85044  0.56567  1.0000
  C   C20       1.0  0.36245  0.35044  0.43433  1.0000
  C   C21       1.0  0.91051  0.96785  0.32681  1.0000
  C   C22       1.0  0.58949  0.46785  0.67319  1.0000
  C   C23       1.0  0.08949  0.03215  0.67319  1.0000
  C   C24       1.0  0.41051  0.53215  0.32681  1.0000
  C   C25       1.0  0.85420  0.62674  0.36741  1.0000
  C   C26       1.0  0.64581  0.12675  0.63259  1.0000
  C   C27       1.0  0.14580  0.37326  0.63259  1.0000
  C   C28       1.0  0.35419  0.87326  0.36741  1.0000
  S   S1        1.0  0.58541  0.36787  0.02524  1.0000
  S   S2        1.0  0.91459  0.86788  0.97476  1.0000
  S   S3        1.0  0.41458  0.63212  0.97476  1.0000
  S   S4        1.0  0.08541  0.13212  0.02524  1.0000
  S   S5        1.0  0.51925  0.12900  0.96204  1.0000
  S   S6        1.0  0.98074  0.62900  0.03796  1.0000
  S   S7        1.0  0.48074  0.87100  0.03796  1.0000
  S   S8        1.0  0.01926  0.37100  0.96204  1.0000
  S   S9        1.0  0.93226  0.26144  0.13770  1.0000
  S   S10       1.0  0.56774  0.76144  0.86230  1.0000
  S   S11       1.0  0.06774  0.73856  0.86229  1.0000
  S   S12       1.0  0.43226  0.23856  0.13771  1.0000
  S   S13       1.0  0.76222  0.96868  0.22235  1.0000
  S   S14       1.0  0.73778  0.46868  0.77765  1.0000
  S   S15       1.0  0.23778  0.03132  0.77765  1.0000
  S   S16       1.0  0.26222  0.53132  0.22235  1.0000
  S   S17       1.0  0.70593  0.16933  0.34294  1.0000
  S   S18       1.0  0.79407  0.66933  0.65706  1.0000
  S   S19       1.0  0.29406  0.83067  0.65706  1.0000
  S   S20       1.0  0.20593  0.33067  0.34294  1.0000
  S   S21       1.0  0.97674  0.10199  0.37412  1.0000
  S   S22       1.0  0.52326  0.60199  0.62588  1.0000
  S   S23       1.0  0.02326  0.89801  0.62588  1.0000
  S   S24       1.0  0.47674  0.39801  0.37412  1.0000
  S   S25       1.0  0.77337  0.55434  0.23715  1.0000
  S   S26       1.0  0.72663  0.05435  0.76285  1.0000
  S   S27       1.0  0.22663  0.44566  0.76285  1.0000
  S   S28       1.0  0.27337  0.94565  0.23715  1.0000
  O   O1        1.0  0.76569  0.63915  0.15440  1.0000
  O   O2        1.0  0.73431  0.13915  0.84561  1.0000
  O   O3        1.0  0.23432  0.36086  0.84561  1.0000
  O   O4        1.0  0.26569  0.86085  0.15440  1.0000
  O   O5        1.0  0.85633  0.46242  0.23673  1.0000
  O   O6        1.0  0.64367  0.96243  0.76328  1.0000
  O   O7        1.0  0.14367  0.53758  0.76327  1.0000
  O   O8        1.0  0.35633  0.03758  0.23673  1.0000
  O   O9        1.0  0.65491  0.52370  0.25072  1.0000
  O   O10       1.0  0.84509  0.02370  0.74928  1.0000
  O   O11       1.0  0.34510  0.47630  0.74928  1.0000
  O   O12       1.0  0.15491  0.97630  0.25072  1.0000
  F   F1        1.0  0.78693  0.71383  0.38505  1.0000
  F   F2        1.0  0.71308  0.21383  0.61495  1.0000
  F   F3        1.0  0.21308  0.28617  0.61495  1.0000
  F   F4        1.0  0.28692  0.78617  0.38506  1.0000
  F   F5        1.0  0.87446  0.55633  0.45310  1.0000
  F   F6        1.0  0.62555  0.05633  0.54690  1.0000
  F   F7        1.0  0.12554  0.44367  0.54690  1.0000
  F   F8        1.0  0.37445  0.94367  0.45310  1.0000
  F   F9        1.0  0.96598  0.66683  0.36636  1.0000
  F   F10       1.0  0.53403  0.16683  0.63364  1.0000
  F   F11       1.0  0.03403  0.33317  0.63364  1.0000
  F   F12       1.0  0.46597  0.83317  0.36636  1.0000
