data_image0
_chemical_formula_structural       Cu2H52C36N4O8
_chemical_formula_sum              "Cu2 H52 C36 N4 O8"
_cell_length_a       9.4146
_cell_length_b       9.41454
_cell_length_c       11.4041
_cell_angle_alpha    73.3232
_cell_angle_beta     73.3218
_cell_angle_gamma    69.3117

_space_group_name_H-M_alt    "P 1"
_space_group_IT_number       1

loop_
  _space_group_symop_operation_xyz
  'x, y, z'

loop_
  _atom_site_type_symbol
  _atom_site_label
  _atom_site_symmetry_multiplicity
  _atom_site_fract_x
  _atom_site_fract_y
  _atom_site_fract_z
  _atom_site_occupancy
  Cu  Cu1       1.0  0.50000  0.00000  1.00000  1.0000
  Cu  Cu2       1.0  0.50000  0.00000  0.50000  1.0000
  H   H1        1.0  0.43558  0.88252  0.22746  1.0000
  H   H2        1.0  0.61747  0.06442  0.27255  1.0000
  H   H3        1.0  0.56442  0.11747  0.77254  1.0000
  H   H4        1.0  0.38254  0.93558  0.72745  1.0000
  H   H5        1.0  0.24435  0.83228  0.08900  1.0000
  H   H6        1.0  0.66772  0.25564  0.41101  1.0000
  H   H7        1.0  0.75565  0.16772  0.91099  1.0000
  H   H8        1.0  0.33229  0.74436  0.58899  1.0000
  H   H9        1.0  0.42569  0.70498  0.12260  1.0000
  H   H10       1.0  0.79502  0.07430  0.37741  1.0000
  H   H11       1.0  0.57432  0.29502  0.87740  1.0000
  H   H12       1.0  0.20499  0.92571  0.62259  1.0000
  H   H13       1.0  0.20088  0.62463  0.27586  1.0000
  H   H14       1.0  0.87537  0.29911  0.22415  1.0000
  H   H15       1.0  0.79912  0.37537  0.72413  1.0000
  H   H16       1.0  0.12463  0.70091  0.77585  1.0000
  H   H17       1.0  0.31669  0.67048  0.34996  1.0000
  H   H18       1.0  0.82952  0.18330  0.15005  1.0000
  H   H19       1.0  0.68331  0.32952  0.65004  1.0000
  H   H20       1.0  0.17048  0.81671  0.84995  1.0000
  H   H21       1.0  0.03657  0.79307  0.43325  1.0000
  H   H22       1.0  0.70695  0.46343  0.06676  1.0000
  H   H23       1.0  0.96343  0.20693  0.56675  1.0000
  H   H24       1.0  0.29305  0.53658  0.93324  1.0000
  H   H25       1.0  0.00597  0.88174  0.28061  1.0000
  H   H26       1.0  0.61827  0.49403  0.21940  1.0000
  H   H27       1.0  0.99404  0.11826  0.71939  1.0000
  H   H28       1.0  0.38173  0.50597  0.78060  1.0000
  H   H29       1.0  0.21688  0.94579  0.40925  1.0000
  H   H30       1.0  0.55422  0.28311  0.09076  1.0000
  H   H31       1.0  0.78312  0.05420  0.59074  1.0000
  H   H32       1.0  0.44577  0.71689  0.90925  1.0000
  H   H33       1.0  0.03839  0.07493  0.37396  1.0000
  H   H34       1.0  0.42509  0.46160  0.12604  1.0000
  H   H35       1.0  0.96162  0.92507  0.62604  1.0000
  H   H36       1.0  0.57490  0.53840  0.87396  1.0000
  H   H37       1.0  0.14725  0.08749  0.14609  1.0000
  H   H38       1.0  0.41250  0.35276  0.35391  1.0000
  H   H39       1.0  0.85276  0.91250  0.85390  1.0000
  H   H40       1.0  0.58751  0.64723  0.64610  1.0000
  H   H41       1.0  0.26222  0.14184  0.21327  1.0000
  H   H42       1.0  0.35816  0.23779  0.28673  1.0000
  H   H43       1.0  0.73779  0.85816  0.78672  1.0000
  H   H44       1.0  0.64185  0.76220  0.71328  1.0000
  H   H45       1.0  0.99676  0.62461  0.01747  1.0000
  H   H46       1.0  0.87543  0.50321  0.48249  1.0000
  H   H47       1.0  0.00322  0.37539  0.98253  1.0000
  H   H48       1.0  0.12458  0.49678  0.51752  1.0000
  H   H49       1.0  0.16932  0.39447  0.13228  1.0000
  H   H50       1.0  0.10554  0.33067  0.36765  1.0000
  H   H51       1.0  0.83067  0.60553  0.86771  1.0000
  H   H52       1.0  0.89445  0.66932  0.63235  1.0000
  C   C1        1.0  0.31896  0.79043  0.15799  1.0000
  C   C2        1.0  0.70957  0.18104  0.34201  1.0000
  C   C3        1.0  0.68104  0.20957  0.84200  1.0000
  C   C4        1.0  0.29043  0.81897  0.65799  1.0000
  C   C5        1.0  0.23518  0.72000  0.28581  1.0000
  C   C6        1.0  0.78001  0.26482  0.21420  1.0000
  C   C7        1.0  0.76482  0.28000  0.71419  1.0000
  C   C8        1.0  0.21999  0.73519  0.78580  1.0000
  C   C9        1.0  0.09300  0.84275  0.33942  1.0000
  C   C10       1.0  0.65725  0.40700  0.16059  1.0000
  C   C11       1.0  0.90701  0.15725  0.66058  1.0000
  C   C12       1.0  0.34274  0.59300  0.83941  1.0000
  C   C13       1.0  0.14002  0.98120  0.34260  1.0000
  C   C14       1.0  0.51881  0.35998  0.15741  1.0000
  C   C15       1.0  0.85998  0.01880  0.65740  1.0000
  C   C16       1.0  0.48118  0.64002  0.84260  1.0000
  C   C17       1.0  0.22460  0.04441  0.21289  1.0000
  C   C18       1.0  0.45559  0.27541  0.28711  1.0000
  C   C19       1.0  0.77541  0.95559  0.78710  1.0000
  C   C20       1.0  0.54442  0.72458  0.71289  1.0000
  C   C21       1.0  0.73306  0.83170  0.11640  1.0000
  C   C22       1.0  0.66828  0.76692  0.38360  1.0000
  C   C23       1.0  0.26693  0.16830  0.88361  1.0000
  C   C24       1.0  0.33171  0.23308  0.61640  1.0000
  C   C25       1.0  0.83988  0.69307  0.18422  1.0000
  C   C26       1.0  0.80692  0.66012  0.31577  1.0000
  C   C27       1.0  0.16011  0.30692  0.81579  1.0000
  C   C28       1.0  0.19307  0.33988  0.68424  1.0000
  C   C29       1.0  0.97089  0.59734  0.11944  1.0000
  C   C30       1.0  0.90268  0.52911  0.38052  1.0000
  C   C31       1.0  0.02910  0.40266  0.88056  1.0000
  C   C32       1.0  0.09732  0.47088  0.61948  1.0000
  C   C33       1.0  0.06763  0.46792  0.18453  1.0000
  C   C34       1.0  0.03209  0.43237  0.31542  1.0000
  C   C35       1.0  0.93236  0.53208  0.81547  1.0000
  C   C36       1.0  0.96790  0.56762  0.68458  1.0000
  N   N1        1.0  0.36325  0.92441  0.16400  1.0000
  N   N2        1.0  0.57559  0.13677  0.33600  1.0000
  N   N3        1.0  0.63676  0.07558  0.83600  1.0000
  N   N4        1.0  0.42442  0.86322  0.66401  1.0000
  O   O1        1.0  0.66864  0.80309  0.04357  1.0000
  O   O2        1.0  0.69689  0.83136  0.45641  1.0000
  O   O3        1.0  0.33136  0.19691  0.95642  1.0000
  O   O4        1.0  0.30312  0.16864  0.54359  1.0000
  O   O5        1.0  0.70802  0.96489  0.13476  1.0000
  O   O6        1.0  0.53511  0.79191  0.36525  1.0000
  O   O7        1.0  0.29197  0.03511  0.86525  1.0000
  O   O8        1.0  0.46489  0.20809  0.63475  1.0000
