data_image0
_chemical_formula_structural       Cd6H24C24N36
_chemical_formula_sum              "Cd6 H24 C24 N36"
_cell_length_a       13.2381
_cell_length_b       13.2381
_cell_length_c       13.2381
_cell_angle_alpha    59.9998
_cell_angle_beta     59.9998
_cell_angle_gamma    59.9998

_space_group_name_H-M_alt    "P 1"
_space_group_IT_number       1

loop_
  _space_group_symop_operation_xyz
  'x, y, z'

loop_
  _atom_site_type_symbol
  _atom_site_label
  _atom_site_symmetry_multiplicity
  _atom_site_fract_x
  _atom_site_fract_y
  _atom_site_fract_z
  _atom_site_occupancy
  Cd  Cd1       1.0  0.00000  0.00000  0.00000  1.0000
  Cd  Cd2       1.0  0.50000  1.00000  1.00000  1.0000
  Cd  Cd3       1.0  0.50000  0.00000  0.50000  1.0000
  Cd  Cd4       1.0  0.50000  0.50000  0.00000  1.0000
  Cd  Cd5       1.0  0.62500  0.12500  0.12500  1.0000
  Cd  Cd6       1.0  0.37500  0.87500  0.87500  1.0000
  H   H1        1.0  0.01289  0.84364  0.84364  1.0000
  H   H2        1.0  0.79982  0.84364  0.84364  1.0000
  H   H3        1.0  0.34364  0.29982  0.51289  1.0000
  H   H4        1.0  0.34364  0.51289  0.29982  1.0000
  H   H5        1.0  0.01289  0.29982  0.84364  1.0000
  H   H6        1.0  0.79982  0.51289  0.84364  1.0000
  H   H7        1.0  0.34364  0.84364  0.29983  1.0000
  H   H8        1.0  0.34364  0.84364  0.51290  1.0000
  H   H9        1.0  0.01289  0.84364  0.29982  1.0000
  H   H10       1.0  0.79982  0.84364  0.51289  1.0000
  H   H11       1.0  0.34364  0.51289  0.84364  1.0000
  H   H12       1.0  0.34364  0.29983  0.84364  1.0000
  H   H13       1.0  0.20018  0.15636  0.15636  1.0000
  H   H14       1.0  0.98711  0.15636  0.15636  1.0000
  H   H15       1.0  0.65636  0.70018  0.48711  1.0000
  H   H16       1.0  0.65636  0.48711  0.70018  1.0000
  H   H17       1.0  0.65636  0.70018  0.15636  1.0000
  H   H18       1.0  0.65636  0.48711  0.15636  1.0000
  H   H19       1.0  0.98710  0.15636  0.70018  1.0000
  H   H20       1.0  0.20018  0.15636  0.48710  1.0000
  H   H21       1.0  0.65636  0.15636  0.70017  1.0000
  H   H22       1.0  0.65636  0.15636  0.48711  1.0000
  H   H23       1.0  0.20018  0.48710  0.15636  1.0000
  H   H24       1.0  0.98710  0.70018  0.15636  1.0000
  C   C1        1.0  0.91532  0.88709  0.88709  1.0000
  C   C2        1.0  0.81050  0.88709  0.88709  1.0000
  C   C3        1.0  0.38709  0.31050  0.41532  1.0000
  C   C4        1.0  0.38709  0.41532  0.31050  1.0000
  C   C5        1.0  0.91532  0.31050  0.88709  1.0000
  C   C6        1.0  0.81050  0.41532  0.88709  1.0000
  C   C7        1.0  0.38709  0.88709  0.31050  1.0000
  C   C8        1.0  0.38709  0.88709  0.41532  1.0000
  C   C9        1.0  0.91532  0.88709  0.31050  1.0000
  C   C10       1.0  0.81050  0.88709  0.41532  1.0000
  C   C11       1.0  0.38709  0.41532  0.88709  1.0000
  C   C12       1.0  0.38709  0.31050  0.88709  1.0000
  C   C13       1.0  0.18950  0.11291  0.11291  1.0000
  C   C14       1.0  0.08468  0.11291  0.11291  1.0000
  C   C15       1.0  0.61291  0.68950  0.58468  1.0000
  C   C16       1.0  0.61291  0.58468  0.68950  1.0000
  C   C17       1.0  0.61291  0.68950  0.11291  1.0000
  C   C18       1.0  0.61291  0.58468  0.11291  1.0000
  C   C19       1.0  0.08468  0.11291  0.68950  1.0000
  C   C20       1.0  0.18950  0.11291  0.58468  1.0000
  C   C21       1.0  0.61291  0.11291  0.68950  1.0000
  C   C22       1.0  0.61291  0.11291  0.58468  1.0000
  C   C23       1.0  0.18950  0.58468  0.11291  1.0000
  C   C24       1.0  0.08468  0.68950  0.11291  1.0000
  N   N1        1.0  0.87638  0.95618  0.95618  1.0000
  N   N2        1.0  0.71126  0.95618  0.95618  1.0000
  N   N3        1.0  0.45618  0.21126  0.37638  1.0000
  N   N4        1.0  0.45618  0.37638  0.21126  1.0000
  N   N5        1.0  0.87638  0.21126  0.95618  1.0000
  N   N6        1.0  0.71126  0.37638  0.95618  1.0000
  N   N7        1.0  0.45618  0.95618  0.21126  1.0000
  N   N8        1.0  0.45618  0.95618  0.37638  1.0000
  N   N9        1.0  0.87638  0.95618  0.21126  1.0000
  N   N10       1.0  0.71126  0.95618  0.37638  1.0000
  N   N11       1.0  0.45618  0.37638  0.95618  1.0000
  N   N12       1.0  0.45618  0.21126  0.95618  1.0000
  N   N13       1.0  0.28874  0.04382  0.04382  1.0000
  N   N14       1.0  0.12362  0.04382  0.04382  1.0000
  N   N15       1.0  0.54382  0.78874  0.62361  1.0000
  N   N16       1.0  0.54382  0.62362  0.78874  1.0000
  N   N17       1.0  0.54382  0.78874  0.04382  1.0000
  N   N18       1.0  0.54382  0.62362  0.04382  1.0000
  N   N19       1.0  0.12362  0.04382  0.78874  1.0000
  N   N20       1.0  0.28874  0.04382  0.62362  1.0000
  N   N21       1.0  0.54382  0.04382  0.78874  1.0000
  N   N22       1.0  0.54382  0.04382  0.62362  1.0000
  N   N23       1.0  0.28874  0.62362  0.04382  1.0000
  N   N24       1.0  0.12362  0.78874  0.04382  1.0000
  N   N25       1.0  0.75289  0.99711  0.99711  1.0000
  N   N26       1.0  0.49711  0.25289  0.25289  1.0000
  N   N27       1.0  0.75289  0.25289  0.99711  1.0000
  N   N28       1.0  0.49711  0.99711  0.25289  1.0000
  N   N29       1.0  0.75289  0.99711  0.25289  1.0000
  N   N30       1.0  0.49711  0.25289  0.99711  1.0000
  N   N31       1.0  0.24711  0.00289  0.00289  1.0000
  N   N32       1.0  0.50289  0.74711  0.74711  1.0000
  N   N33       1.0  0.50289  0.74711  0.00289  1.0000
  N   N34       1.0  0.24711  0.00289  0.74711  1.0000
  N   N35       1.0  0.50289  0.00289  0.74711  1.0000
  N   N36       1.0  0.24711  0.74711  0.00289  1.0000
