data_image0
_chemical_formula_structural       Zn6H24C24N36
_chemical_formula_sum              "Zn6 H24 C24 N36"
_cell_length_a       12.5203
_cell_length_b       12.5203
_cell_length_c       12.5203
_cell_angle_alpha    60
_cell_angle_beta     60
_cell_angle_gamma    60

_space_group_name_H-M_alt    "P 1"
_space_group_IT_number       1

loop_
  _space_group_symop_operation_xyz
  'x, y, z'

loop_
  _atom_site_type_symbol
  _atom_site_label
  _atom_site_symmetry_multiplicity
  _atom_site_fract_x
  _atom_site_fract_y
  _atom_site_fract_z
  _atom_site_occupancy
  Zn  Zn1       1.0  0.50000  0.50000  0.50000  1.0000
  Zn  Zn2       1.0  0.00000  0.50000  0.50000  1.0000
  Zn  Zn3       1.0  1.00000  0.50000  0.00000  1.0000
  Zn  Zn4       1.0  0.00000  1.00000  0.50000  1.0000
  Zn  Zn5       1.0  0.12500  0.62500  0.62500  1.0000
  Zn  Zn6       1.0  0.87500  0.37500  0.37500  1.0000
  H   H1        1.0  0.52354  0.33944  0.33944  1.0000
  H   H2        1.0  0.29757  0.33944  0.33944  1.0000
  H   H3        1.0  0.83944  0.79757  0.02354  1.0000
  H   H4        1.0  0.83944  0.02354  0.79757  1.0000
  H   H5        1.0  0.52354  0.79757  0.33944  1.0000
  H   H6        1.0  0.29757  0.02354  0.33944  1.0000
  H   H7        1.0  0.83944  0.33944  0.79757  1.0000
  H   H8        1.0  0.83944  0.33944  0.02354  1.0000
  H   H9        1.0  0.52354  0.33944  0.79757  1.0000
  H   H10       1.0  0.29757  0.33944  0.02354  1.0000
  H   H11       1.0  0.83944  0.02354  0.33944  1.0000
  H   H12       1.0  0.83944  0.79757  0.33944  1.0000
  H   H13       1.0  0.70243  0.66056  0.66056  1.0000
  H   H14       1.0  0.47646  0.66056  0.66056  1.0000
  H   H15       1.0  0.16056  0.20243  0.97646  1.0000
  H   H16       1.0  0.16056  0.97646  0.20243  1.0000
  H   H17       1.0  0.16056  0.20243  0.66056  1.0000
  H   H18       1.0  0.16056  0.97646  0.66056  1.0000
  H   H19       1.0  0.47646  0.66056  0.20243  1.0000
  H   H20       1.0  0.70242  0.66056  0.97646  1.0000
  H   H21       1.0  0.16056  0.66056  0.20243  1.0000
  H   H22       1.0  0.16056  0.66056  0.97646  1.0000
  H   H23       1.0  0.70243  0.97646  0.66056  1.0000
  H   H24       1.0  0.47646  0.20243  0.66056  1.0000
  C   C1        1.0  0.42027  0.38510  0.38510  1.0000
  C   C2        1.0  0.30954  0.38510  0.38510  1.0000
  C   C3        1.0  0.88510  0.80954  0.92027  1.0000
  C   C4        1.0  0.88510  0.92027  0.80954  1.0000
  C   C5        1.0  0.42027  0.80954  0.38510  1.0000
  C   C6        1.0  0.30954  0.92027  0.38510  1.0000
  C   C7        1.0  0.88510  0.38510  0.80954  1.0000
  C   C8        1.0  0.88510  0.38510  0.92027  1.0000
  C   C9        1.0  0.42027  0.38510  0.80954  1.0000
  C   C10       1.0  0.30954  0.38510  0.92027  1.0000
  C   C11       1.0  0.88510  0.92027  0.38510  1.0000
  C   C12       1.0  0.88510  0.80954  0.38510  1.0000
  C   C13       1.0  0.69046  0.61490  0.61490  1.0000
  C   C14       1.0  0.57973  0.61490  0.61490  1.0000
  C   C15       1.0  0.11490  0.19046  0.07973  1.0000
  C   C16       1.0  0.11490  0.07973  0.19046  1.0000
  C   C17       1.0  0.11490  0.19046  0.61490  1.0000
  C   C18       1.0  0.11490  0.07973  0.61490  1.0000
  C   C19       1.0  0.57973  0.61490  0.19046  1.0000
  C   C20       1.0  0.69046  0.61490  0.07973  1.0000
  C   C21       1.0  0.11490  0.61490  0.19046  1.0000
  C   C22       1.0  0.11490  0.61490  0.07973  1.0000
  C   C23       1.0  0.69046  0.07973  0.61490  1.0000
  C   C24       1.0  0.57973  0.19046  0.61490  1.0000
  N   N1        1.0  0.37907  0.45813  0.45813  1.0000
  N   N2        1.0  0.20466  0.45813  0.45813  1.0000
  N   N3        1.0  0.95813  0.70466  0.87907  1.0000
  N   N4        1.0  0.95813  0.87907  0.70466  1.0000
  N   N5        1.0  0.37907  0.70466  0.45813  1.0000
  N   N6        1.0  0.20466  0.87907  0.45813  1.0000
  N   N7        1.0  0.95813  0.45813  0.70466  1.0000
  N   N8        1.0  0.95813  0.45813  0.87907  1.0000
  N   N9        1.0  0.37907  0.45813  0.70466  1.0000
  N   N10       1.0  0.20466  0.45813  0.87907  1.0000
  N   N11       1.0  0.95813  0.87907  0.45813  1.0000
  N   N12       1.0  0.95813  0.70466  0.45813  1.0000
  N   N13       1.0  0.79534  0.54187  0.54187  1.0000
  N   N14       1.0  0.62093  0.54187  0.54187  1.0000
  N   N15       1.0  0.04187  0.29534  0.12093  1.0000
  N   N16       1.0  0.04187  0.12093  0.29534  1.0000
  N   N17       1.0  0.04187  0.29534  0.54187  1.0000
  N   N18       1.0  0.04187  0.12093  0.54187  1.0000
  N   N19       1.0  0.62093  0.54187  0.29534  1.0000
  N   N20       1.0  0.79534  0.54187  0.12093  1.0000
  N   N21       1.0  0.04187  0.54187  0.29534  1.0000
  N   N22       1.0  0.04187  0.54187  0.12093  1.0000
  N   N23       1.0  0.79534  0.12093  0.54187  1.0000
  N   N24       1.0  0.62093  0.29534  0.54187  1.0000
  N   N25       1.0  0.24865  0.50135  0.50135  1.0000
  N   N26       1.0  0.00135  0.74865  0.74865  1.0000
  N   N27       1.0  0.24865  0.74865  0.50135  1.0000
  N   N28       1.0  0.00135  0.50135  0.74865  1.0000
  N   N29       1.0  0.24865  0.50135  0.74865  1.0000
  N   N30       1.0  0.00135  0.74865  0.50135  1.0000
  N   N31       1.0  0.75135  0.49865  0.49865  1.0000
  N   N32       1.0  0.99865  0.25135  0.25135  1.0000
  N   N33       1.0  0.99865  0.25135  0.49865  1.0000
  N   N34       1.0  0.75135  0.49865  0.25135  1.0000
  N   N35       1.0  0.99865  0.49865  0.25135  1.0000
  N   N36       1.0  0.75135  0.25135  0.49865  1.0000
