data_image0
_chemical_formula_structural       Ag4H12C16N8O4
_chemical_formula_sum              "Ag4 H12 C16 N8 O4"
_cell_length_a       7.44553
_cell_length_b       8.49814
_cell_length_c       8.49989
_cell_angle_alpha    94.0284
_cell_angle_beta     90.0517
_cell_angle_gamma    89.974

_space_group_name_H-M_alt    "P 1"
_space_group_IT_number       1

loop_
  _space_group_symop_operation_xyz
  'x, y, z'

loop_
  _atom_site_type_symbol
  _atom_site_label
  _atom_site_symmetry_multiplicity
  _atom_site_fract_x
  _atom_site_fract_y
  _atom_site_fract_z
  _atom_site_occupancy
  Ag  Ag1       1.0  0.00010  0.49995  0.99998  1.0000
  Ag  Ag2       1.0  0.49990  0.50003  0.00004  1.0000
  Ag  Ag3       1.0  0.50014  0.00003  0.50005  1.0000
  Ag  Ag4       1.0  0.99988  0.99995  0.49996  1.0000
  H   H1        1.0  0.18920  0.65601  0.71192  1.0000
  H   H2        1.0  0.31097  0.78839  0.84383  1.0000
  H   H3        1.0  0.68960  0.84395  0.78839  1.0000
  H   H4        1.0  0.81027  0.71186  0.65572  1.0000
  H   H5        1.0  0.81097  0.34382  0.28798  1.0000
  H   H6        1.0  0.68890  0.21180  0.15631  1.0000
  H   H7        1.0  0.31088  0.15623  0.21178  1.0000
  H   H8        1.0  0.18925  0.28804  0.34406  1.0000
  H   H9        1.0  0.29295  0.55978  0.44032  1.0000
  H   H10       1.0  0.20702  0.06010  0.94003  1.0000
  H   H11       1.0  0.79312  0.94013  0.06017  1.0000
  H   H12       1.0  0.70687  0.44009  0.55950  1.0000
  C   C1        1.0  0.93672  0.71874  0.28113  1.0000
  C   C2        1.0  0.56370  0.21890  0.78120  1.0000
  C   C3        1.0  0.43630  0.78116  0.21890  1.0000
  C   C4        1.0  0.06329  0.28114  0.71879  1.0000
  C   C5        1.0  0.17082  0.53340  0.66878  1.0000
  C   C6        1.0  0.32916  0.83144  0.96647  1.0000
  C   C7        1.0  0.67111  0.96656  0.83146  1.0000
  C   C8        1.0  0.82891  0.66870  0.53320  1.0000
  C   C9        1.0  0.82921  0.46645  0.33108  1.0000
  C   C10       1.0  0.67080  0.16871  0.03367  1.0000
  C   C11       1.0  0.32914  0.03360  0.16870  1.0000
  C   C12       1.0  0.17083  0.33120  0.46662  1.0000
  C   C13       1.0  0.22240  0.48306  0.51697  1.0000
  C   C14       1.0  0.27753  0.98332  0.01679  1.0000
  C   C15       1.0  0.72259  0.01687  0.98338  1.0000
  C   C16       1.0  0.77742  0.51681  0.48284  1.0000
  N   N1        1.0  0.90942  0.56051  0.23245  1.0000
  N   N2        1.0  0.59072  0.26748  0.93948  1.0000
  N   N3        1.0  0.40924  0.93945  0.26748  1.0000
  N   N4        1.0  0.09063  0.23247  0.56060  1.0000
  N   N5        1.0  0.09066  0.43935  0.76745  1.0000
  N   N6        1.0  0.40924  0.73262  0.06061  1.0000
  N   N7        1.0  0.59096  0.06063  0.73264  1.0000
  N   N8        1.0  0.90919  0.76743  0.43927  1.0000
  O   O1        1.0  0.98913  0.81393  0.18598  1.0000
  O   O2        1.0  0.51174  0.31419  0.68586  1.0000
  O   O3        1.0  0.48814  0.68579  0.31421  1.0000
  O   O4        1.0  0.01097  0.18593  0.81396  1.0000
