data_image0
_chemical_formula_structural       Zn2H46C64N10O8
_chemical_formula_sum              "Zn2 H46 C64 N10 O8"
_cell_length_a       9.80599
_cell_length_b       10.0864
_cell_length_c       14.9761
_cell_angle_alpha    72.8894
_cell_angle_beta     84.2301
_cell_angle_gamma    63.6207

_space_group_name_H-M_alt    "P 1"
_space_group_IT_number       1

loop_
  _space_group_symop_operation_xyz
  'x, y, z'

loop_
  _atom_site_type_symbol
  _atom_site_label
  _atom_site_symmetry_multiplicity
  _atom_site_fract_x
  _atom_site_fract_y
  _atom_site_fract_z
  _atom_site_occupancy
  Zn  Zn1       1.0  0.26842  0.27337  0.34639  1.0000
  Zn  Zn2       1.0  0.73157  0.72663  0.65362  1.0000
  H   H1        1.0  0.54452  0.35277  0.54249  1.0000
  H   H2        1.0  0.45548  0.64723  0.45751  1.0000
  H   H3        1.0  0.58511  0.41829  0.68220  1.0000
  H   H4        1.0  0.41490  0.58171  0.31781  1.0000
  H   H5        1.0  0.10982  0.54925  0.74564  1.0000
  H   H6        1.0  0.89018  0.45075  0.25436  1.0000
  H   H7        1.0  0.06960  0.50096  0.60111  1.0000
  H   H8        1.0  0.93040  0.49903  0.39889  1.0000
  H   H9        1.0  0.20039  0.38507  0.88773  1.0000
  H   H10       1.0  0.79961  0.61493  0.11227  1.0000
  H   H11       1.0  0.13055  0.36451  0.05222  1.0000
  H   H12       1.0  0.86945  0.63549  0.94778  1.0000
  H   H13       1.0  0.33134  0.65993  0.06613  1.0000
  H   H14       1.0  0.66866  0.34006  0.93387  1.0000
  H   H15       1.0  0.39600  0.68771  0.90004  1.0000
  H   H16       1.0  0.60401  0.31228  0.09996  1.0000
  H   H17       1.0  0.57473  0.92719  0.41699  1.0000
  H   H18       1.0  0.42526  0.07281  0.58300  1.0000
  H   H19       1.0  0.39282  0.21503  0.14818  1.0000
  H   H20       1.0  0.60717  0.78498  0.85182  1.0000
  H   H21       1.0  0.76987  0.80458  0.28562  1.0000
  H   H22       1.0  0.23012  0.19542  0.71439  1.0000
  H   H23       1.0  0.46108  0.17542  0.02116  1.0000
  H   H24       1.0  0.53892  0.82458  0.97884  1.0000
  H   H25       1.0  0.58013  0.18039  0.86949  1.0000
  H   H26       1.0  0.41988  0.81961  0.13051  1.0000
  H   H27       1.0  0.00570  0.82171  0.00504  1.0000
  H   H28       1.0  0.99430  0.17829  0.99496  1.0000
  H   H29       1.0  0.88954  0.81984  0.15815  1.0000
  H   H30       1.0  0.11046  0.18016  0.84185  1.0000
  H   H31       1.0  0.77170  0.26374  0.78965  1.0000
  H   H32       1.0  0.22830  0.73626  0.21035  1.0000
  H   H33       1.0  0.89626  0.28534  0.64035  1.0000
  H   H34       1.0  0.10375  0.71466  0.35965  1.0000
  H   H35       1.0  0.13813  0.78739  0.71033  1.0000
  H   H36       1.0  0.86187  0.21261  0.28967  1.0000
  H   H37       1.0  0.00778  0.76739  0.85827  1.0000
  H   H38       1.0  0.99222  0.23260  0.14173  1.0000
  H   H39       1.0  0.03852  0.29098  0.52539  1.0000
  H   H40       1.0  0.96149  0.70902  0.47461  1.0000
  H   H41       1.0  0.30269  0.92801  0.40557  1.0000
  H   H42       1.0  0.69731  0.07199  0.59443  1.0000
  H   H43       1.0  0.20585  0.80610  0.57575  1.0000
  H   H44       1.0  0.79414  0.19390  0.42425  1.0000
  H   H45       1.0  0.48195  0.53921  0.79404  1.0000
  H   H46       1.0  0.51805  0.46079  0.20596  1.0000
  C   C1        1.0  0.27651  0.39731  0.47433  1.0000
  C   C2        1.0  0.72350  0.60269  0.52567  1.0000
  C   C3        1.0  0.30375  0.42652  0.56102  1.0000
  C   C4        1.0  0.69625  0.57348  0.43898  1.0000
  C   C5        1.0  0.45011  0.39750  0.58689  1.0000
  C   C6        1.0  0.54989  0.60250  0.41311  1.0000
  C   C7        1.0  0.47358  0.43113  0.66561  1.0000
  C   C8        1.0  0.52642  0.56888  0.33439  1.0000
  C   C9        1.0  0.35211  0.48662  0.72437  1.0000
  C   C10       1.0  0.64790  0.51338  0.27563  1.0000
  C   C11       1.0  0.20640  0.50764  0.70175  1.0000
  C   C12       1.0  0.79360  0.49235  0.29825  1.0000
  C   C13       1.0  0.18308  0.48149  0.61949  1.0000
  C   C14       1.0  0.81692  0.51851  0.38051  1.0000
  C   C15       1.0  0.31196  0.53153  0.88328  1.0000
  C   C16       1.0  0.68804  0.46848  0.11672  1.0000
  C   C17       1.0  0.22746  0.44805  0.92548  1.0000
  C   C18       1.0  0.77254  0.55194  0.07452  1.0000
  C   C19       1.0  0.18820  0.43624  0.01866  1.0000
  C   C20       1.0  0.81180  0.56375  0.98134  1.0000
  C   C21       1.0  0.23030  0.50659  0.07223  1.0000
  C   C22       1.0  0.76970  0.49341  0.92777  1.0000
  C   C23       1.0  0.30102  0.60152  0.02661  1.0000
  C   C24       1.0  0.69898  0.39848  0.97339  1.0000
  C   C25       1.0  0.33822  0.61637  0.93401  1.0000
  C   C26       1.0  0.66178  0.38363  0.06599  1.0000
  C   C27       1.0  0.23061  0.46075  0.17624  1.0000
  C   C28       1.0  0.76939  0.53925  0.82376  1.0000
  C   C29       1.0  0.56701  0.97123  0.34134  1.0000
  C   C30       1.0  0.43298  0.02877  0.65866  1.0000
  C   C31       1.0  0.46775  0.12208  0.20400  1.0000
  C   C32       1.0  0.53225  0.87793  0.79600  1.0000
  C   C33       1.0  0.66516  0.90917  0.27695  1.0000
  C   C34       1.0  0.33485  0.09083  0.72304  1.0000
  C   C35       1.0  0.66736  0.99859  0.10088  1.0000
  C   C36       1.0  0.33263  0.00142  0.89912  1.0000
  C   C37       1.0  0.58093  0.09805  0.01888  1.0000
  C   C38       1.0  0.41907  0.90196  0.98112  1.0000
  C   C39       1.0  0.64868  0.10093  0.93265  1.0000
  C   C40       1.0  0.35131  0.89907  0.06736  1.0000
  C   C41       1.0  0.80287  0.00300  0.92571  1.0000
  C   C42       1.0  0.19713  0.99699  0.07429  1.0000
  C   C43       1.0  0.88571  0.89869  0.00832  1.0000
  C   C44       1.0  0.11428  0.10131  0.99168  1.0000
  C   C45       1.0  0.81975  0.89671  0.09522  1.0000
  C   C46       1.0  0.18024  0.10329  0.90478  1.0000
  C   C47       1.0  0.87775  0.01365  0.83520  1.0000
  C   C48       1.0  0.12225  0.98635  0.16480  1.0000
  C   C49       1.0  0.84891  0.15802  0.77193  1.0000
  C   C50       1.0  0.15109  0.84198  0.22807  1.0000
  C   C51       1.0  0.92136  0.17071  0.68708  1.0000
  C   C52       1.0  0.07864  0.82929  0.31292  1.0000
  C   C53       1.0  0.02542  0.03672  0.66428  1.0000
  C   C54       1.0  0.97458  0.96328  0.33572  1.0000
  C   C55       1.0  0.05697  0.89221  0.72691  1.0000
  C   C56       1.0  0.94303  0.10779  0.27309  1.0000
  C   C57       1.0  0.98349  0.88121  0.81124  1.0000
  C   C58       1.0  0.01651  0.11878  0.18876  1.0000
  C   C59       1.0  0.09657  0.17683  0.51487  1.0000
  C   C60       1.0  0.90343  0.82317  0.48513  1.0000
  C   C61       1.0  0.23288  0.98537  0.45590  1.0000
  C   C62       1.0  0.76711  0.01464  0.54410  1.0000
  C   C63       1.0  0.18608  0.92360  0.54032  1.0000
  C   C64       1.0  0.81392  0.07640  0.45968  1.0000
  N   N1        1.0  0.44445  0.10447  0.29474  1.0000
  N   N2        1.0  0.55554  0.89554  0.70525  1.0000
  N   N3        1.0  0.60154  0.00637  0.18949  1.0000
  N   N4        1.0  0.39846  0.99364  0.81051  1.0000
  N   N5        1.0  0.09917  0.04602  0.57736  1.0000
  N   N6        1.0  0.90083  0.95398  0.42264  1.0000
  N   N7        1.0  0.17690  0.14288  0.44077  1.0000
  N   N8        1.0  0.82309  0.85712  0.55923  1.0000
  N   N9        1.0  0.38170  0.52779  0.79842  1.0000
  N   N10       1.0  0.61830  0.47221  0.20158  1.0000
  O   O1        1.0  0.38616  0.28977  0.44531  1.0000
  O   O2        1.0  0.61384  0.71023  0.55469  1.0000
  O   O3        1.0  0.14681  0.47404  0.43229  1.0000
  O   O4        1.0  0.85320  0.52595  0.56771  1.0000
  O   O5        1.0  0.15265  0.38718  0.21926  1.0000
  O   O6        1.0  0.84736  0.61282  0.78074  1.0000
  O   O7        1.0  0.32076  0.48042  0.22063  1.0000
  O   O8        1.0  0.67924  0.51957  0.77937  1.0000
