data_image0
_chemical_formula_structural       Cd2H46C64N10O8
_chemical_formula_sum              "Cd2 H46 C64 N10 O8"
_cell_length_a       9.66903
_cell_length_b       10.1327
_cell_length_c       15.2955
_cell_angle_alpha    72.8858
_cell_angle_beta     84.8732
_cell_angle_gamma    63.8625

_space_group_name_H-M_alt    "P 1"
_space_group_IT_number       1

loop_
  _space_group_symop_operation_xyz
  'x, y, z'

loop_
  _atom_site_type_symbol
  _atom_site_label
  _atom_site_symmetry_multiplicity
  _atom_site_fract_x
  _atom_site_fract_y
  _atom_site_fract_z
  _atom_site_occupancy
  Cd  Cd1       1.0  0.24840  0.20667  0.65758  1.0000
  Cd  Cd2       1.0  0.75160  0.79333  0.34242  1.0000
  H   H1        1.0  0.00607  0.95306  0.20619  1.0000
  H   H2        1.0  0.99393  0.04693  0.79381  1.0000
  H   H3        1.0  0.42547  0.99457  0.39664  1.0000
  H   H4        1.0  0.57453  0.00543  0.60336  1.0000
  H   H5        1.0  0.38329  0.94118  0.25622  1.0000
  H   H6        1.0  0.61671  0.05882  0.74379  1.0000
  H   H7        1.0  0.90272  0.07386  0.31641  1.0000
  H   H8        1.0  0.09729  0.92614  0.68359  1.0000
  H   H9        1.0  0.94482  0.14521  0.45052  1.0000
  H   H10       1.0  0.05518  0.85479  0.54948  1.0000
  H   H11       1.0  0.28892  0.10776  0.12289  1.0000
  H   H12       1.0  0.71108  0.89224  0.87712  1.0000
  H   H13       1.0  0.36865  0.13030  0.96384  1.0000
  H   H14       1.0  0.63135  0.86970  0.03617  1.0000
  H   H15       1.0  0.17113  0.83665  0.93847  1.0000
  H   H16       1.0  0.82887  0.16335  0.06153  1.0000
  H   H17       1.0  0.09758  0.80624  0.09949  1.0000
  H   H18       1.0  0.90242  0.19376  0.90051  1.0000
  H   H19       1.0  0.48036  0.21132  0.47114  1.0000
  H   H20       1.0  0.51964  0.78868  0.52886  1.0000
  H   H21       1.0  0.20106  0.57432  0.58240  1.0000
  H   H22       1.0  0.79894  0.42568  0.41760  1.0000
  H   H23       1.0  0.28696  0.69745  0.41297  1.0000
  H   H24       1.0  0.71304  0.30255  0.58703  1.0000
  H   H25       1.0  0.37160  0.71380  0.28555  1.0000
  H   H26       1.0  0.62840  0.28620  0.71445  1.0000
  H   H27       1.0  0.49889  0.73320  0.14017  1.0000
  H   H28       1.0  0.50111  0.26680  0.85983  1.0000
  H   H29       1.0  0.72759  0.23922  0.20649  1.0000
  H   H30       1.0  0.27241  0.76078  0.79351  1.0000
  H   H31       1.0  0.60666  0.21860  0.35365  1.0000
  H   H32       1.0  0.39334  0.78140  0.64635  1.0000
  H   H33       1.0  0.49437  0.68185  0.99460  1.0000
  H   H34       1.0  0.50563  0.31815  0.00540  1.0000
  H   H35       1.0  0.60937  0.68421  0.84503  1.0000
  H   H36       1.0  0.39063  0.31579  0.15497  1.0000
  H   H37       1.0  0.04129  0.32231  0.97969  1.0000
  H   H38       1.0  0.95871  0.67769  0.02031  1.0000
  H   H39       1.0  0.92346  0.31743  0.12769  1.0000
  H   H40       1.0  0.07654  0.68257  0.87231  1.0000
  H   H41       1.0  0.72714  0.69638  0.71953  1.0000
  H   H42       1.0  0.27286  0.30362  0.28047  1.0000
  H   H43       1.0  0.92430  0.57706  0.59145  1.0000
  H   H44       1.0  0.07570  0.42294  0.40855  1.0000
  H   H45       1.0  0.11095  0.28786  0.85485  1.0000
  H   H46       1.0  0.88905  0.71214  0.14515  1.0000
  C   C1        1.0  0.18841  0.07088  0.43360  1.0000
  C   C2        1.0  0.81159  0.92912  0.56640  1.0000
  C   C3        1.0  0.31061  0.01327  0.37799  1.0000
  C   C4        1.0  0.68939  0.98673  0.62201  1.0000
  C   C5        1.0  0.28646  0.98346  0.29881  1.0000
  C   C6        1.0  0.71354  0.01654  0.70119  1.0000
  C   C7        1.0  0.13869  0.00360  0.27636  1.0000
  C   C8        1.0  0.86131  0.99640  0.72364  1.0000
  C   C9        1.0  0.01609  0.06093  0.33264  1.0000
  C   C10       1.0  0.98391  0.93907  0.66736  1.0000
  C   C11       1.0  0.04021  0.09820  0.40818  1.0000
  C   C12       1.0  0.95979  0.90180  0.59181  1.0000
  C   C13       1.0  0.18027  0.96042  0.12153  1.0000
  C   C14       1.0  0.81973  0.03958  0.87847  1.0000
  C   C15       1.0  0.26486  0.04560  0.08386  1.0000
  C   C16       1.0  0.73514  0.95440  0.91614  1.0000
  C   C17       1.0  0.30976  0.05854  0.99396  1.0000
  C   C18       1.0  0.69025  0.94146  0.00604  1.0000
  C   C19       1.0  0.27233  0.98843  0.93895  1.0000
  C   C20       1.0  0.72767  0.01157  0.06105  1.0000
  C   C21       1.0  0.19876  0.89418  0.97934  1.0000
  C   C22       1.0  0.80124  0.10582  0.02066  1.0000
  C   C23       1.0  0.15680  0.87762  0.06924  1.0000
  C   C24       1.0  0.84320  0.12238  0.93076  1.0000
  C   C25       1.0  0.28689  0.03222  0.83818  1.0000
  C   C26       1.0  0.71311  0.96778  0.16182  1.0000
  C   C27       1.0  0.41718  0.32574  0.47936  1.0000
  C   C28       1.0  0.58281  0.67426  0.52064  1.0000
  C   C29       1.0  0.27316  0.51694  0.53408  1.0000
  C   C30       1.0  0.72684  0.48306  0.46592  1.0000
  C   C31       1.0  0.31465  0.57932  0.44983  1.0000
  C   C32       1.0  0.68536  0.42068  0.55017  1.0000
  C   C33       1.0  0.47977  0.46594  0.33025  1.0000
  C   C34       1.0  0.52022  0.53406  0.66975  1.0000
  C   C35       1.0  0.44993  0.60932  0.26877  1.0000
  C   C36       1.0  0.55007  0.39068  0.73123  1.0000
  C   C37       1.0  0.52160  0.61990  0.18569  1.0000
  C   C38       1.0  0.47840  0.38010  0.81431  1.0000
  C   C39       1.0  0.62452  0.48783  0.16168  1.0000
  C   C40       1.0  0.37548  0.51216  0.83832  1.0000
  C   C41       1.0  0.65247  0.34452  0.22403  1.0000
  C   C42       1.0  0.34753  0.65548  0.77596  1.0000
  C   C43       1.0  0.58175  0.33240  0.30756  1.0000
  C   C44       1.0  0.41825  0.66760  0.69244  1.0000
  C   C45       1.0  0.69861  0.49775  0.07281  1.0000
  C   C46       1.0  0.30140  0.50225  0.92719  1.0000
  C   C47       1.0  0.61497  0.60361  0.99171  1.0000
  C   C48       1.0  0.38503  0.39639  0.00829  1.0000
  C   C49       1.0  0.68034  0.60562  0.90664  1.0000
  C   C50       1.0  0.31966  0.39438  0.09336  1.0000
  C   C51       1.0  0.83331  0.50229  0.90101  1.0000
  C   C52       1.0  0.16669  0.49771  0.09899  1.0000
  C   C53       1.0  0.92064  0.40078  0.98149  1.0000
  C   C54       1.0  0.07936  0.59922  0.01851  1.0000
  C   C55       1.0  0.85349  0.39808  0.06588  1.0000
  C   C56       1.0  0.14651  0.60192  0.93412  1.0000
  C   C57       1.0  0.83379  0.59308  0.72848  1.0000
  C   C58       1.0  0.16621  0.40692  0.27152  1.0000
  C   C59       1.0  0.93278  0.53257  0.66559  1.0000
  C   C60       1.0  0.06721  0.46744  0.33441  1.0000
  C   C61       1.0  0.03436  0.38093  0.80015  1.0000
  C   C62       1.0  0.96564  0.61907  0.19985  1.0000
  C   C63       1.0  0.21286  0.10473  0.51762  1.0000
  C   C64       1.0  0.78714  0.89527  0.48239  1.0000
  N   N1        1.0  0.33789  0.35929  0.55178  1.0000
  N   N2        1.0  0.66211  0.64071  0.44822  1.0000
  N   N3        1.0  0.40686  0.45701  0.41542  1.0000
  N   N4        1.0  0.59314  0.54299  0.58458  1.0000
  N   N5        1.0  0.89883  0.49547  0.81435  1.0000
  N   N6        1.0  0.10117  0.50453  0.18565  1.0000
  N   N7        1.0  0.05721  0.39996  0.71138  1.0000
  N   N8        1.0  0.94279  0.60004  0.28862  1.0000
  N   N9        1.0  0.10914  0.96106  0.20421  1.0000
  N   N10       1.0  0.89086  0.03894  0.79579  1.0000
  O   O1        1.0  0.10052  0.21165  0.54312  1.0000
  O   O2        1.0  0.89949  0.78835  0.45688  1.0000
  O   O3        1.0  0.34439  0.02799  0.56132  1.0000
  O   O4        1.0  0.65561  0.97201  0.43868  1.0000
  O   O5        1.0  0.37465  0.09738  0.80347  1.0000
  O   O6        1.0  0.62535  0.90262  0.19653  1.0000
  O   O7        1.0  0.19891  0.01720  0.78747  1.0000
  O   O8        1.0  0.80110  0.98280  0.21253  1.0000
