data_image0
_chemical_formula_structural       La2H38C30N8O16
_chemical_formula_sum              "La2 H38 C30 N8 O16"
_cell_length_a       9.31584
_cell_length_b       10.7851
_cell_length_c       11.2639
_cell_angle_alpha    75.0252
_cell_angle_beta     66.4955
_cell_angle_gamma    67.414

_space_group_name_H-M_alt    "P 1"
_space_group_IT_number       1

loop_
  _space_group_symop_operation_xyz
  'x, y, z'

loop_
  _atom_site_type_symbol
  _atom_site_label
  _atom_site_symmetry_multiplicity
  _atom_site_fract_x
  _atom_site_fract_y
  _atom_site_fract_z
  _atom_site_occupancy
  La  La1       1.0  0.69221  0.32670  0.31627  1.0000
  La  La2       1.0  0.30779  0.67330  0.68373  1.0000
  H   H1        1.0  0.75623  0.02712  0.51184  1.0000
  H   H2        1.0  0.24377  0.97288  0.48816  1.0000
  H   H3        1.0  0.60303  0.94239  0.78597  1.0000
  H   H4        1.0  0.39696  0.05761  0.21403  1.0000
  H   H5        1.0  0.79575  0.85541  0.67618  1.0000
  H   H6        1.0  0.20424  0.14459  0.32382  1.0000
  H   H7        1.0  0.61129  0.83139  0.68827  1.0000
  H   H8        1.0  0.38871  0.16861  0.31173  1.0000
  H   H9        1.0  0.35902  0.01260  0.72512  1.0000
  H   H10       1.0  0.64097  0.98740  0.27488  1.0000
  H   H11       1.0  0.22202  0.30058  0.62464  1.0000
  H   H12       1.0  0.77797  0.69942  0.37536  1.0000
  H   H13       1.0  0.11189  0.19557  0.74655  1.0000
  H   H14       1.0  0.88810  0.80443  0.25345  1.0000
  H   H15       1.0  0.17519  0.17864  0.57832  1.0000
  H   H16       1.0  0.82481  0.82136  0.42168  1.0000
  H   H17       1.0  0.91773  0.73174  0.99707  1.0000
  H   H18       1.0  0.08227  0.26826  0.00293  1.0000
  H   H19       1.0  0.64237  0.64490  0.06128  1.0000
  H   H20       1.0  0.35763  0.35510  0.93872  1.0000
  H   H21       1.0  0.64984  0.81396  0.00826  1.0000
  H   H22       1.0  0.35016  0.18604  0.99174  1.0000
  H   H23       1.0  0.58776  0.75362  0.17787  1.0000
  H   H24       1.0  0.41224  0.24638  0.82213  1.0000
  H   H25       1.0  0.14521  0.57964  0.05881  1.0000
  H   H26       1.0  0.85479  0.42036  0.94118  1.0000
  H   H27       1.0  0.06324  0.42724  0.32047  1.0000
  H   H28       1.0  0.93676  0.57276  0.67953  1.0000
  H   H29       1.0  0.26147  0.41636  0.20100  1.0000
  H   H30       1.0  0.73853  0.58364  0.79900  1.0000
  H   H31       1.0  0.14089  0.32573  0.19277  1.0000
  H   H32       1.0  0.85911  0.67427  0.80724  1.0000
  H   H33       1.0  0.11593  0.87035  0.40844  1.0000
  H   H34       1.0  0.88407  0.12965  0.59156  1.0000
  H   H35       1.0  0.13336  0.00227  0.00849  1.0000
  H   H36       1.0  0.86665  0.99773  0.99151  1.0000
  H   H37       1.0  0.38669  0.58837  0.12576  1.0000
  H   H38       1.0  0.61331  0.41163  0.87424  1.0000
  C   C1        1.0  0.26282  0.71963  0.27625  1.0000
  C   C2        1.0  0.73718  0.28037  0.72375  1.0000
  C   C3        1.0  0.15954  0.84902  0.30829  1.0000
  C   C4        1.0  0.84046  0.15098  0.69171  1.0000
  C   C5        1.0  0.11349  0.95095  0.21201  1.0000
  C   C6        1.0  0.88650  0.04904  0.78799  1.0000
  C   C7        1.0  0.16964  0.92305  0.08334  1.0000
  C   C8        1.0  0.83036  0.07695  0.91666  1.0000
  C   C9        1.0  0.26303  0.79122  0.05305  1.0000
  C   C10       1.0  0.73697  0.20878  0.94695  1.0000
  C   C11       1.0  0.30998  0.69031  0.14963  1.0000
  C   C12       1.0  0.69003  0.30969  0.85036  1.0000
  C   C13       1.0  0.32689  0.61360  0.37562  1.0000
  C   C14       1.0  0.67311  0.38640  0.62438  1.0000
  C   C15       1.0  0.99650  0.08646  0.24930  1.0000
  C   C16       1.0  0.00350  0.91354  0.75070  1.0000
  C   C17       1.0  0.30381  0.75326  0.92196  1.0000
  C   C18       1.0  0.69618  0.24674  0.07804  1.0000
  C   C19       1.0  0.50955  0.10899  0.57371  1.0000
  C   C20       1.0  0.49045  0.89101  0.42629  1.0000
  C   C21       1.0  0.66459  0.90573  0.68960  1.0000
  C   C22       1.0  0.33541  0.09427  0.31041  1.0000
  C   C23       1.0  0.20999  0.19898  0.65219  1.0000
  C   C24       1.0  0.79001  0.80103  0.34780  1.0000
  C   C25       1.0  0.90527  0.57308  0.14735  1.0000
  C   C26       1.0  0.09473  0.42692  0.85265  1.0000
  C   C27       1.0  0.67175  0.72544  0.08083  1.0000
  C   C28       1.0  0.32825  0.27456  0.91917  1.0000
  C   C29       1.0  0.13611  0.42010  0.21665  1.0000
  C   C30       1.0  0.86389  0.57990  0.78335  1.0000
  N   N1        1.0  0.65146  0.01628  0.58555  1.0000
  N   N2        1.0  0.34853  0.98373  0.41445  1.0000
  N   N3        1.0  0.36395  0.10043  0.66370  1.0000
  N   N4        1.0  0.63605  0.89957  0.33630  1.0000
  N   N5        1.0  0.84264  0.68396  0.07227  1.0000
  N   N6        1.0  0.15736  0.31604  0.92773  1.0000
  N   N7        1.0  0.06563  0.53694  0.13572  1.0000
  N   N8        1.0  0.93437  0.46306  0.86428  1.0000
  O   O1        1.0  0.42938  0.50113  0.33781  1.0000
  O   O2        1.0  0.57063  0.49887  0.66219  1.0000
  O   O3        1.0  0.27807  0.64292  0.49031  1.0000
  O   O4        1.0  0.72193  0.35708  0.50969  1.0000
  O   O5        1.0  0.90513  0.09639  0.36876  1.0000
  O   O6        1.0  0.09487  0.90361  0.63124  1.0000
  O   O7        1.0  0.98521  0.18960  0.16268  1.0000
  O   O8        1.0  0.01479  0.81041  0.83732  1.0000
  O   O9        1.0  0.31366  0.63185  0.91863  1.0000
  O   O10       1.0  0.68635  0.36815  0.08136  1.0000
  O   O11       1.0  0.32182  0.83851  0.81966  1.0000
  O   O12       1.0  0.67818  0.16149  0.18034  1.0000
  O   O13       1.0  0.51341  0.20510  0.47968  1.0000
  O   O14       1.0  0.48659  0.79490  0.52033  1.0000
  O   O15       1.0  0.81311  0.50614  0.23101  1.0000
  O   O16       1.0  0.18689  0.49386  0.76899  1.0000
