data_image0
_chemical_formula_structural       Zn2H34C40S2N6Cl4O8
_chemical_formula_sum              "Zn2 H34 C40 S2 N6 Cl4 O8"
_cell_length_a       10.0734
_cell_length_b       10.0721
_cell_length_c       12.6243
_cell_angle_alpha    99.2428
_cell_angle_beta     105.075
_cell_angle_gamma    118.229

_space_group_name_H-M_alt    "P 1"
_space_group_IT_number       1

loop_
  _space_group_symop_operation_xyz
  'x, y, z'

loop_
  _atom_site_type_symbol
  _atom_site_label
  _atom_site_symmetry_multiplicity
  _atom_site_fract_x
  _atom_site_fract_y
  _atom_site_fract_z
  _atom_site_occupancy
  Zn  Zn1       1.0  0.14301  0.72023  0.16934  1.0000
  Zn  Zn2       1.0  0.55093  0.97380  0.83071  1.0000
  H   H1        1.0  0.99031  0.81120  0.02250  1.0000
  H   H2        1.0  0.78876  0.96798  0.97753  1.0000
  H   H3        1.0  0.50430  0.56291  0.21727  1.0000
  H   H4        1.0  0.34566  0.28709  0.78271  1.0000
  H   H5        1.0  0.28621  0.98734  0.05229  1.0000
  H   H6        1.0  0.93532  0.23415  0.94781  1.0000
  H   H7        1.0  0.35854  0.79271  0.40679  1.0000
  H   H8        1.0  0.38604  0.95171  0.59329  1.0000
  H   H9        1.0  0.64891  0.88297  0.51492  1.0000
  H   H10       1.0  0.36825  0.13383  0.48500  1.0000
  H   H11       1.0  0.74017  0.96816  0.20870  1.0000
  H   H12       1.0  0.75935  0.53161  0.79129  1.0000
  H   H13       1.0  0.44630  0.87820  0.11422  1.0000
  H   H14       1.0  0.76403  0.33234  0.88587  1.0000
  H   H15       1.0  0.92771  0.92686  0.37163  1.0000
  H   H16       1.0  0.55527  0.55602  0.62829  1.0000
  H   H17       1.0  0.90505  0.94725  0.50774  1.0000
  H   H18       1.0  0.43962  0.39729  0.49214  1.0000
  H   H19       1.0  0.00818  0.20117  0.38912  1.0000
  H   H20       1.0  0.81217  0.61925  0.61091  1.0000
  H   H21       1.0  0.13559  0.19360  0.51016  1.0000
  H   H22       1.0  0.68356  0.62560  0.48987  1.0000
  H   H23       1.0  0.85113  0.23657  0.50330  1.0000
  H   H24       1.0  0.73342  0.34798  0.49673  1.0000
  H   H25       1.0  0.96331  0.21404  0.62229  1.0000
  H   H26       1.0  0.59185  0.34113  0.37775  1.0000
  H   H27       1.0  0.98694  0.48404  0.71590  1.0000
  H   H28       1.0  0.76800  0.27093  0.28412  1.0000
  H   H29       1.0  0.21113  0.76950  0.81204  1.0000
  H   H30       1.0  0.95722  0.39884  0.18790  1.0000
  H   H31       1.0  0.45611  0.73046  0.60334  1.0000
  H   H32       1.0  0.12710  0.85275  0.39652  1.0000
  H   H33       1.0  0.24080  0.44417  0.49682  1.0000
  H   H34       1.0  0.94745  0.74411  0.50308  1.0000
  C   C1        1.0  0.47320  0.22470  0.07421  1.0000
  C   C2        1.0  0.15079  0.39921  0.92590  1.0000
  C   C3        1.0  0.53268  0.38796  0.12043  1.0000
  C   C4        1.0  0.26776  0.41242  0.87965  1.0000
  C   C5        1.0  0.45850  0.43646  0.18323  1.0000
  C   C6        1.0  0.25333  0.27536  0.81679  1.0000
  C   C7        1.0  0.32662  0.32384  0.20245  1.0000
  C   C8        1.0  0.12145  0.12427  0.79756  1.0000
  C   C9        1.0  0.26314  0.15985  0.15610  1.0000
  C   C10       1.0  0.00388  0.10719  0.84395  1.0000
  C   C11       1.0  0.33656  0.11416  0.09151  1.0000
  C   C12       1.0  0.02290  0.24527  0.90860  1.0000
  C   C13       1.0  0.54709  0.16116  0.00792  1.0000
  C   C14       1.0  0.15355  0.53941  0.99219  1.0000
  C   C15       1.0  0.44816  0.83585  0.36717  1.0000
  C   C16       1.0  0.46888  0.08098  0.63286  1.0000
  C   C17       1.0  0.60892  0.88424  0.42617  1.0000
  C   C18       1.0  0.45831  0.18268  0.57376  1.0000
  C   C19       1.0  0.71844  0.93250  0.37010  1.0000
  C   C20       1.0  0.56258  0.34832  0.62980  1.0000
  C   C21       1.0  0.65993  0.93294  0.25647  1.0000
  C   C22       1.0  0.67651  0.40354  0.74351  1.0000
  C   C23       1.0  0.49756  0.88437  0.20359  1.0000
  C   C24       1.0  0.68084  0.29411  0.79647  1.0000
  C   C25       1.0  0.89272  0.98461  0.43045  1.0000
  C   C26       1.0  0.55428  0.46227  0.56944  1.0000
  C   C27       1.0  0.01112  0.16596  0.46741  1.0000
  C   C28       1.0  0.69871  0.54387  0.53258  1.0000
  C   C29       1.0  0.97305  0.25932  0.54883  1.0000
  C   C30       1.0  0.71064  0.42436  0.45118  1.0000
  C   C31       1.0  0.09535  0.43667  0.59863  1.0000
  C   C32       1.0  0.83807  0.49676  0.40132  1.0000
  C   C33       1.0  0.08627  0.53391  0.68540  1.0000
  C   C34       1.0  0.84845  0.40078  0.31457  1.0000
  C   C35       1.0  0.21038  0.69418  0.73957  1.0000
  C   C36       1.0  0.95445  0.47063  0.26037  1.0000
  C   C37       1.0  0.34696  0.67204  0.62267  1.0000
  C   C38       1.0  0.04934  0.72426  0.37722  1.0000
  C   C39       1.0  0.22714  0.51141  0.56497  1.0000
  C   C40       1.0  0.94647  0.66223  0.43492  1.0000
  S   S1        1.0  0.09619  0.00827  0.18090  1.0000
  S   S2        1.0  0.82737  0.91545  0.81911  1.0000
  N   N1        1.0  0.05348  0.84049  0.10968  1.0000
  N   N2        1.0  0.73093  0.94408  0.89037  1.0000
  N   N3        1.0  0.39200  0.83496  0.25769  1.0000
  N   N4        1.0  0.57737  0.13440  0.74239  1.0000
  N   N5        1.0  0.34146  0.76232  0.71054  1.0000
  N   N6        1.0  0.05165  0.63076  0.28936  1.0000
  Cl  Cl1       1.0  0.69285  0.53714  0.10007  1.0000
  Cl  Cl2       1.0  0.43728  0.59298  0.89998  1.0000
  Cl  Cl3       1.0  0.24618  0.39451  0.28437  1.0000
  Cl  Cl4       1.0  0.11000  0.96182  0.71554  1.0000
  O   O1        1.0  0.69619  0.24104  0.02816  1.0000
  O   O2        1.0  0.21316  0.66827  0.97194  1.0000
  O   O3        1.0  0.44442  0.01944  0.93128  1.0000
  O   O4        1.0  0.08843  0.51334  0.06878  1.0000
  O   O5        1.0  0.96169  0.03192  0.14054  1.0000
  O   O6        1.0  0.89125  0.82121  0.85946  1.0000
  O   O7        1.0  0.16393  0.03364  0.30513  1.0000
  O   O8        1.0  0.72850  0.85905  0.69489  1.0000
