data_image0
_chemical_formula_structural       Li4Mo2H44C40N4O20
_chemical_formula_sum              "Li4 Mo2 H44 C40 N4 O20"
_cell_length_a       8.86909
_cell_length_b       9.65296
_cell_length_c       15.5253
_cell_angle_alpha    91.2785
_cell_angle_beta     89.9877
_cell_angle_gamma    117.339

_space_group_name_H-M_alt    "P 1"
_space_group_IT_number       1

loop_
  _space_group_symop_operation_xyz
  'x, y, z'

loop_
  _atom_site_type_symbol
  _atom_site_label
  _atom_site_symmetry_multiplicity
  _atom_site_fract_x
  _atom_site_fract_y
  _atom_site_fract_z
  _atom_site_occupancy
  Li  Li1       1.0  0.48603  0.90776  0.56983  1.0000
  Li  Li2       1.0  0.57811  0.09219  0.93004  1.0000
  Li  Li3       1.0  0.51398  0.09225  0.43017  1.0000
  Li  Li4       1.0  0.42189  0.90780  0.06995  1.0000
  Mo  Mo1       1.0  0.26350  0.99996  0.74988  1.0000
  Mo  Mo2       1.0  0.73652  0.00004  0.25012  1.0000
  H   H1        1.0  0.25759  0.63590  0.94001  1.0000
  H   H2        1.0  0.62179  0.36412  0.55981  1.0000
  H   H3        1.0  0.74242  0.36410  0.05999  1.0000
  H   H4        1.0  0.37820  0.63588  0.44019  1.0000
  H   H5        1.0  0.36402  0.44217  0.89839  1.0000
  H   H6        1.0  0.92179  0.55797  0.60154  1.0000
  H   H7        1.0  0.63599  0.55783  0.10161  1.0000
  H   H8        1.0  0.07819  0.44202  0.39846  1.0000
  H   H9        1.0  0.47949  0.44710  0.75224  1.0000
  H   H10       1.0  0.03200  0.55294  0.74773  1.0000
  H   H11       1.0  0.52051  0.55290  0.24775  1.0000
  H   H12       1.0  0.96799  0.44706  0.25226  1.0000
  H   H13       1.0  0.54929  0.54467  0.61707  1.0000
  H   H14       1.0  0.00412  0.45563  0.88279  1.0000
  H   H15       1.0  0.45072  0.45534  0.38293  1.0000
  H   H16       1.0  0.99589  0.54437  0.11721  1.0000
  H   H17       1.0  0.10957  0.80254  0.55460  1.0000
  H   H18       1.0  0.30710  0.19751  0.94550  1.0000
  H   H19       1.0  0.89043  0.19746  0.44540  1.0000
  H   H20       1.0  0.69290  0.80249  0.05450  1.0000
  H   H21       1.0  0.10185  0.01285  0.33922  1.0000
  H   H22       1.0  0.08868  0.98714  0.16084  1.0000
  H   H23       1.0  0.89815  0.98716  0.66078  1.0000
  H   H24       1.0  0.91131  0.01285  0.83916  1.0000
  H   H25       1.0  0.02731  0.81876  0.29796  1.0000
  H   H26       1.0  0.20818  0.18125  0.20208  1.0000
  H   H27       1.0  0.97270  0.18124  0.70204  1.0000
  H   H28       1.0  0.79181  0.81874  0.79792  1.0000
  H   H29       1.0  0.24181  0.92411  0.33582  1.0000
  H   H30       1.0  0.31735  0.07585  0.16427  1.0000
  H   H31       1.0  0.75819  0.07590  0.66418  1.0000
  H   H32       1.0  0.68265  0.92415  0.83573  1.0000
  H   H33       1.0  0.80908  0.66559  0.40725  1.0000
  H   H34       1.0  0.14321  0.33437  0.09277  1.0000
  H   H35       1.0  0.19092  0.33441  0.59275  1.0000
  H   H36       1.0  0.85680  0.66563  0.90723  1.0000
  H   H37       1.0  0.82379  0.85119  0.43451  1.0000
  H   H38       1.0  0.97244  0.14878  0.06551  1.0000
  H   H39       1.0  0.17620  0.14881  0.56549  1.0000
  H   H40       1.0  0.02757  0.85123  0.93449  1.0000
  H   H41       1.0  0.85323  0.73907  0.51650  1.0000
  H   H42       1.0  0.11405  0.26091  0.98352  1.0000
  H   H43       1.0  0.14676  0.26092  0.48350  1.0000
  H   H44       1.0  0.88595  0.73910  0.01648  1.0000
  C   C1        1.0  0.38793  0.75475  0.73470  1.0000
  C   C2        1.0  0.63309  0.24495  0.76506  1.0000
  C   C3        1.0  0.61207  0.24525  0.26530  1.0000
  C   C4        1.0  0.36691  0.75505  0.23494  1.0000
  C   C5        1.0  0.31421  0.74388  0.81754  1.0000
  C   C6        1.0  0.57038  0.25588  0.68221  1.0000
  C   C7        1.0  0.68579  0.25612  0.18246  1.0000
  C   C8        1.0  0.42961  0.74412  0.31779  1.0000
  C   C9        1.0  0.30916  0.63547  0.87628  1.0000
  C   C10       1.0  0.67375  0.36444  0.62352  1.0000
  C   C11       1.0  0.69084  0.36453  0.12372  1.0000
  C   C12       1.0  0.32624  0.63556  0.37648  1.0000
  C   C13       1.0  0.37042  0.52864  0.85270  1.0000
  C   C14       1.0  0.84172  0.47136  0.64716  1.0000
  C   C15       1.0  0.62959  0.47136  0.14729  1.0000
  C   C16       1.0  0.15827  0.52864  0.35283  1.0000
  C   C17       1.0  0.43521  0.53143  0.77145  1.0000
  C   C18       1.0  0.90354  0.46854  0.72844  1.0000
  C   C19       1.0  0.56479  0.46857  0.22855  1.0000
  C   C20       1.0  0.09646  0.53146  0.27156  1.0000
  C   C21       1.0  0.44608  0.64402  0.71098  1.0000
  C   C22       1.0  0.80178  0.35585  0.78885  1.0000
  C   C23       1.0  0.55393  0.35598  0.28902  1.0000
  C   C24       1.0  0.19822  0.64415  0.21115  1.0000
  C   C25       1.0  0.51332  0.63980  0.62726  1.0000
  C   C26       1.0  0.87314  0.36036  0.87262  1.0000
  C   C27       1.0  0.48669  0.36021  0.37274  1.0000
  C   C28       1.0  0.12687  0.63964  0.12737  1.0000
  C   C29       1.0  0.16741  0.85280  0.49270  1.0000
  C   C30       1.0  0.31461  0.14726  0.00741  1.0000
  C   C31       1.0  0.83259  0.14721  0.50730  1.0000
  C   C32       1.0  0.68540  0.85274  0.99259  1.0000
  C   C33       1.0  0.11148  0.90418  0.34615  1.0000
  C   C34       1.0  0.20695  0.09579  0.15390  1.0000
  C   C35       1.0  0.88852  0.09582  0.65386  1.0000
  C   C36       1.0  0.79305  0.90421  0.84610  1.0000
  C   C37       1.0  0.87575  0.77057  0.44866  1.0000
  C   C38       1.0  0.10498  0.22939  0.05136  1.0000
  C   C39       1.0  0.12425  0.22942  0.55134  1.0000
  C   C40       1.0  0.89502  0.77061  0.94865  1.0000
  N   N1        1.0  0.05731  0.84276  0.43168  1.0000
  N   N2        1.0  0.21436  0.15722  0.06837  1.0000
  N   N3        1.0  0.94269  0.15725  0.56832  1.0000
  N   N4        1.0  0.78564  0.84278  0.93163  1.0000
  O   O1        1.0  0.39526  0.86734  0.68620  1.0000
  O   O2        1.0  0.52791  0.13226  0.81353  1.0000
  O   O3        1.0  0.60473  0.13266  0.31380  1.0000
  O   O4        1.0  0.47209  0.86774  0.18647  1.0000
  O   O5        1.0  0.25126  0.84544  0.83465  1.0000
  O   O6        1.0  0.40595  0.15428  0.66505  1.0000
  O   O7        1.0  0.74874  0.15456  0.16535  1.0000
  O   O8        1.0  0.59404  0.84572  0.33495  1.0000
  O   O9        1.0  0.53349  0.73014  0.56683  1.0000
  O   O10       1.0  0.80300  0.27018  0.93312  1.0000
  O   O11       1.0  0.46653  0.26987  0.43317  1.0000
  O   O12       1.0  0.19700  0.72983  0.06688  1.0000
  O   O13       1.0  0.19506  0.10239  0.81855  1.0000
  O   O14       1.0  0.09230  0.89791  0.68140  1.0000
  O   O15       1.0  0.80493  0.89762  0.18146  1.0000
  O   O16       1.0  0.90768  0.10208  0.31860  1.0000
  O   O17       1.0  0.32641  0.91647  0.48439  1.0000
  O   O18       1.0  0.40997  0.08361  0.01575  1.0000
  O   O19       1.0  0.67359  0.08354  0.51561  1.0000
  O   O20       1.0  0.59003  0.91638  0.98425  1.0000
