data_image0
_chemical_formula_structural       Ag4H16C24N16Cl4O12
_chemical_formula_sum              "Ag4 H16 C24 N16 Cl4 O12"
_cell_length_a       5.70173
_cell_length_b       12.7984
_cell_length_c       14.507
_cell_angle_alpha    112.664
_cell_angle_beta     101.307
_cell_angle_gamma    90.0123

_space_group_name_H-M_alt    "P 1"
_space_group_IT_number       1

loop_
  _space_group_symop_operation_xyz
  'x, y, z'

loop_
  _atom_site_type_symbol
  _atom_site_label
  _atom_site_symmetry_multiplicity
  _atom_site_fract_x
  _atom_site_fract_y
  _atom_site_fract_z
  _atom_site_occupancy
  Ag  Ag1       1.0  0.04092  0.18545  0.17788  1.0000
  Ag  Ag2       1.0  0.86211  0.31448  0.82221  1.0000
  Ag  Ag3       1.0  0.95909  0.81455  0.82212  1.0000
  Ag  Ag4       1.0  0.13789  0.68551  0.17778  1.0000
  H   H1        1.0  0.48334  0.19125  0.37998  1.0000
  H   H2        1.0  0.10221  0.30833  0.61983  1.0000
  H   H3        1.0  0.51667  0.80876  0.62003  1.0000
  H   H4        1.0  0.89782  0.69167  0.38017  1.0000
  H   H5        1.0  0.85073  0.11970  0.45772  1.0000
  H   H6        1.0  0.39278  0.37958  0.54195  1.0000
  H   H7        1.0  0.14928  0.88031  0.54228  1.0000
  H   H8        1.0  0.60723  0.62043  0.45806  1.0000
  H   H9        1.0  0.04928  0.10433  0.37366  1.0000
  H   H10       1.0  0.67509  0.39570  0.62636  1.0000
  H   H11       1.0  0.95073  0.89567  0.62633  1.0000
  H   H12       1.0  0.32492  0.60431  0.37364  1.0000
  H   H13       1.0  0.92749  0.98036  0.38277  1.0000
  H   H14       1.0  0.54346  0.51920  0.61667  1.0000
  H   H15       1.0  0.07252  0.01965  0.61723  1.0000
  H   H16       1.0  0.45654  0.48081  0.38333  1.0000
  C   C1        1.0  0.49868  0.12146  0.30986  1.0000
  C   C2        1.0  0.18771  0.37816  0.68988  1.0000
  C   C3        1.0  0.50133  0.87855  0.69015  1.0000
  C   C4        1.0  0.81229  0.62184  0.31012  1.0000
  C   C5        1.0  0.43322  0.99897  0.15293  1.0000
  C   C6        1.0  0.27902  0.50077  0.84674  1.0000
  C   C7        1.0  0.56678  0.00104  0.84707  1.0000
  C   C8        1.0  0.72096  0.49923  0.15326  1.0000
  C   C9        1.0  0.32337  0.94219  0.04925  1.0000
  C   C10       1.0  0.27368  0.55761  0.95050  1.0000
  C   C11       1.0  0.67663  0.05782  0.95075  1.0000
  C   C12       1.0  0.72631  0.44238  0.04949  1.0000
  C   C13       1.0  0.64983  0.97682  0.20381  1.0000
  C   C14       1.0  0.44449  0.52296  0.79574  1.0000
  C   C15       1.0  0.35016  0.02319  0.79619  1.0000
  C   C16       1.0  0.55549  0.47704  0.20426  1.0000
  C   C17       1.0  0.80707  0.89400  0.16770  1.0000
  C   C18       1.0  0.63765  0.60583  0.83179  1.0000
  C   C19       1.0  0.19293  0.10601  0.83230  1.0000
  C   C20       1.0  0.36233  0.39416  0.16820  1.0000
  C   C21       1.0  0.89163  0.06526  0.38463  1.0000
  C   C22       1.0  0.50617  0.43435  0.61503  1.0000
  C   C23       1.0  0.10838  0.93474  0.61537  1.0000
  C   C24       1.0  0.49384  0.56566  0.38497  1.0000
  N   N1        1.0  0.34192  0.08919  0.22056  1.0000
  N   N2        1.0  0.12026  0.41047  0.77922  1.0000
  N   N3        1.0  0.65808  0.91082  0.77945  1.0000
  N   N4        1.0  0.87973  0.58952  0.22077  1.0000
  N   N5        1.0  0.24004  0.89574  0.96211  1.0000
  N   N6        1.0  0.27847  0.60403  0.03775  1.0000
  N   N7        1.0  0.75994  0.10426  0.03789  1.0000
  N   N8        1.0  0.72152  0.39597  0.96224  1.0000
  N   N9        1.0  0.93912  0.82568  0.13640  1.0000
  N   N10       1.0  0.80108  0.67413  0.86313  1.0000
  N   N11       1.0  0.06086  0.17433  0.86361  1.0000
  N   N12       1.0  0.19890  0.32587  0.13687  1.0000
  N   N13       1.0  0.68578  0.05544  0.30312  1.0000
  N   N14       1.0  0.38135  0.44426  0.69649  1.0000
  N   N15       1.0  0.31423  0.94457  0.69688  1.0000
  N   N16       1.0  0.61865  0.55574  0.30351  1.0000
  Cl  Cl1       1.0  0.94568  0.37158  0.38862  1.0000
  Cl  Cl2       1.0  0.55650  0.12825  0.61144  1.0000
  Cl  Cl3       1.0  0.05432  0.62841  0.61137  1.0000
  Cl  Cl4       1.0  0.44351  0.87175  0.38856  1.0000
  O   O1        1.0  0.77841  0.30689  0.28537  1.0000
  O   O2        1.0  0.49212  0.19288  0.71467  1.0000
  O   O3        1.0  0.22158  0.69311  0.71463  1.0000
  O   O4        1.0  0.50788  0.80712  0.28533  1.0000
  O   O5        1.0  0.19166  0.33402  0.37392  1.0000
  O   O6        1.0  0.81718  0.16586  0.62617  1.0000
  O   O7        1.0  0.80834  0.66596  0.62607  1.0000
  O   O8        1.0  0.18282  0.83415  0.37383  1.0000
  O   O9        1.0  0.87588  0.33287  0.46485  1.0000
  O   O10       1.0  0.41079  0.16698  0.53522  1.0000
  O   O11       1.0  0.12411  0.66713  0.53515  1.0000
  O   O12       1.0  0.58922  0.83300  0.46477  1.0000
