data_image0
_chemical_formula_structural       Ag4H16C24N20O12
_chemical_formula_sum              "Ag4 H16 C24 N20 O12"
_cell_length_a       5.86541
_cell_length_b       8.44149
_cell_length_c       17.8992
_cell_angle_alpha    90.0013
_cell_angle_beta     90.7274
_cell_angle_gamma    90.0002

_space_group_name_H-M_alt    "P 1"
_space_group_IT_number       1

loop_
  _space_group_symop_operation_xyz
  'x, y, z'

loop_
  _atom_site_type_symbol
  _atom_site_label
  _atom_site_symmetry_multiplicity
  _atom_site_fract_x
  _atom_site_fract_y
  _atom_site_fract_z
  _atom_site_occupancy
  Ag  Ag1       1.0  0.52176  0.94566  0.84976  1.0000
  Ag  Ag2       1.0  0.47820  0.44567  0.65024  1.0000
  Ag  Ag3       1.0  0.47823  0.05433  0.15023  1.0000
  Ag  Ag4       1.0  0.52177  0.55434  0.34976  1.0000
  H   H1        1.0  0.17405  0.63624  0.78289  1.0000
  H   H2        1.0  0.82591  0.13626  0.71711  1.0000
  H   H3        1.0  0.82593  0.36373  0.21711  1.0000
  H   H4        1.0  0.17407  0.86376  0.28290  1.0000
  H   H5        1.0  0.84636  0.45397  0.79301  1.0000
  H   H6        1.0  0.15363  0.95398  0.70699  1.0000
  H   H7        1.0  0.15363  0.54601  0.20700  1.0000
  H   H8        1.0  0.84637  0.04604  0.29301  1.0000
  H   H9        1.0  0.62056  0.53537  0.84861  1.0000
  H   H10       1.0  0.37941  0.03538  0.65138  1.0000
  H   H11       1.0  0.37942  0.46461  0.15138  1.0000
  H   H12       1.0  0.62061  0.96463  0.34862  1.0000
  H   H13       1.0  0.80222  0.38349  0.88507  1.0000
  H   H14       1.0  0.19775  0.88349  0.61493  1.0000
  H   H15       1.0  0.19779  0.61651  0.11493  1.0000
  H   H16       1.0  0.80224  0.11650  0.38507  1.0000
  C   C1        1.0  0.13344  0.66970  0.83965  1.0000
  C   C2        1.0  0.86654  0.16968  0.66036  1.0000
  C   C3        1.0  0.86653  0.33032  0.16037  1.0000
  C   C4        1.0  0.13349  0.83030  0.33965  1.0000
  C   C5        1.0  0.13797  0.78022  0.94875  1.0000
  C   C6        1.0  0.86201  0.28020  0.55125  1.0000
  C   C7        1.0  0.86200  0.21979  0.05125  1.0000
  C   C8        1.0  0.13802  0.71978  0.44875  1.0000
  C   C9        1.0  0.20944  0.87704  0.00846  1.0000
  C   C10       1.0  0.79049  0.37703  0.49156  1.0000
  C   C11       1.0  0.79050  0.12298  0.99154  1.0000
  C   C12       1.0  0.20951  0.62297  0.50845  1.0000
  C   C13       1.0  0.95048  0.67772  0.94659  1.0000
  C   C14       1.0  0.04951  0.17770  0.55341  1.0000
  C   C15       1.0  0.04949  0.32229  0.05342  1.0000
  C   C16       1.0  0.95054  0.82229  0.44658  1.0000
  C   C17       1.0  0.78363  0.64876  0.00040  1.0000
  C   C18       1.0  0.21639  0.14874  0.49960  1.0000
  C   C19       1.0  0.21634  0.35128  0.99959  1.0000
  C   C20       1.0  0.78367  0.85126  0.50040  1.0000
  C   C21       1.0  0.79422  0.48809  0.84909  1.0000
  C   C22       1.0  0.20576  0.98810  0.65090  1.0000
  C   C23       1.0  0.20577  0.51190  0.15091  1.0000
  C   C24       1.0  0.79426  0.01190  0.34909  1.0000
  N   N1        1.0  0.24845  0.77384  0.88151  1.0000
  N   N2        1.0  0.75153  0.27383  0.61849  1.0000
  N   N3        1.0  0.75151  0.22616  0.11849  1.0000
  N   N4        1.0  0.24849  0.72617  0.38151  1.0000
  N   N5        1.0  0.64693  0.62703  0.04622  1.0000
  N   N6        1.0  0.35308  0.12702  0.45377  1.0000
  N   N7        1.0  0.35304  0.37298  0.95378  1.0000
  N   N8        1.0  0.64696  0.87296  0.54622  1.0000
  N   N9        1.0  0.26534  0.95725  0.05852  1.0000
  N   N10       1.0  0.73467  0.45723  0.44148  1.0000
  N   N11       1.0  0.73464  0.04278  0.94148  1.0000
  N   N12       1.0  0.26536  0.54276  0.55852  1.0000
  N   N13       1.0  0.95355  0.60837  0.87681  1.0000
  N   N14       1.0  0.04644  0.10836  0.62319  1.0000
  N   N15       1.0  0.04645  0.39164  0.12320  1.0000
  N   N16       1.0  0.95358  0.89163  0.37681  1.0000
  N   N17       1.0  0.28354  0.24020  0.78488  1.0000
  N   N18       1.0  0.71644  0.74021  0.71512  1.0000
  N   N19       1.0  0.71647  0.75979  0.21512  1.0000
  N   N20       1.0  0.28356  0.25978  0.28488  1.0000
  O   O1        1.0  0.21899  0.36251  0.74801  1.0000
  O   O2        1.0  0.78099  0.86251  0.75199  1.0000
  O   O3        1.0  0.78101  0.63749  0.25199  1.0000
  O   O4        1.0  0.21900  0.13749  0.24800  1.0000
  O   O5        1.0  0.49201  0.19703  0.78144  1.0000
  O   O6        1.0  0.50797  0.69704  0.71856  1.0000
  O   O7        1.0  0.50801  0.80297  0.21856  1.0000
  O   O8        1.0  0.49204  0.30295  0.28144  1.0000
  O   O9        1.0  0.14306  0.16296  0.82254  1.0000
  O   O10       1.0  0.85691  0.66295  0.67745  1.0000
  O   O11       1.0  0.85696  0.83703  0.17745  1.0000
  O   O12       1.0  0.14309  0.33704  0.32255  1.0000
