data_image0
_chemical_formula_structural       Cu2H10C8N6O8
_chemical_formula_sum              "Cu2 H10 C8 N6 O8"
_cell_length_a       6.68774
_cell_length_b       7.56196
_cell_length_c       8.93237
_cell_angle_alpha    67.4594
_cell_angle_beta     68.005
_cell_angle_gamma    64.1507

_space_group_name_H-M_alt    "P 1"
_space_group_IT_number       1

loop_
  _space_group_symop_operation_xyz
  'x, y, z'

loop_
  _atom_site_type_symbol
  _atom_site_label
  _atom_site_symmetry_multiplicity
  _atom_site_fract_x
  _atom_site_fract_y
  _atom_site_fract_z
  _atom_site_occupancy
  Cu  Cu1       1.0  0.99999  0.00001  0.50000  1.0000
  Cu  Cu2       1.0  0.50000  0.00000  0.50000  1.0000
  H   H1        1.0  0.36119  0.72591  0.54769  1.0000
  H   H2        1.0  0.63881  0.27411  0.45230  1.0000
  H   H3        1.0  0.96525  0.19396  0.15712  1.0000
  H   H4        1.0  0.31433  0.80528  0.84306  1.0000
  H   H5        1.0  0.03474  0.80606  0.84288  1.0000
  H   H6        1.0  0.68566  0.19470  0.15695  1.0000
  H   H7        1.0  0.21098  0.32016  0.87549  1.0000
  H   H8        1.0  0.40287  0.67969  0.12468  1.0000
  H   H9        1.0  0.78904  0.67982  0.12452  1.0000
  H   H10       1.0  0.59714  0.32027  0.87533  1.0000
  C   C1        1.0  0.13227  0.19713  0.14277  1.0000
  C   C2        1.0  0.47003  0.80242  0.85729  1.0000
  C   C3        1.0  0.86774  0.80286  0.85723  1.0000
  C   C4        1.0  0.52998  0.19756  0.14270  1.0000
  C   C5        1.0  0.26968  0.26822  0.98875  1.0000
  C   C6        1.0  0.52368  0.73150  0.01131  1.0000
  C   C7        1.0  0.73031  0.73179  0.01126  1.0000
  C   C8        1.0  0.47633  0.26850  0.98869  1.0000
  N   N1        1.0  0.19561  0.12783  0.28581  1.0000
  N   N2        1.0  0.60786  0.87205  0.71418  1.0000
  N   N3        1.0  0.80438  0.87219  0.71419  1.0000
  N   N4        1.0  0.39215  0.12796  0.28581  1.0000
  N   N5        1.0  0.00044  0.68142  0.31338  1.0000
  N   N6        1.0  0.99956  0.31858  0.68662  1.0000
  O   O1        1.0  0.28244  0.85550  0.57772  1.0000
  O   O2        1.0  0.71755  0.14451  0.42229  1.0000
  O   O3        1.0  0.11550  0.72472  0.37137  1.0000
  O   O4        1.0  0.21525  0.27561  0.62840  1.0000
  O   O5        1.0  0.88450  0.27529  0.62863  1.0000
  O   O6        1.0  0.78476  0.72440  0.37159  1.0000
  O   O7        1.0  0.10190  0.59621  0.19457  1.0000
  O   O8        1.0  0.89812  0.40379  0.80543  1.0000
