data_image0
_chemical_formula_structural       Zn4H8C28N4O16
_chemical_formula_sum              "Zn4 H8 C28 N4 O16"
_cell_length_a       7.16469
_cell_length_b       7.1647
_cell_length_c       19.7739
_cell_angle_alpha    90.0002
_cell_angle_beta     90.0002
_cell_angle_gamma    90

_space_group_name_H-M_alt    "P 1"
_space_group_IT_number       1

loop_
  _space_group_symop_operation_xyz
  'x, y, z'

loop_
  _atom_site_type_symbol
  _atom_site_label
  _atom_site_symmetry_multiplicity
  _atom_site_fract_x
  _atom_site_fract_y
  _atom_site_fract_z
  _atom_site_occupancy
  Zn  Zn1       1.0  1.00000  0.00000  0.28011  1.0000
  Zn  Zn2       1.0  0.50000  0.50000  0.78012  1.0000
  Zn  Zn3       1.0  0.50000  0.50000  0.21988  1.0000
  Zn  Zn4       1.0  1.00000  0.00000  0.71989  1.0000
  H   H1        1.0  0.19037  0.76265  0.05021  1.0000
  H   H2        1.0  0.73734  0.69038  0.55021  1.0000
  H   H3        1.0  0.80962  0.23735  0.05021  1.0000
  H   H4        1.0  0.26266  0.30961  0.55021  1.0000
  H   H5        1.0  0.69038  0.73734  0.44979  1.0000
  H   H6        1.0  0.76265  0.19037  0.94980  1.0000
  H   H7        1.0  0.30962  0.26266  0.44979  1.0000
  H   H8        1.0  0.23735  0.80963  0.94980  1.0000
  C   C1        1.0  1.00000  0.00000  0.03752  1.0000
  C   C2        1.0  0.50000  0.50000  0.53752  1.0000
  C   C3        1.0  0.50000  0.50000  0.46248  1.0000
  C   C4        1.0  0.00000  0.00000  0.96248  1.0000
  C   C5        1.0  0.10601  0.86973  0.07436  1.0000
  C   C6        1.0  0.63027  0.60602  0.57436  1.0000
  C   C7        1.0  0.89399  0.13027  0.07436  1.0000
  C   C8        1.0  0.36973  0.39398  0.57436  1.0000
  C   C9        1.0  0.60602  0.63027  0.42564  1.0000
  C   C10       1.0  0.86973  0.10601  0.92564  1.0000
  C   C11       1.0  0.39399  0.36974  0.42564  1.0000
  C   C12       1.0  0.13027  0.89399  0.92564  1.0000
  C   C13       1.0  0.10391  0.87581  0.14470  1.0000
  C   C14       1.0  0.62419  0.60391  0.64470  1.0000
  C   C15       1.0  0.89609  0.12420  0.14470  1.0000
  C   C16       1.0  0.37580  0.39609  0.64470  1.0000
  C   C17       1.0  0.60391  0.62420  0.35530  1.0000
  C   C18       1.0  0.87581  0.10391  0.85530  1.0000
  C   C19       1.0  0.39609  0.37581  0.35530  1.0000
  C   C20       1.0  0.12419  0.89609  0.85530  1.0000
  C   C21       1.0  0.21755  0.75017  0.19013  1.0000
  C   C22       1.0  0.74984  0.71755  0.69013  1.0000
  C   C23       1.0  0.78245  0.24983  0.19013  1.0000
  C   C24       1.0  0.25016  0.28244  0.69013  1.0000
  C   C25       1.0  0.71755  0.74983  0.30987  1.0000
  C   C26       1.0  0.75016  0.21756  0.80988  1.0000
  C   C27       1.0  0.28245  0.25018  0.30986  1.0000
  C   C28       1.0  0.24983  0.78244  0.80988  1.0000
  N   N1        1.0  0.00000  0.00000  0.17796  1.0000
  N   N2        1.0  0.50000  0.50000  0.67797  1.0000
  N   N3        1.0  0.50000  0.50000  0.32203  1.0000
  N   N4        1.0  1.00000  0.00000  0.82204  1.0000
  O   O1        1.0  0.32942  0.63854  0.15986  1.0000
  O   O2        1.0  0.86145  0.82940  0.65987  1.0000
  O   O3        1.0  0.67058  0.36146  0.15986  1.0000
  O   O4        1.0  0.13854  0.17059  0.65987  1.0000
  O   O5        1.0  0.82941  0.86147  0.34013  1.0000
  O   O6        1.0  0.63854  0.32941  0.84014  1.0000
  O   O7        1.0  0.17059  0.13854  0.34013  1.0000
  O   O8        1.0  0.36146  0.67059  0.84014  1.0000
  O   O9        1.0  0.19666  0.76710  0.25304  1.0000
  O   O10       1.0  0.73289  0.69664  0.75305  1.0000
  O   O11       1.0  0.80334  0.23290  0.25304  1.0000
  O   O12       1.0  0.26711  0.30335  0.75305  1.0000
  O   O13       1.0  0.69665  0.73290  0.24695  1.0000
  O   O14       1.0  0.76710  0.19666  0.74695  1.0000
  O   O15       1.0  0.30334  0.26711  0.24695  1.0000
  O   O16       1.0  0.23289  0.80333  0.74695  1.0000
