data_image0
_chemical_formula_structural       Cd4H20C36N24O8
_chemical_formula_sum              "Cd4 H20 C36 N24 O8"
_cell_length_a       8.55593
_cell_length_b       10.1388
_cell_length_c       12.9988
_cell_angle_alpha    90
_cell_angle_beta     90
_cell_angle_gamma    107.788

_space_group_name_H-M_alt    "P 1"
_space_group_IT_number       1

loop_
  _space_group_symop_operation_xyz
  'x, y, z'

loop_
  _atom_site_type_symbol
  _atom_site_label
  _atom_site_symmetry_multiplicity
  _atom_site_fract_x
  _atom_site_fract_y
  _atom_site_fract_z
  _atom_site_occupancy
  Cd  Cd1       1.0  0.72125  0.95281  0.54908  1.0000
  Cd  Cd2       1.0  0.77875  0.54718  0.04908  1.0000
  Cd  Cd3       1.0  0.27875  0.04718  0.45092  1.0000
  Cd  Cd4       1.0  0.22125  0.45281  0.95092  1.0000
  H   H1        1.0  0.06448  0.00344  0.69246  1.0000
  H   H2        1.0  0.43552  0.49656  0.19246  1.0000
  H   H3        1.0  0.93552  0.99656  0.30754  1.0000
  H   H4        1.0  0.56448  0.50344  0.80754  1.0000
  H   H5        1.0  0.22759  0.17863  0.82294  1.0000
  H   H6        1.0  0.27241  0.32137  0.32294  1.0000
  H   H7        1.0  0.77241  0.82137  0.17706  1.0000
  H   H8        1.0  0.72759  0.67863  0.67706  1.0000
  H   H9        1.0  0.87715  0.38656  0.81126  1.0000
  H   H10       1.0  0.62285  0.11344  0.31126  1.0000
  H   H11       1.0  0.12285  0.61344  0.18874  1.0000
  H   H12       1.0  0.37715  0.88656  0.68874  1.0000
  H   H13       1.0  0.74476  0.56682  0.47964  1.0000
  H   H14       1.0  0.75524  0.93318  0.97964  1.0000
  H   H15       1.0  0.25523  0.43318  0.52035  1.0000
  H   H16       1.0  0.24476  0.06681  0.02036  1.0000
  H   H17       1.0  0.25734  0.67760  0.55436  1.0000
  H   H18       1.0  0.24266  0.82240  0.05436  1.0000
  H   H19       1.0  0.74266  0.32240  0.44564  1.0000
  H   H20       1.0  0.75734  0.17760  0.94564  1.0000
  C   C1        1.0  0.82791  0.20452  0.71378  1.0000
  C   C2        1.0  0.67209  0.29548  0.21378  1.0000
  C   C3        1.0  0.17209  0.79548  0.28622  1.0000
  C   C4        1.0  0.32791  0.70452  0.78622  1.0000
  C   C5        1.0  0.02279  0.08901  0.71943  1.0000
  C   C6        1.0  0.47721  0.41099  0.21943  1.0000
  C   C7        1.0  0.97721  0.91099  0.28057  1.0000
  C   C8        1.0  0.52279  0.58901  0.78057  1.0000
  C   C9        1.0  0.11330  0.18569  0.79034  1.0000
  C   C10       1.0  0.38670  0.31432  0.29035  1.0000
  C   C11       1.0  0.88670  0.81432  0.20966  1.0000
  C   C12       1.0  0.61330  0.68568  0.70966  1.0000
  C   C13       1.0  0.92027  0.30202  0.78416  1.0000
  C   C14       1.0  0.57973  0.19798  0.28416  1.0000
  C   C15       1.0  0.07973  0.69799  0.21583  1.0000
  C   C16       1.0  0.42027  0.80202  0.71584  1.0000
  C   C17       1.0  0.67270  0.21065  0.67132  1.0000
  C   C18       1.0  0.82730  0.28935  0.17132  1.0000
  C   C19       1.0  0.32730  0.78935  0.32868  1.0000
  C   C20       1.0  0.17270  0.71065  0.82868  1.0000
  C   C21       1.0  0.00106  0.63576  0.52077  1.0000
  C   C22       1.0  0.49894  0.86424  0.02077  1.0000
  C   C23       1.0  0.99894  0.36425  0.47923  1.0000
  C   C24       1.0  0.50106  0.13575  0.97923  1.0000
  C   C25       1.0  0.85553  0.53629  0.48891  1.0000
  C   C26       1.0  0.64447  0.96371  0.98890  1.0000
  C   C27       1.0  0.14447  0.46371  0.51109  1.0000
  C   C28       1.0  0.35553  0.03629  0.01109  1.0000
  C   C29       1.0  0.14509  0.59854  0.53129  1.0000
  C   C30       1.0  0.35491  0.90146  0.03129  1.0000
  C   C31       1.0  0.85491  0.40147  0.46871  1.0000
  C   C32       1.0  0.64509  0.09853  0.96871  1.0000
  C   C33       1.0  0.00157  0.78152  0.54232  1.0000
  C   C34       1.0  0.49843  0.71848  0.04232  1.0000
  C   C35       1.0  0.99843  0.21848  0.45768  1.0000
  C   C36       1.0  0.50156  0.28152  0.95768  1.0000
  N   N1        1.0  0.88151  0.09903  0.68185  1.0000
  N   N2        1.0  0.61849  0.40097  0.18185  1.0000
  N   N3        1.0  0.11849  0.90097  0.31815  1.0000
  N   N4        1.0  0.38151  0.59903  0.81815  1.0000
  N   N5        1.0  0.06168  0.29148  0.82195  1.0000
  N   N6        1.0  0.43832  0.20852  0.32195  1.0000
  N   N7        1.0  0.93832  0.70852  0.17805  1.0000
  N   N8        1.0  0.56168  0.79148  0.67805  1.0000
  N   N9        1.0  0.58419  0.11426  0.60541  1.0000
  N   N10       1.0  0.91581  0.38574  0.10541  1.0000
  N   N11       1.0  0.41581  0.88574  0.39460  1.0000
  N   N12       1.0  0.08419  0.61426  0.89459  1.0000
  N   N13       1.0  0.45611  0.15703  0.58033  1.0000
  N   N14       1.0  0.04389  0.34297  0.08033  1.0000
  N   N15       1.0  0.54389  0.84297  0.41967  1.0000
  N   N16       1.0  0.95611  0.65703  0.91967  1.0000
  N   N17       1.0  0.46566  0.27498  0.62920  1.0000
  N   N18       1.0  0.03434  0.22502  0.12920  1.0000
  N   N19       1.0  0.53434  0.72503  0.37080  1.0000
  N   N20       1.0  0.96566  0.77498  0.87080  1.0000
  N   N21       1.0  0.60104  0.31045  0.68708  1.0000
  N   N22       1.0  0.89896  0.18955  0.18708  1.0000
  N   N23       1.0  0.39896  0.68955  0.31292  1.0000
  N   N24       1.0  0.10104  0.81045  0.81292  1.0000
  O   O1        1.0  0.13757  0.87336  0.56137  1.0000
  O   O2        1.0  0.36243  0.62664  0.06137  1.0000
  O   O3        1.0  0.86243  0.12664  0.43863  1.0000
  O   O4        1.0  0.63757  0.37336  0.93863  1.0000
  O   O5        1.0  0.86156  0.80075  0.54022  1.0000
  O   O6        1.0  0.63844  0.69925  0.04022  1.0000
  O   O7        1.0  0.13844  0.19925  0.45978  1.0000
  O   O8        1.0  0.36156  0.30075  0.95978  1.0000
