data_image0
_chemical_formula_structural       Li4H32C28N16Cl4O16
_chemical_formula_sum              "Li4 H32 C28 N16 Cl4 O16"
_cell_length_a       9.08649
_cell_length_b       9.08792
_cell_length_c       12.9168
_cell_angle_alpha    90.001
_cell_angle_beta     89.9994
_cell_angle_gamma    90.0391

_space_group_name_H-M_alt    "P 1"
_space_group_IT_number       1

loop_
  _space_group_symop_operation_xyz
  'x, y, z'

loop_
  _atom_site_type_symbol
  _atom_site_label
  _atom_site_symmetry_multiplicity
  _atom_site_fract_x
  _atom_site_fract_y
  _atom_site_fract_z
  _atom_site_occupancy
  Li  Li1       1.0  0.28952  0.59844  0.05946  1.0000
  Li  Li2       1.0  0.71048  0.40156  0.55946  1.0000
  Li  Li3       1.0  0.40140  0.28940  0.30923  1.0000
  Li  Li4       1.0  0.59860  0.71059  0.80923  1.0000
  H   H1        1.0  0.62553  0.51550  0.17657  1.0000
  H   H2        1.0  0.37447  0.48450  0.67656  1.0000
  H   H3        1.0  0.48430  0.62550  0.42570  1.0000
  H   H4        1.0  0.51571  0.37449  0.92570  1.0000
  H   H5        1.0  0.34147  0.88258  0.16791  1.0000
  H   H6        1.0  0.65853  0.11741  0.66792  1.0000
  H   H7        1.0  0.11707  0.34103  0.41809  1.0000
  H   H8        1.0  0.88292  0.65898  0.91810  1.0000
  H   H9        1.0  0.59334  0.95705  0.27862  1.0000
  H   H10       1.0  0.40666  0.04296  0.77862  1.0000
  H   H11       1.0  0.04317  0.59290  0.52884  1.0000
  H   H12       1.0  0.95683  0.40712  0.02885  1.0000
  H   H13       1.0  0.80974  0.61907  0.32715  1.0000
  H   H14       1.0  0.19025  0.38094  0.82716  1.0000
  H   H15       1.0  0.38161  0.80945  0.57669  1.0000
  H   H16       1.0  0.61839  0.19055  0.07668  1.0000
  H   H17       1.0  0.80157  0.81334  0.34613  1.0000
  H   H18       1.0  0.19842  0.18667  0.84613  1.0000
  H   H19       1.0  0.18731  0.80104  0.59611  1.0000
  H   H20       1.0  0.81269  0.19896  0.09611  1.0000
  H   H21       1.0  0.02006  0.53201  0.22587  1.0000
  H   H22       1.0  0.97994  0.46800  0.72588  1.0000
  H   H23       1.0  0.46837  0.02002  0.47515  1.0000
  H   H24       1.0  0.53163  0.97998  0.97514  1.0000
  H   H25       1.0  0.86842  0.96106  0.15722  1.0000
  H   H26       1.0  0.13157  0.03894  0.65722  1.0000
  H   H27       1.0  0.03842  0.86873  0.40818  1.0000
  H   H28       1.0  0.96159  0.13126  0.90818  1.0000
  H   H29       1.0  0.10774  0.89427  0.03082  1.0000
  H   H30       1.0  0.89226  0.10573  0.53082  1.0000
  H   H31       1.0  0.10478  0.10785  0.28139  1.0000
  H   H32       1.0  0.89523  0.89214  0.78138  1.0000
  C   C1        1.0  0.57951  0.62456  0.18729  1.0000
  C   C2        1.0  0.42048  0.37543  0.68729  1.0000
  C   C3        1.0  0.37523  0.57942  0.43662  1.0000
  C   C4        1.0  0.62477  0.42057  0.93662  1.0000
  C   C5        1.0  0.43771  0.81674  0.18538  1.0000
  C   C6        1.0  0.56229  0.18326  0.68538  1.0000
  C   C7        1.0  0.18298  0.43741  0.43530  1.0000
  C   C8        1.0  0.81702  0.56259  0.93530  1.0000
  C   C9        1.0  0.56014  0.85600  0.24099  1.0000
  C   C10       1.0  0.43986  0.14400  0.74099  1.0000
  C   C11       1.0  0.14402  0.55985  0.49091  1.0000
  C   C12       1.0  0.85598  0.44015  0.99092  1.0000
  C   C13       1.0  0.79474  0.72502  0.28857  1.0000
  C   C14       1.0  0.20526  0.27499  0.78857  1.0000
  C   C15       1.0  0.27538  0.79447  0.53833  1.0000
  C   C16       1.0  0.72461  0.20553  0.03832  1.0000
  C   C17       1.0  0.01411  0.63828  0.18774  1.0000
  C   C18       1.0  0.98589  0.36173  0.68774  1.0000
  C   C19       1.0  0.36181  0.01399  0.43735  1.0000
  C   C20       1.0  0.63820  0.98601  0.93734  1.0000
  C   C21       1.0  0.93537  0.86316  0.15025  1.0000
  C   C22       1.0  0.06463  0.13684  0.65025  1.0000
  C   C23       1.0  0.13650  0.93545  0.40063  1.0000
  C   C24       1.0  0.86351  0.06454  0.90062  1.0000
  C   C25       1.0  0.05397  0.82771  0.08934  1.0000
  C   C26       1.0  0.94603  0.17229  0.58934  1.0000
  C   C27       1.0  0.17175  0.05407  0.33964  1.0000
  C   C28       1.0  0.82825  0.94592  0.83963  1.0000
  N   N1        1.0  0.45098  0.67223  0.15216  1.0000
  N   N2        1.0  0.54902  0.32777  0.65216  1.0000
  N   N3        1.0  0.32736  0.45080  0.40173  1.0000
  N   N4        1.0  0.67264  0.54919  0.90173  1.0000
  N   N5        1.0  0.64937  0.73243  0.24235  1.0000
  N   N6        1.0  0.35062  0.26757  0.74235  1.0000
  N   N7        1.0  0.26763  0.64924  0.49189  1.0000
  N   N8        1.0  0.73237  0.35075  0.99189  1.0000
  N   N9        1.0  0.91092  0.74158  0.21230  1.0000
  N   N10       1.0  0.08908  0.25843  0.71230  1.0000
  N   N11       1.0  0.25842  0.91090  0.46230  1.0000
  N   N12       1.0  0.74158  0.08910  0.96229  1.0000
  N   N13       1.0  0.10248  0.68728  0.11357  1.0000
  N   N14       1.0  0.89752  0.31272  0.61357  1.0000
  N   N15       1.0  0.31247  0.10244  0.36337  1.0000
  N   N16       1.0  0.68753  0.89756  0.86336  1.0000
  Cl  Cl1       1.0  0.25328  0.27057  0.08304  1.0000
  Cl  Cl2       1.0  0.74671  0.72943  0.58304  1.0000
  Cl  Cl3       1.0  0.72945  0.25349  0.33304  1.0000
  Cl  Cl4       1.0  0.27056  0.74650  0.83304  1.0000
  O   O1        1.0  0.26986  0.39230  0.00798  1.0000
  O   O2        1.0  0.73015  0.60770  0.50797  1.0000
  O   O3        1.0  0.60770  0.26923  0.25792  1.0000
  O   O4        1.0  0.39230  0.73076  0.75791  1.0000
  O   O5        1.0  0.36395  0.15942  0.06216  1.0000
  O   O6        1.0  0.63604  0.84058  0.56215  1.0000
  O   O7        1.0  0.84036  0.36448  0.31194  1.0000
  O   O8        1.0  0.15964  0.63552  0.81193  1.0000
  O   O9        1.0  0.10668  0.20823  0.07344  1.0000
  O   O10       1.0  0.89332  0.79178  0.57344  1.0000
  O   O11       1.0  0.79218  0.10713  0.32378  1.0000
  O   O12       1.0  0.20783  0.89287  0.82379  1.0000
  O   O13       1.0  0.27250  0.33284  0.18680  1.0000
  O   O14       1.0  0.72749  0.66717  0.68680  1.0000
  O   O15       1.0  0.66707  0.27299  0.43673  1.0000
  O   O16       1.0  0.33294  0.72699  0.93672  1.0000
