data_image0
_chemical_formula_structural       Ni2H56C40N8O16
_chemical_formula_sum              "Ni2 H56 C40 N8 O16"
_cell_length_a       11.0025
_cell_length_b       11.362
_cell_length_c       13.0993
_cell_angle_alpha    89.9996
_cell_angle_beta     90.001
_cell_angle_gamma    118.581

_space_group_name_H-M_alt    "P 1"
_space_group_IT_number       1

loop_
  _space_group_symop_operation_xyz
  'x, y, z'

loop_
  _atom_site_type_symbol
  _atom_site_label
  _atom_site_symmetry_multiplicity
  _atom_site_fract_x
  _atom_site_fract_y
  _atom_site_fract_z
  _atom_site_occupancy
  Ni  Ni1       1.0  0.50000  0.50000  0.50000  1.0000
  Ni  Ni2       1.0  0.00000  0.50000  0.00000  1.0000
  H   H1        1.0  0.30227  0.53743  0.55635  1.0000
  H   H2        1.0  0.19773  0.46257  0.05636  1.0000
  H   H3        1.0  0.69772  0.46257  0.44365  1.0000
  H   H4        1.0  0.80227  0.53743  0.94365  1.0000
  H   H5        1.0  0.58979  0.47070  0.66636  1.0000
  H   H6        1.0  0.91022  0.52930  0.16636  1.0000
  H   H7        1.0  0.41021  0.52930  0.33364  1.0000
  H   H8        1.0  0.08979  0.47070  0.83364  1.0000
  H   H9        1.0  0.33411  0.35320  0.69689  1.0000
  H   H10       1.0  0.16590  0.64680  0.19689  1.0000
  H   H11       1.0  0.66590  0.64680  0.30311  1.0000
  H   H12       1.0  0.83409  0.35319  0.80311  1.0000
  H   H13       1.0  0.25573  0.45296  0.72778  1.0000
  H   H14       1.0  0.24427  0.54704  0.22779  1.0000
  H   H15       1.0  0.74426  0.54703  0.27222  1.0000
  H   H16       1.0  0.75572  0.45295  0.77222  1.0000
  H   H17       1.0  0.48409  0.66235  0.69662  1.0000
  H   H18       1.0  0.01591  0.33766  0.19663  1.0000
  H   H19       1.0  0.51590  0.33766  0.30337  1.0000
  H   H20       1.0  0.98408  0.66233  0.80337  1.0000
  H   H21       1.0  0.49991  0.55998  0.79170  1.0000
  H   H22       1.0  0.00010  0.44003  0.29170  1.0000
  H   H23       1.0  0.50009  0.44003  0.20830  1.0000
  H   H24       1.0  0.99989  0.55996  0.70830  1.0000
  H   H25       1.0  0.09730  0.31939  0.57217  1.0000
  H   H26       1.0  0.40270  0.68061  0.07218  1.0000
  H   H27       1.0  0.90269  0.68061  0.42783  1.0000
  H   H28       1.0  0.59730  0.31939  0.92782  1.0000
  H   H29       1.0  0.20606  0.24737  0.55030  1.0000
  H   H30       1.0  0.29394  0.75262  0.05030  1.0000
  H   H31       1.0  0.79394  0.75263  0.44970  1.0000
  H   H32       1.0  0.70606  0.24737  0.94970  1.0000
  H   H33       1.0  0.76123  0.69213  0.73042  1.0000
  H   H34       1.0  0.73878  0.30788  0.23042  1.0000
  H   H35       1.0  0.23877  0.30787  0.26958  1.0000
  H   H36       1.0  0.26122  0.69213  0.76959  1.0000
  H   H37       1.0  0.71362  0.76194  0.62715  1.0000
  H   H38       1.0  0.78638  0.23806  0.12716  1.0000
  H   H39       1.0  0.28638  0.23806  0.37285  1.0000
  H   H40       1.0  0.21361  0.76193  0.87285  1.0000
  H   H41       1.0  0.06999  0.25962  0.39629  1.0000
  H   H42       1.0  0.43000  0.74038  0.89630  1.0000
  H   H43       1.0  0.93001  0.74038  0.60371  1.0000
  H   H44       1.0  0.56999  0.25962  0.10371  1.0000
  H   H45       1.0  0.17175  0.43578  0.39812  1.0000
  H   H46       1.0  0.32824  0.56421  0.89813  1.0000
  H   H47       1.0  0.82824  0.56421  0.60188  1.0000
  H   H48       1.0  0.67176  0.43578  0.10188  1.0000
  H   H49       1.0  0.52264  0.83338  0.60356  1.0000
  H   H50       1.0  0.97736  0.16663  0.10355  1.0000
  H   H51       1.0  0.47738  0.16663  0.39644  1.0000
  H   H52       1.0  0.02264  0.83337  0.89644  1.0000
  H   H53       1.0  0.43375  0.80455  0.26564  1.0000
  H   H54       1.0  0.06628  0.19547  0.76564  1.0000
  H   H55       1.0  0.56626  0.19546  0.73435  1.0000
  H   H56       1.0  0.93373  0.80452  0.23435  1.0000
  C   C1        1.0  0.33779  0.44998  0.68159  1.0000
  C   C2        1.0  0.16221  0.55002  0.18159  1.0000
  C   C3        1.0  0.66221  0.55002  0.31841  1.0000
  C   C4        1.0  0.83778  0.44997  0.81841  1.0000
  C   C5        1.0  0.47956  0.56462  0.70960  1.0000
  C   C6        1.0  0.02045  0.43538  0.20961  1.0000
  C   C7        1.0  0.52044  0.43538  0.29040  1.0000
  C   C8        1.0  0.97955  0.56461  0.79040  1.0000
  C   C9        1.0  0.19173  0.33421  0.53174  1.0000
  C   C10       1.0  0.30827  0.66579  0.03174  1.0000
  C   C11       1.0  0.80827  0.66579  0.46827  1.0000
  C   C12       1.0  0.69173  0.33421  0.96826  1.0000
  C   C13       1.0  0.72275  0.67370  0.65092  1.0000
  C   C14       1.0  0.77725  0.32630  0.15093  1.0000
  C   C15       1.0  0.27725  0.32630  0.34907  1.0000
  C   C16       1.0  0.22275  0.67369  0.84908  1.0000
  C   C17       1.0  0.17257  0.34135  0.41692  1.0000
  C   C18       1.0  0.32743  0.65864  0.91693  1.0000
  C   C19       1.0  0.82743  0.65865  0.58308  1.0000
  C   C20       1.0  0.67257  0.34135  0.08308  1.0000
  C   C21       1.0  0.51243  0.90741  0.55730  1.0000
  C   C22       1.0  0.98757  0.09259  0.05730  1.0000
  C   C23       1.0  0.48757  0.09259  0.44270  1.0000
  C   C24       1.0  0.01244  0.90742  0.94270  1.0000
  C   C25       1.0  0.49633  0.88570  0.45194  1.0000
  C   C26       1.0  0.00368  0.11431  0.95193  1.0000
  C   C27       1.0  0.50369  0.11431  0.54806  1.0000
  C   C28       1.0  0.99632  0.88569  0.04805  1.0000
  C   C29       1.0  0.48350  0.98297  0.39153  1.0000
  C   C30       1.0  0.01651  0.01705  0.89152  1.0000
  C   C31       1.0  0.51652  0.01704  0.60848  1.0000
  C   C32       1.0  0.98349  0.98296  0.10847  1.0000
  C   C33       1.0  0.49144  0.75608  0.41744  1.0000
  C   C34       1.0  0.00856  0.24393  0.91743  1.0000
  C   C35       1.0  0.50856  0.24392  0.58256  1.0000
  C   C36       1.0  0.99144  0.75608  0.08255  1.0000
  C   C37       1.0  0.46719  0.98948  0.27623  1.0000
  C   C38       1.0  0.03284  0.01054  0.77622  1.0000
  C   C39       1.0  0.53283  0.01052  0.72378  1.0000
  C   C40       1.0  0.96716  0.98947  0.22377  1.0000
  N   N1        1.0  0.31372  0.45471  0.57105  1.0000
  N   N2        1.0  0.18628  0.54529  0.07106  1.0000
  N   N3        1.0  0.68628  0.54529  0.42895  1.0000
  N   N4        1.0  0.81372  0.45470  0.92895  1.0000
  N   N5        1.0  0.58456  0.55582  0.64540  1.0000
  N   N6        1.0  0.91544  0.44418  0.14540  1.0000
  N   N7        1.0  0.41544  0.44418  0.35460  1.0000
  N   N8        1.0  0.08456  0.55581  0.85460  1.0000
  O   O1        1.0  0.53156  0.69856  0.48169  1.0000
  O   O2        1.0  0.96843  0.30144  0.98169  1.0000
  O   O3        1.0  0.46843  0.30144  0.51831  1.0000
  O   O4        1.0  0.03158  0.69856  0.01831  1.0000
  O   O5        1.0  0.44361  0.70807  0.32892  1.0000
  O   O6        1.0  0.05640  0.29194  0.82892  1.0000
  O   O7        1.0  0.55639  0.29194  0.67107  1.0000
  O   O8        1.0  0.94362  0.70806  0.17107  1.0000
  O   O9        1.0  0.43559  0.88170  0.22038  1.0000
  O   O10       1.0  0.06444  0.11833  0.72038  1.0000
  O   O11       1.0  0.56443  0.11831  0.77962  1.0000
  O   O12       1.0  0.93556  0.88168  0.27961  1.0000
  O   O13       1.0  0.48114  0.09387  0.23713  1.0000
  O   O14       1.0  0.01887  0.90615  0.73712  1.0000
  O   O15       1.0  0.51887  0.90613  0.76288  1.0000
  O   O16       1.0  0.98111  0.09385  0.26286  1.0000
