data_image0
_chemical_formula_structural       Co2H20C16O8
_chemical_formula_sum              "Co2 H20 C16 O8"
_cell_length_a       5.06413
_cell_length_b       6.47792
_cell_length_c       12.9864
_cell_angle_alpha    100.55
_cell_angle_beta     98.3969
_cell_angle_gamma    100.648

_space_group_name_H-M_alt    "P 1"
_space_group_IT_number       1

loop_
  _space_group_symop_operation_xyz
  'x, y, z'

loop_
  _atom_site_type_symbol
  _atom_site_label
  _atom_site_symmetry_multiplicity
  _atom_site_fract_x
  _atom_site_fract_y
  _atom_site_fract_z
  _atom_site_occupancy
  Co  Co1       1.0  0.77909  0.92507  0.96888  1.0000
  Co  Co2       1.0  0.22655  0.07493  0.03196  1.0000
  H   H1        1.0  0.58746  0.47482  0.17246  1.0000
  H   H2        1.0  0.41704  0.52537  0.82729  1.0000
  H   H3        1.0  0.97792  0.34038  0.33820  1.0000
  H   H4        1.0  0.02192  0.66096  0.66343  1.0000
  H   H5        1.0  0.64031  0.19662  0.27857  1.0000
  H   H6        1.0  0.36155  0.80293  0.72129  1.0000
  H   H7        1.0  0.44685  0.49510  0.35617  1.0000
  H   H8        1.0  0.54885  0.50283  0.64051  1.0000
  H   H9        1.0  0.65765  0.42417  0.45875  1.0000
  H   H10       1.0  0.33331  0.57506  0.53986  1.0000
  H   H11       1.0  0.73069  0.82804  0.47507  1.0000
  H   H12       1.0  0.25703  0.17122  0.52248  1.0000
  H   H13       1.0  0.03166  0.73112  0.46566  1.0000
  H   H14       1.0  0.95946  0.27029  0.53550  1.0000
  H   H15       1.0  0.66199  0.84527  0.28465  1.0000
  H   H16       1.0  0.33742  0.15378  0.71336  1.0000
  H   H17       1.0  0.99521  0.98798  0.34855  1.0000
  H   H18       1.0  0.00194  0.01214  0.65146  1.0000
  H   H19       1.0  0.18753  0.67736  0.27425  1.0000
  H   H20       1.0  0.81521  0.32473  0.72776  1.0000
  C   C1        1.0  0.79300  0.46060  0.20684  1.0000
  C   C2        1.0  0.21099  0.53954  0.79357  1.0000
  C   C3        1.0  0.77259  0.35841  0.30454  1.0000
  C   C4        1.0  0.22774  0.64169  0.69568  1.0000
  C   C5        1.0  0.66100  0.49657  0.38859  1.0000
  C   C6        1.0  0.33388  0.50270  0.61009  1.0000
  C   C7        1.0  0.82814  0.72803  0.42074  1.0000
  C   C8        1.0  0.16458  0.27191  0.57858  1.0000
  C   C9        1.0  0.86172  0.82651  0.32380  1.0000
  C   C10       1.0  0.13648  0.17327  0.67577  1.0000
  C   C11       1.0  0.97902  0.68617  0.24008  1.0000
  C   C12       1.0  0.02392  0.31438  0.76082  1.0000
  C   C13       1.0  0.88029  0.30415  0.12478  1.0000
  C   C14       1.0  0.12502  0.69607  0.87607  1.0000
  C   C15       1.0  0.99781  0.79563  0.14696  1.0000
  C   C16       1.0  0.00680  0.20441  0.85381  1.0000
  O   O1        1.0  0.68843  0.15824  0.06152  1.0000
  O   O2        1.0  0.31696  0.84161  0.93947  1.0000
  O   O3        1.0  0.13310  0.30917  0.12484  1.0000
  O   O4        1.0  0.87229  0.69137  0.87604  1.0000
  O   O5        1.0  0.77919  0.76432  0.07787  1.0000
  O   O6        1.0  0.22569  0.23518  0.92266  1.0000
  O   O7        1.0  0.22449  0.92033  0.14571  1.0000
  O   O8        1.0  0.78023  0.07958  0.85504  1.0000
