data_image0
_chemical_formula_structural       K2Cu2H24C36N4O4
_chemical_formula_sum              "K2 Cu2 H24 C36 N4 O4"
_cell_length_a       7.28851
_cell_length_b       10.4085
_cell_length_c       11.2261
_cell_angle_alpha    73.0793
_cell_angle_beta     69.9661
_cell_angle_gamma    82.2396

_space_group_name_H-M_alt    "P 1"
_space_group_IT_number       1

loop_
  _space_group_symop_operation_xyz
  'x, y, z'

loop_
  _atom_site_type_symbol
  _atom_site_label
  _atom_site_symmetry_multiplicity
  _atom_site_fract_x
  _atom_site_fract_y
  _atom_site_fract_z
  _atom_site_occupancy
  K   K1        1.0  0.76523  0.43816  0.99252  1.0000
  K   K2        1.0  0.23477  0.56185  0.00747  1.0000
  Cu  Cu1       1.0  0.69176  0.67536  0.16271  1.0000
  Cu  Cu2       1.0  0.30824  0.32464  0.83729  1.0000
  H   H1        1.0  0.11676  0.73713  0.72150  1.0000
  H   H2        1.0  0.88324  0.26287  0.27847  1.0000
  H   H3        1.0  0.16032  0.97128  0.58536  1.0000
  H   H4        1.0  0.83968  0.02873  0.41463  1.0000
  H   H5        1.0  0.99190  0.16275  0.67748  1.0000
  H   H6        1.0  0.00811  0.83725  0.32252  1.0000
  H   H7        1.0  0.74059  0.23850  0.86917  1.0000
  H   H8        1.0  0.25941  0.76150  0.13083  1.0000
  H   H9        1.0  0.54059  0.17537  0.10961  1.0000
  H   H10       1.0  0.45942  0.82462  0.89038  1.0000
  H   H11       1.0  0.53347  0.93700  0.23653  1.0000
  H   H12       1.0  0.46654  0.06301  0.76346  1.0000
  H   H13       1.0  0.22097  0.34968  0.23176  1.0000
  H   H14       1.0  0.77901  0.65031  0.76824  1.0000
  H   H15       1.0  0.20061  0.15212  0.41596  1.0000
  H   H16       1.0  0.79937  0.84788  0.58406  1.0000
  H   H17       1.0  0.40686  0.12242  0.56061  1.0000
  H   H18       1.0  0.59312  0.87759  0.43940  1.0000
  H   H19       1.0  0.67528  0.21223  0.60813  1.0000
  H   H20       1.0  0.32473  0.78777  0.39187  1.0000
  H   H21       1.0  0.91439  0.39081  0.54164  1.0000
  H   H22       1.0  0.08561  0.60918  0.45835  1.0000
  H   H23       1.0  0.91662  0.58951  0.35119  1.0000
  H   H24       1.0  0.08337  0.41049  0.64882  1.0000
  C   C1        1.0  0.92550  0.78737  0.89665  1.0000
  C   C2        1.0  0.07452  0.21264  0.10336  1.0000
  C   C3        1.0  0.04333  0.81905  0.76447  1.0000
  C   C4        1.0  0.95667  0.18095  0.23552  1.0000
  C   C5        1.0  0.06591  0.95264  0.68745  1.0000
  C   C6        1.0  0.93410  0.04735  0.31254  1.0000
  C   C7        1.0  0.97183  0.05934  0.73786  1.0000
  C   C8        1.0  0.02818  0.94065  0.26213  1.0000
  C   C9        1.0  0.85053  0.03334  0.87087  1.0000
  C   C10       1.0  0.14947  0.96665  0.12912  1.0000
  C   C11       1.0  0.74123  0.13505  0.92979  1.0000
  C   C12       1.0  0.25877  0.86495  0.07021  1.0000
  C   C13       1.0  0.62931  0.10086  0.06076  1.0000
  C   C14       1.0  0.37071  0.89913  0.93924  1.0000
  C   C15       1.0  0.62179  0.96537  0.13335  1.0000
  C   C16       1.0  0.37820  0.03462  0.86665  1.0000
  C   C17       1.0  0.82979  0.89788  0.95073  1.0000
  C   C18       1.0  0.17022  0.10213  0.04928  1.0000
  C   C19       1.0  0.44214  0.44592  0.26088  1.0000
  C   C20       1.0  0.55787  0.55408  0.73912  1.0000
  C   C21       1.0  0.31417  0.34236  0.29178  1.0000
  C   C22       1.0  0.68583  0.65764  0.70823  1.0000
  C   C23       1.0  0.30306  0.22831  0.39806  1.0000
  C   C24       1.0  0.69692  0.77169  0.60195  1.0000
  C   C25       1.0  0.41722  0.21126  0.47834  1.0000
  C   C26       1.0  0.58276  0.78874  0.52168  1.0000
  C   C27       1.0  0.55134  0.31056  0.45154  1.0000
  C   C28       1.0  0.44865  0.68944  0.54846  1.0000
  C   C29       1.0  0.67968  0.29953  0.52501  1.0000
  C   C30       1.0  0.32031  0.70048  0.47500  1.0000
  C   C31       1.0  0.81189  0.39806  0.48867  1.0000
  C   C32       1.0  0.18810  0.60194  0.51133  1.0000
  C   C33       1.0  0.81553  0.50927  0.38104  1.0000
  C   C34       1.0  0.18448  0.49072  0.61897  1.0000
  C   C35       1.0  0.56406  0.42705  0.34347  1.0000
  C   C36       1.0  0.43594  0.57294  0.65653  1.0000
  N   N1        1.0  0.71524  0.86570  0.08041  1.0000
  N   N2        1.0  0.28476  0.13429  0.91959  1.0000
  N   N3        1.0  0.69507  0.52481  0.31039  1.0000
  N   N4        1.0  0.30494  0.47519  0.68961  1.0000
  O   O1        1.0  0.89938  0.66352  0.97153  1.0000
  O   O2        1.0  0.10059  0.33649  0.02848  1.0000
  O   O3        1.0  0.46025  0.55313  0.16103  1.0000
  O   O4        1.0  0.53978  0.44687  0.83898  1.0000
