data_image0
_chemical_formula_structural       Cd2Ag4H32C48N16
_chemical_formula_sum              "Cd2 Ag4 H32 C48 N16"
_cell_length_a       8.89048
_cell_length_b       11.1552
_cell_length_c       13.2815
_cell_angle_alpha    90
_cell_angle_beta     104.741
_cell_angle_gamma    90

_space_group_name_H-M_alt    "P 1"
_space_group_IT_number       1

loop_
  _space_group_symop_operation_xyz
  'x, y, z'

loop_
  _atom_site_type_symbol
  _atom_site_label
  _atom_site_symmetry_multiplicity
  _atom_site_fract_x
  _atom_site_fract_y
  _atom_site_fract_z
  _atom_site_occupancy
  Cd  Cd1       1.0  0.00000  1.00000  0.00000  1.0000
  Cd  Cd2       1.0  0.50000  0.50000  0.50000  1.0000
  Ag  Ag1       1.0  0.67323  0.32101  0.15871  1.0000
  Ag  Ag2       1.0  0.82677  0.82101  0.34129  1.0000
  Ag  Ag3       1.0  0.32677  0.67899  0.84129  1.0000
  Ag  Ag4       1.0  0.17324  0.17899  0.65871  1.0000
  H   H1        1.0  0.61688  0.99154  0.18308  1.0000
  H   H2        1.0  0.88312  0.49154  0.31692  1.0000
  H   H3        1.0  0.38312  0.00846  0.81692  1.0000
  H   H4        1.0  0.11688  0.50846  0.68308  1.0000
  H   H5        1.0  0.37025  0.96562  0.04566  1.0000
  H   H6        1.0  0.12975  0.46562  0.45434  1.0000
  H   H7        1.0  0.62975  0.03438  0.95434  1.0000
  H   H8        1.0  0.87025  0.53438  0.54566  1.0000
  H   H9        1.0  0.11341  0.13454  0.22354  1.0000
  H   H10       1.0  0.38659  0.63454  0.27646  1.0000
  H   H11       1.0  0.88659  0.86546  0.77646  1.0000
  H   H12       1.0  0.61341  0.36546  0.72354  1.0000
  H   H13       1.0  0.34989  0.17229  0.36864  1.0000
  H   H14       1.0  0.15012  0.67229  0.13136  1.0000
  H   H15       1.0  0.65012  0.82771  0.63136  1.0000
  H   H16       1.0  0.84988  0.32771  0.86864  1.0000
  H   H17       1.0  0.80202  0.10470  0.26812  1.0000
  H   H18       1.0  0.69798  0.60470  0.23188  1.0000
  H   H19       1.0  0.19798  0.89530  0.73188  1.0000
  H   H20       1.0  0.30202  0.39530  0.76812  1.0000
  H   H21       1.0  0.03886  0.14391  0.40997  1.0000
  H   H22       1.0  0.46114  0.64391  0.09003  1.0000
  H   H23       1.0  0.96114  0.85609  0.59003  1.0000
  H   H24       1.0  0.53886  0.35609  0.90997  1.0000
  H   H25       1.0  0.78900  0.14531  0.63350  1.0000
  H   H26       1.0  0.71100  0.64531  0.86650  1.0000
  H   H27       1.0  0.21100  0.85469  0.36650  1.0000
  H   H28       1.0  0.28900  0.35469  0.13350  1.0000
  H   H29       1.0  0.53940  0.10948  0.50148  1.0000
  H   H30       1.0  0.96060  0.60948  0.99852  1.0000
  H   H31       1.0  0.46059  0.89053  0.49852  1.0000
  H   H32       1.0  0.03941  0.39053  0.00148  1.0000
  C   C1        1.0  0.80831  0.23922  0.07502  1.0000
  C   C2        1.0  0.69169  0.73922  0.42498  1.0000
  C   C3        1.0  0.19169  0.76078  0.92498  1.0000
  C   C4        1.0  0.30832  0.26078  0.57502  1.0000
  C   C5        1.0  0.88182  0.88257  0.20913  1.0000
  C   C6        1.0  0.61817  0.38257  0.29087  1.0000
  C   C7        1.0  0.11817  0.11743  0.79087  1.0000
  C   C8        1.0  0.38181  0.61743  0.70913  1.0000
  C   C9        1.0  0.50478  0.08325  0.28924  1.0000
  C   C10       1.0  0.99522  0.58325  0.21076  1.0000
  C   C11       1.0  0.49522  0.91675  0.71076  1.0000
  C   C12       1.0  0.00478  0.41675  0.78924  1.0000
  C   C13       1.0  0.50861  0.02647  0.19551  1.0000
  C   C14       1.0  0.99139  0.52647  0.30450  1.0000
  C   C15       1.0  0.49139  0.97353  0.80450  1.0000
  C   C16       1.0  0.00861  0.47353  0.69550  1.0000
  C   C17       1.0  0.37119  0.01104  0.11858  1.0000
  C   C18       1.0  0.12881  0.51104  0.38143  1.0000
  C   C19       1.0  0.62881  0.98896  0.88143  1.0000
  C   C20       1.0  0.87119  0.48896  0.61857  1.0000
  C   C21       1.0  0.22795  0.10433  0.21838  1.0000
  C   C22       1.0  0.27205  0.60433  0.28162  1.0000
  C   C23       1.0  0.77205  0.89567  0.78162  1.0000
  C   C24       1.0  0.72795  0.39567  0.71838  1.0000
  C   C25       1.0  0.35966  0.12361  0.29945  1.0000
  C   C26       1.0  0.14034  0.62361  0.20055  1.0000
  C   C27       1.0  0.64034  0.87639  0.70055  1.0000
  C   C28       1.0  0.85966  0.37639  0.79945  1.0000
  C   C29       1.0  0.64849  0.10209  0.37228  1.0000
  C   C30       1.0  0.85151  0.60209  0.12772  1.0000
  C   C31       1.0  0.35151  0.89791  0.62772  1.0000
  C   C32       1.0  0.14849  0.39791  0.87228  1.0000
  C   C33       1.0  0.79292  0.11135  0.34806  1.0000
  C   C34       1.0  0.70708  0.61135  0.15194  1.0000
  C   C35       1.0  0.20708  0.88865  0.65194  1.0000
  C   C36       1.0  0.29292  0.38865  0.84806  1.0000
  C   C37       1.0  0.92568  0.13446  0.42713  1.0000
  C   C38       1.0  0.57432  0.63446  0.07287  1.0000
  C   C39       1.0  0.07431  0.86554  0.57287  1.0000
  C   C40       1.0  0.42569  0.36554  0.92713  1.0000
  C   C41       1.0  0.78636  0.13595  0.55121  1.0000
  C   C42       1.0  0.71364  0.63595  0.94879  1.0000
  C   C43       1.0  0.21363  0.86405  0.44879  1.0000
  C   C44       1.0  0.28637  0.36405  0.05121  1.0000
  C   C45       1.0  0.64716  0.11466  0.47712  1.0000
  C   C46       1.0  0.85284  0.61466  0.02288  1.0000
  C   C47       1.0  0.35283  0.88534  0.52288  1.0000
  C   C48       1.0  0.14717  0.38534  0.97712  1.0000
  N   N1        1.0  0.88240  0.18233  0.03083  1.0000
  N   N2        1.0  0.61760  0.68233  0.46917  1.0000
  N   N3        1.0  0.11760  0.81767  0.96917  1.0000
  N   N4        1.0  0.38240  0.31767  0.53083  1.0000
  N   N5        1.0  0.90966  0.91801  0.13283  1.0000
  N   N6        1.0  0.59034  0.41801  0.36717  1.0000
  N   N7        1.0  0.09034  0.08199  0.86717  1.0000
  N   N8        1.0  0.40965  0.58199  0.63283  1.0000
  N   N9        1.0  0.23263  0.04860  0.12945  1.0000
  N   N10       1.0  0.26737  0.54860  0.37055  1.0000
  N   N11       1.0  0.76737  0.95140  0.87055  1.0000
  N   N12       1.0  0.73263  0.45139  0.62945  1.0000
  N   N13       1.0  0.92377  0.14665  0.52725  1.0000
  N   N14       1.0  0.57623  0.64665  0.97275  1.0000
  N   N15       1.0  0.07623  0.85335  0.47275  1.0000
  N   N16       1.0  0.42377  0.35334  0.02725  1.0000
