data_image0
_chemical_formula_structural       Cu2H30C34Br2N8O8
_chemical_formula_sum              "Cu2 H30 C34 Br2 N8 O8"
_cell_length_a       8.95346
_cell_length_b       9.21305
_cell_length_c       11.4429
_cell_angle_alpha    93.5641
_cell_angle_beta     90.0001
_cell_angle_gamma    90.0002

_space_group_name_H-M_alt    "P 1"
_space_group_IT_number       1

loop_
  _space_group_symop_operation_xyz
  'x, y, z'

loop_
  _atom_site_type_symbol
  _atom_site_label
  _atom_site_symmetry_multiplicity
  _atom_site_fract_x
  _atom_site_fract_y
  _atom_site_fract_z
  _atom_site_occupancy
  Cu  Cu1       1.0  0.40460  0.30269  0.55655  1.0000
  Cu  Cu2       1.0  0.90460  0.69731  0.44345  1.0000
  H   H1        1.0  0.52767  0.98371  0.59756  1.0000
  H   H2        1.0  0.02766  0.01630  0.40244  1.0000
  H   H3        1.0  0.08771  0.14358  0.58934  1.0000
  H   H4        1.0  0.58770  0.85641  0.41066  1.0000
  H   H5        1.0  0.07789  0.85169  0.64078  1.0000
  H   H6        1.0  0.57788  0.14830  0.35921  1.0000
  H   H7        1.0  0.48880  0.72392  0.63389  1.0000
  H   H8        1.0  0.98879  0.27608  0.36611  1.0000
  H   H9        1.0  0.30694  0.64792  0.61979  1.0000
  H   H10       1.0  0.80693  0.35208  0.38020  1.0000
  H   H11       1.0  0.52337  0.90449  0.83002  1.0000
  H   H12       1.0  0.02337  0.09551  0.16998  1.0000
  H   H13       1.0  0.31942  0.73209  0.13308  1.0000
  H   H14       1.0  0.81942  0.26791  0.86692  1.0000
  H   H15       1.0  0.19939  0.55835  0.78711  1.0000
  H   H16       1.0  0.69939  0.44165  0.21289  1.0000
  H   H17       1.0  0.07857  0.46806  0.94868  1.0000
  H   H18       1.0  0.57858  0.53194  0.05132  1.0000
  H   H19       1.0  0.20780  0.44446  0.06469  1.0000
  H   H20       1.0  0.70781  0.55554  0.93531  1.0000
  H   H21       1.0  0.12674  0.51738  0.26284  1.0000
  H   H22       1.0  0.62674  0.48262  0.73716  1.0000
  H   H23       1.0  0.77862  0.81308  0.20195  1.0000
  H   H24       1.0  0.27861  0.18693  0.79805  1.0000
  H   H25       1.0  0.90769  0.72076  0.98879  1.0000
  H   H26       1.0  0.40769  0.27924  0.01121  1.0000
  H   H27       1.0  0.42650  0.59802  0.29235  1.0000
  H   H28       1.0  0.92649  0.40198  0.70765  1.0000
  H   H29       1.0  0.32042  0.56362  0.42092  1.0000
  H   H30       1.0  0.82042  0.43638  0.57908  1.0000
  C   C1        1.0  0.40682  0.98917  0.60007  1.0000
  C   C2        1.0  0.90682  0.01083  0.39993  1.0000
  C   C3        1.0  0.17689  0.06518  0.59579  1.0000
  C   C4        1.0  0.67689  0.93482  0.40421  1.0000
  C   C5        1.0  0.17166  0.92201  0.62336  1.0000
  C   C6        1.0  0.67165  0.07798  0.37664  1.0000
  C   C7        1.0  0.37246  0.73621  0.66325  1.0000
  C   C8        1.0  0.87246  0.26379  0.33675  1.0000
  C   C9        1.0  0.36131  0.73191  0.79476  1.0000
  C   C10       1.0  0.86131  0.26809  0.20524  1.0000
  C   C11       1.0  0.44586  0.82861  0.86712  1.0000
  C   C12       1.0  0.94586  0.17139  0.13288  1.0000
  C   C13       1.0  0.42881  0.82729  0.98808  1.0000
  C   C14       1.0  0.92881  0.17272  0.01192  1.0000
  C   C15       1.0  0.33180  0.73039  0.03820  1.0000
  C   C16       1.0  0.83180  0.26961  0.96180  1.0000
  C   C17       1.0  0.24935  0.63236  0.96540  1.0000
  C   C18       1.0  0.74935  0.36764  0.03460  1.0000
  C   C19       1.0  0.26343  0.63466  0.84399  1.0000
  C   C20       1.0  0.76343  0.36534  0.15600  1.0000
  C   C21       1.0  0.14508  0.52512  0.01768  1.0000
  C   C22       1.0  0.64508  0.47488  0.98232  1.0000
  C   C23       1.0  0.04945  0.58708  0.22004  1.0000
  C   C24       1.0  0.54945  0.41292  0.77996  1.0000
  C   C25       1.0  0.87124  0.73963  0.18406  1.0000
  C   C26       1.0  0.37124  0.26037  0.81594  1.0000
  C   C27       1.0  0.93240  0.69448  0.07793  1.0000
  C   C28       1.0  0.43240  0.30553  0.92207  1.0000
  C   C29       1.0  0.55654  0.52534  0.43541  1.0000
  C   C30       1.0  0.05654  0.47466  0.56459  1.0000
  C   C31       1.0  0.41383  0.52565  0.36401  1.0000
  C   C32       1.0  0.91383  0.47434  0.63599  1.0000
  C   C33       1.0  0.37062  0.37284  0.31426  1.0000
  C   C34       1.0  0.87062  0.62715  0.68574  1.0000
  Br  Br1       1.0  0.53929  0.96164  0.08755  1.0000
  Br  Br2       1.0  0.03929  0.03836  0.91245  1.0000
  N   N1        1.0  0.32372  0.10478  0.58055  1.0000
  N   N2        1.0  0.82372  0.89522  0.41945  1.0000
  N   N3        1.0  0.31845  0.87550  0.62475  1.0000
  N   N4        1.0  0.81844  0.12450  0.37525  1.0000
  N   N5        1.0  0.94563  0.67242  0.27192  1.0000
  N   N6        1.0  0.44563  0.32758  0.72808  1.0000
  N   N7        1.0  0.04412  0.59759  0.10259  1.0000
  N   N8        1.0  0.54412  0.40241  0.89741  1.0000
  O   O1        1.0  0.55933  0.44938  0.52686  1.0000
  O   O2        1.0  0.05934  0.55063  0.47315  1.0000
  O   O3        1.0  0.66690  0.59626  0.40253  1.0000
  O   O4        1.0  0.16689  0.40373  0.59747  1.0000
  O   O5        1.0  0.36749  0.26971  0.38647  1.0000
  O   O6        1.0  0.86749  0.73029  0.61354  1.0000
  O   O7        1.0  0.33911  0.35359  0.20817  1.0000
  O   O8        1.0  0.83913  0.64641  0.79184  1.0000
