data_image0
_chemical_formula_structural       Ca2H8C14O10
_chemical_formula_sum              "Ca2 H8 C14 O10"
_cell_length_a       5.76843
_cell_length_b       6.72215
_cell_length_c       10.2016
_cell_angle_alpha    107.788
_cell_angle_beta     93.488
_cell_angle_gamma    107.209

_space_group_name_H-M_alt    "P 1"
_space_group_IT_number       1

loop_
  _space_group_symop_operation_xyz
  'x, y, z'

loop_
  _atom_site_type_symbol
  _atom_site_label
  _atom_site_symmetry_multiplicity
  _atom_site_fract_x
  _atom_site_fract_y
  _atom_site_fract_z
  _atom_site_occupancy
  Ca  Ca1       1.0  0.34317  0.68481  0.94863  1.0000
  Ca  Ca2       1.0  0.65684  0.31519  0.05137  1.0000
  H   H1        1.0  0.30695  0.59369  0.40139  1.0000
  H   H2        1.0  0.69305  0.40631  0.59861  1.0000
  H   H3        1.0  0.36879  0.75674  0.65687  1.0000
  H   H4        1.0  0.63121  0.24326  0.34313  1.0000
  H   H5        1.0  0.75586  0.63497  0.80986  1.0000
  H   H6        1.0  0.24414  0.36503  0.19014  1.0000
  H   H7        1.0  0.72348  0.86112  0.80421  1.0000
  H   H8        1.0  0.27652  0.13888  0.19579  1.0000
  C   C1        1.0  0.98178  0.95227  0.42465  1.0000
  C   C2        1.0  0.01821  0.04774  0.57535  1.0000
  C   C3        1.0  0.09814  0.79351  0.36483  1.0000
  C   C4        1.0  0.90186  0.20650  0.63518  1.0000
  C   C5        1.0  0.22203  0.71730  0.44871  1.0000
  C   C6        1.0  0.77797  0.28269  0.55129  1.0000
  C   C7        1.0  0.25666  0.81018  0.59432  1.0000
  C   C8        1.0  0.74333  0.18983  0.40568  1.0000
  C   C9        1.0  0.83178  0.01999  0.34150  1.0000
  C   C10       1.0  0.16822  0.98001  0.65850  1.0000
  C   C11       1.0  0.11849  0.71834  0.21377  1.0000
  C   C12       1.0  0.88151  0.28165  0.78623  1.0000
  C   C13       1.0  0.73146  0.90308  0.18828  1.0000
  C   C14       1.0  0.26855  0.09692  0.81172  1.0000
  O   O1        1.0  0.19242  0.86062  0.15441  1.0000
  O   O2        1.0  0.80758  0.13938  0.84559  1.0000
  O   O3        1.0  0.07493  0.51113  0.14948  1.0000
  O   O4        1.0  0.92507  0.48887  0.85052  1.0000
  O   O5        1.0  0.70027  0.01679  0.11357  1.0000
  O   O6        1.0  0.29973  0.98321  0.88643  1.0000
  O   O7        1.0  0.65381  0.69093  0.13878  1.0000
  O   O8        1.0  0.34619  0.30907  0.86122  1.0000
  O   O9        1.0  0.63254  0.70512  0.79425  1.0000
  O   O10       1.0  0.36747  0.29488  0.20575  1.0000
