data_image0
_chemical_formula_structural       Zn4H16C28O20
_chemical_formula_sum              "Zn4 H16 C28 O20"
_cell_length_a       7.08051
_cell_length_b       9.64945
_cell_length_c       9.9855
_cell_angle_alpha    90.0001
_cell_angle_beta     90
_cell_angle_gamma    89.9998

_space_group_name_H-M_alt    "P 1"
_space_group_IT_number       1

loop_
  _space_group_symop_operation_xyz
  'x, y, z'

loop_
  _atom_site_type_symbol
  _atom_site_label
  _atom_site_symmetry_multiplicity
  _atom_site_fract_x
  _atom_site_fract_y
  _atom_site_fract_z
  _atom_site_occupancy
  Zn  Zn1       1.0  0.90023  0.76080  0.50000  1.0000
  Zn  Zn2       1.0  0.59977  0.26080  0.50000  1.0000
  Zn  Zn3       1.0  0.40023  0.73920  0.50000  1.0000
  Zn  Zn4       1.0  0.09977  0.23920  0.50000  1.0000
  H   H1        1.0  0.41389  0.67522  0.12537  1.0000
  H   H2        1.0  0.08611  0.17522  0.87463  1.0000
  H   H3        1.0  0.91389  0.82478  0.87463  1.0000
  H   H4        1.0  0.58611  0.32478  0.12537  1.0000
  H   H5        1.0  0.58611  0.32478  0.87463  1.0000
  H   H6        1.0  0.91389  0.82478  0.12537  1.0000
  H   H7        1.0  0.08611  0.17522  0.12537  1.0000
  H   H8        1.0  0.41389  0.67522  0.87463  1.0000
  H   H9        1.0  0.67137  0.55639  0.57748  1.0000
  H   H10       1.0  0.82863  0.05640  0.42252  1.0000
  H   H11       1.0  0.17137  0.94360  0.42252  1.0000
  H   H12       1.0  0.32863  0.44360  0.57748  1.0000
  H   H13       1.0  0.32863  0.44360  0.42252  1.0000
  H   H14       1.0  0.17137  0.94360  0.57748  1.0000
  H   H15       1.0  0.82863  0.05640  0.57748  1.0000
  H   H16       1.0  0.67137  0.55639  0.42252  1.0000
  C   C1        1.0  0.30092  0.62401  0.07028  1.0000
  C   C2        1.0  0.19907  0.12400  0.92972  1.0000
  C   C3        1.0  0.80093  0.87599  0.92972  1.0000
  C   C4        1.0  0.69907  0.37599  0.07028  1.0000
  C   C5        1.0  0.69907  0.37599  0.92972  1.0000
  C   C6        1.0  0.80093  0.87599  0.07028  1.0000
  C   C7        1.0  0.19907  0.12400  0.07028  1.0000
  C   C8        1.0  0.30093  0.62401  0.92972  1.0000
  C   C9        1.0  0.14954  0.56988  0.14085  1.0000
  C   C10       1.0  0.35046  0.06988  0.85915  1.0000
  C   C11       1.0  0.64954  0.93012  0.85916  1.0000
  C   C12       1.0  0.85046  0.43012  0.14084  1.0000
  C   C13       1.0  0.85046  0.43012  0.85916  1.0000
  C   C14       1.0  0.64954  0.93012  0.14084  1.0000
  C   C15       1.0  0.35045  0.06988  0.14085  1.0000
  C   C16       1.0  0.14954  0.56988  0.85915  1.0000
  C   C17       1.0  1.00000  0.50000  0.07216  1.0000
  C   C18       1.0  0.50000  0.00000  0.92784  1.0000
  C   C19       1.0  1.00000  0.50000  0.92784  1.0000
  C   C20       1.0  0.50000  1.00000  0.07216  1.0000
  C   C21       1.0  0.14184  0.60765  0.28627  1.0000
  C   C22       1.0  0.35817  0.10765  0.71373  1.0000
  C   C23       1.0  0.64184  0.89235  0.71373  1.0000
  C   C24       1.0  0.85816  0.39235  0.28627  1.0000
  C   C25       1.0  0.85816  0.39235  0.71373  1.0000
  C   C26       1.0  0.64184  0.89235  0.28627  1.0000
  C   C27       1.0  0.35816  0.10765  0.28627  1.0000
  C   C28       1.0  0.14184  0.60765  0.71373  1.0000
  O   O1        1.0  0.98627  0.65417  0.33027  1.0000
  O   O2        1.0  0.51373  0.15416  0.66974  1.0000
  O   O3        1.0  0.48628  0.84584  0.66973  1.0000
  O   O4        1.0  0.01373  0.34583  0.33026  1.0000
  O   O5        1.0  0.01373  0.34584  0.66973  1.0000
  O   O6        1.0  0.48628  0.84584  0.33027  1.0000
  O   O7        1.0  0.51372  0.15416  0.33027  1.0000
  O   O8        1.0  0.98627  0.65417  0.66973  1.0000
  O   O9        1.0  0.29582  0.59907  0.35322  1.0000
  O   O10       1.0  0.20419  0.09907  0.64679  1.0000
  O   O11       1.0  0.79582  0.90094  0.64679  1.0000
  O   O12       1.0  0.70419  0.40093  0.35321  1.0000
  O   O13       1.0  0.70419  0.40093  0.64679  1.0000
  O   O14       1.0  0.79582  0.90093  0.35321  1.0000
  O   O15       1.0  0.20418  0.09907  0.35321  1.0000
  O   O16       1.0  0.29582  0.59907  0.64678  1.0000
  O   O17       1.0  0.65902  0.62260  0.50000  1.0000
  O   O18       1.0  0.84098  0.12260  0.50000  1.0000
  O   O19       1.0  0.15902  0.87740  0.50000  1.0000
  O   O20       1.0  0.34098  0.37740  0.50000  1.0000
