data_image0
_chemical_formula_structural       Ag8H24C24N16
_chemical_formula_sum              "Ag8 H24 C24 N16"
_cell_length_a       6.03592
_cell_length_b       6.50408
_cell_length_c       20.5234
_cell_angle_alpha    90.0067
_cell_angle_beta     90.0004
_cell_angle_gamma    89.9995

_space_group_name_H-M_alt    "P 1"
_space_group_IT_number       1

loop_
  _space_group_symop_operation_xyz
  'x, y, z'

loop_
  _atom_site_type_symbol
  _atom_site_label
  _atom_site_symmetry_multiplicity
  _atom_site_fract_x
  _atom_site_fract_y
  _atom_site_fract_z
  _atom_site_occupancy
  Ag  Ag1       1.0  0.22662  0.32602  0.00289  1.0000
  Ag  Ag2       1.0  0.27335  0.67396  0.50289  1.0000
  Ag  Ag3       1.0  0.77335  0.82603  0.49712  1.0000
  Ag  Ag4       1.0  0.72663  0.17399  0.99711  1.0000
  Ag  Ag5       1.0  0.77334  0.67399  0.99711  1.0000
  Ag  Ag6       1.0  0.72668  0.32601  0.49711  1.0000
  Ag  Ag7       1.0  0.22668  0.17395  0.50288  1.0000
  Ag  Ag8       1.0  0.27335  0.82602  0.00289  1.0000
  H   H1        1.0  0.16306  0.48175  0.84455  1.0000
  H   H2        1.0  0.33688  0.51813  0.34455  1.0000
  H   H3        1.0  0.83687  0.98185  0.65546  1.0000
  H   H4        1.0  0.66307  0.01826  0.15544  1.0000
  H   H5        1.0  0.83690  0.51825  0.15545  1.0000
  H   H6        1.0  0.66316  0.48185  0.65545  1.0000
  H   H7        1.0  0.16315  0.01813  0.34454  1.0000
  H   H8        1.0  0.33689  0.98175  0.84456  1.0000
  H   H9        1.0  0.48601  0.37121  0.75585  1.0000
  H   H10       1.0  0.01398  0.62872  0.25584  1.0000
  H   H11       1.0  0.51398  0.87127  0.74415  1.0000
  H   H12       1.0  0.98599  0.12881  0.24414  1.0000
  H   H13       1.0  0.51398  0.62882  0.24415  1.0000
  H   H14       1.0  0.98606  0.37126  0.74416  1.0000
  H   H15       1.0  0.48605  0.12872  0.25584  1.0000
  H   H16       1.0  0.01400  0.87120  0.75585  1.0000
  H   H17       1.0  0.80343  0.17966  0.83192  1.0000
  H   H18       1.0  0.69659  0.82034  0.33192  1.0000
  H   H19       1.0  0.19659  0.67966  0.66809  1.0000
  H   H20       1.0  0.30340  0.32036  0.16808  1.0000
  H   H21       1.0  0.19657  0.82037  0.16809  1.0000
  H   H22       1.0  0.30344  0.17963  0.66808  1.0000
  H   H23       1.0  0.80342  0.32035  0.33192  1.0000
  H   H24       1.0  0.69658  0.67966  0.83191  1.0000
  C   C1        1.0  0.31909  0.40282  0.85230  1.0000
  C   C2        1.0  0.18087  0.59712  0.35229  1.0000
  C   C3        1.0  0.68087  0.90287  0.64770  1.0000
  C   C4        1.0  0.81907  0.09718  0.14769  1.0000
  C   C5        1.0  0.68089  0.59719  0.14770  1.0000
  C   C6        1.0  0.81915  0.40286  0.64771  1.0000
  C   C7        1.0  0.31914  0.09712  0.35229  1.0000
  C   C8        1.0  0.18091  0.90284  0.85230  1.0000
  C   C9        1.0  0.48400  0.34528  0.80796  1.0000
  C   C10       1.0  0.01599  0.65466  0.30795  1.0000
  C   C11       1.0  0.51599  0.84533  0.69206  1.0000
  C   C12       1.0  0.98396  0.15472  0.19205  1.0000
  C   C13       1.0  0.51599  0.65474  0.19206  1.0000
  C   C14       1.0  0.98404  0.34533  0.69205  1.0000
  C   C15       1.0  0.48403  0.15466  0.30794  1.0000
  C   C16       1.0  0.01601  0.84529  0.80794  1.0000
  C   C17       1.0  0.64667  0.24876  0.84574  1.0000
  C   C18       1.0  0.85332  0.75121  0.34574  1.0000
  C   C19       1.0  0.35330  0.74878  0.65426  1.0000
  C   C20       1.0  0.14667  0.25126  0.15425  1.0000
  C   C21       1.0  0.35330  0.75126  0.15427  1.0000
  C   C22       1.0  0.14673  0.24877  0.65426  1.0000
  C   C23       1.0  0.64671  0.25121  0.34574  1.0000
  C   C24       1.0  0.85330  0.74876  0.84574  1.0000
  N   N1        1.0  0.37997  0.34434  0.91268  1.0000
  N   N2        1.0  0.12000  0.65562  0.41268  1.0000
  N   N3        1.0  0.61999  0.84436  0.58731  1.0000
  N   N4        1.0  0.87998  0.15567  0.08731  1.0000
  N   N5        1.0  0.62000  0.65568  0.08732  1.0000
  N   N6        1.0  0.88004  0.34435  0.58732  1.0000
  N   N7        1.0  0.38002  0.15562  0.41268  1.0000
  N   N8        1.0  0.11999  0.84435  0.91269  1.0000
  N   N9        1.0  0.58149  0.24801  0.90867  1.0000
  N   N10       1.0  0.91849  0.75196  0.40867  1.0000
  N   N11       1.0  0.41848  0.74803  0.59134  1.0000
  N   N12       1.0  0.08150  0.25200  0.09132  1.0000
  N   N13       1.0  0.41848  0.75201  0.09134  1.0000
  N   N14       1.0  0.08155  0.24801  0.59133  1.0000
  N   N15       1.0  0.58153  0.25195  0.40866  1.0000
  N   N16       1.0  0.91847  0.74802  0.90867  1.0000
