data_image0
_chemical_formula_structural       Pr2H22C32N4Cl12O12
_chemical_formula_sum              "Pr2 H22 C32 N4 Cl12 O12"
_cell_length_a       8.86144
_cell_length_b       12.2017
_cell_length_c       12.2841
_cell_angle_alpha    109.204
_cell_angle_beta     105.085
_cell_angle_gamma    102.469

_space_group_name_H-M_alt    "P 1"
_space_group_IT_number       1

loop_
  _space_group_symop_operation_xyz
  'x, y, z'

loop_
  _atom_site_type_symbol
  _atom_site_label
  _atom_site_symmetry_multiplicity
  _atom_site_fract_x
  _atom_site_fract_y
  _atom_site_fract_z
  _atom_site_occupancy
  Pr  Pr1       1.0  0.65107  0.88216  0.99173  1.0000
  Pr  Pr2       1.0  0.34893  0.11784  0.00826  1.0000
  H   H1        1.0  0.50536  0.66807  0.69782  1.0000
  H   H2        1.0  0.49464  0.33193  0.30219  1.0000
  H   H3        1.0  0.45287  0.44908  0.56005  1.0000
  H   H4        1.0  0.54713  0.55092  0.43995  1.0000
  H   H5        1.0  0.52931  0.30790  0.65968  1.0000
  H   H6        1.0  0.47069  0.69210  0.34032  1.0000
  H   H7        1.0  0.64232  0.38825  0.88746  1.0000
  H   H8        1.0  0.35768  0.61175  0.11254  1.0000
  H   H9        1.0  0.70678  0.45552  0.06994  1.0000
  H   H10       1.0  0.29323  0.54448  0.93006  1.0000
  H   H11       1.0  0.85830  0.55834  0.29643  1.0000
  H   H12       1.0  0.14171  0.44166  0.70356  1.0000
  H   H13       1.0  0.94230  0.78940  0.40187  1.0000
  H   H14       1.0  0.05771  0.21060  0.59813  1.0000
  H   H15       1.0  0.85939  0.90376  0.27432  1.0000
  H   H16       1.0  0.14061  0.09624  0.72569  1.0000
  H   H17       1.0  0.94740  0.12837  0.30809  1.0000
  H   H18       1.0  0.05260  0.87163  0.69191  1.0000
  H   H19       1.0  0.08445  0.84587  0.04069  1.0000
  H   H20       1.0  0.91554  0.15413  0.95931  1.0000
  H   H21       1.0  0.50330  0.11229  0.39635  1.0000
  H   H22       1.0  0.49670  0.88770  0.60365  1.0000
  C   C1        1.0  0.53471  0.60294  0.73596  1.0000
  C   C2        1.0  0.46529  0.39706  0.26404  1.0000
  C   C3        1.0  0.50644  0.48144  0.66000  1.0000
  C   C4        1.0  0.49356  0.51856  0.34001  1.0000
  C   C5        1.0  0.54737  0.40340  0.71513  1.0000
  C   C6        1.0  0.45263  0.59661  0.28487  1.0000
  C   C7        1.0  0.61214  0.44864  0.84325  1.0000
  C   C8        1.0  0.38786  0.55136  0.15676  1.0000
  C   C9        1.0  0.63693  0.57201  0.91401  1.0000
  C   C10       1.0  0.36307  0.42800  0.08599  1.0000
  C   C11       1.0  0.71151  0.62649  0.05067  1.0000
  C   C12       1.0  0.28849  0.37351  0.94933  1.0000
  C   C13       1.0  0.74488  0.55504  0.11696  1.0000
  C   C14       1.0  0.25513  0.44496  0.88304  1.0000
  C   C15       1.0  0.82908  0.61274  0.24410  1.0000
  C   C16       1.0  0.17093  0.38726  0.75590  1.0000
  C   C17       1.0  0.87463  0.74007  0.30298  1.0000
  C   C18       1.0  0.12538  0.25992  0.69703  1.0000
  C   C19       1.0  0.83102  0.80453  0.23194  1.0000
  C   C20       1.0  0.16898  0.19547  0.76807  1.0000
  C   C21       1.0  0.07309  0.08524  0.17597  1.0000
  C   C22       1.0  0.92689  0.91475  0.82403  1.0000
  C   C23       1.0  0.06125  0.16982  0.29666  1.0000
  C   C24       1.0  0.93876  0.83018  0.70335  1.0000
  C   C25       1.0  0.31505  0.81943  0.02287  1.0000
  C   C26       1.0  0.68494  0.18056  0.97713  1.0000
  C   C27       1.0  0.16532  0.79359  0.06227  1.0000
  C   C28       1.0  0.83467  0.20641  0.93773  1.0000
  C   C29       1.0  0.61430  0.09031  0.25634  1.0000
  C   C30       1.0  0.38570  0.90967  0.74365  1.0000
  C   C31       1.0  0.62773  0.12298  0.39272  1.0000
  C   C32       1.0  0.37227  0.87702  0.60728  1.0000
  N   N1        1.0  0.59918  0.64794  0.85990  1.0000
  N   N2        1.0  0.40082  0.35206  0.14010  1.0000
  N   N3        1.0  0.75220  0.75003  0.10888  1.0000
  N   N4        1.0  0.24780  0.24997  0.89112  1.0000
  Cl  Cl1       1.0  0.22987  0.18836  0.42622  1.0000
  Cl  Cl2       1.0  0.77013  0.81165  0.57379  1.0000
  Cl  Cl3       1.0  0.05784  0.31380  0.29308  1.0000
  Cl  Cl4       1.0  0.94216  0.68620  0.70692  1.0000
  Cl  Cl5       1.0  0.24265  0.84649  0.22686  1.0000
  Cl  Cl6       1.0  0.75734  0.15351  0.77314  1.0000
  Cl  Cl7       1.0  0.04725  0.63544  0.98868  1.0000
  Cl  Cl8       1.0  0.95275  0.36456  0.01132  1.0000
  Cl  Cl9       1.0  0.70714  0.02723  0.45679  1.0000
  Cl  Cl10      1.0  0.29286  0.97277  0.54320  1.0000
  Cl  Cl11      1.0  0.74862  0.28151  0.48511  1.0000
  Cl  Cl12      1.0  0.25138  0.71848  0.51488  1.0000
  O   O1        1.0  0.94995  0.98778  0.11132  1.0000
  O   O2        1.0  0.05007  0.01224  0.88869  1.0000
  O   O3        1.0  0.20209  0.11898  0.15423  1.0000
  O   O4        1.0  0.79794  0.88103  0.84577  1.0000
  O   O5        1.0  0.34892  0.91655  0.00364  1.0000
  O   O6        1.0  0.65106  0.08345  0.99635  1.0000
  O   O7        1.0  0.40069  0.74921  0.01494  1.0000
  O   O8        1.0  0.59930  0.25080  0.98506  1.0000
  O   O9        1.0  0.66542  0.00526  0.20602  1.0000
  O   O10       1.0  0.33456  0.99475  0.79397  1.0000
  O   O11       1.0  0.54786  0.15368  0.20937  1.0000
  O   O12       1.0  0.45213  0.84634  0.79062  1.0000
