data_image0
_chemical_formula_structural       CuH8C8Cl2O6
_chemical_formula_sum              "Cu1 H8 C8 Cl2 O6"
_cell_length_a       5.08196
_cell_length_b       7.70724
_cell_length_c       7.46861
_cell_angle_alpha    97.1554
_cell_angle_beta     99.6006
_cell_angle_gamma    98.8538

_space_group_name_H-M_alt    "P 1"
_space_group_IT_number       1

loop_
  _space_group_symop_operation_xyz
  'x, y, z'

loop_
  _atom_site_type_symbol
  _atom_site_label
  _atom_site_symmetry_multiplicity
  _atom_site_fract_x
  _atom_site_fract_y
  _atom_site_fract_z
  _atom_site_occupancy
  Cu  Cu1       1.0  1.00000  1.00000  1.00000  1.0000
  H   H1        1.0  0.74893  0.26914  0.33917  1.0000
  H   H2        1.0  0.25106  0.73087  0.66083  1.0000
  H   H3        1.0  0.68305  0.11977  0.49773  1.0000
  H   H4        1.0  0.31694  0.88024  0.50227  1.0000
  H   H5        1.0  0.02084  0.18116  0.46284  1.0000
  H   H6        1.0  0.97915  0.81885  0.53716  1.0000
  H   H7        1.0  0.58271  0.95144  0.21199  1.0000
  H   H8        1.0  0.41730  0.04856  0.78802  1.0000
  C   C1        1.0  0.74738  0.45853  0.86389  1.0000
  C   C2        1.0  0.25262  0.54146  0.13611  1.0000
  C   C3        1.0  0.86667  0.32150  0.92989  1.0000
  C   C4        1.0  0.13333  0.67848  0.07010  1.0000
  C   C5        1.0  0.13112  0.36384  0.06768  1.0000
  C   C6        1.0  0.86888  0.63617  0.93232  1.0000
  C   C7        1.0  0.80698  0.15175  0.39473  1.0000
  C   C8        1.0  0.19302  0.84826  0.60527  1.0000
  Cl  Cl1       1.0  0.44940  0.41147  0.70587  1.0000
  Cl  Cl2       1.0  0.55060  0.58853  0.29413  1.0000
  O   O1        1.0  0.76708  0.15545  0.88316  1.0000
  O   O2        1.0  0.23294  0.84456  0.11683  1.0000
  O   O3        1.0  0.23065  0.23040  0.11459  1.0000
  O   O4        1.0  0.76936  0.76959  0.88541  1.0000
  O   O5        1.0  0.77647  0.00279  0.25267  1.0000
  O   O6        1.0  0.22353  0.99721  0.74733  1.0000
