data_image0
_chemical_formula_structural       Ca2H32C18O24
_chemical_formula_sum              "Ca2 H32 C18 O24"
_cell_length_a       5.54138
_cell_length_b       11.9096
_cell_length_c       11.9098
_cell_angle_alpha    119.981
_cell_angle_beta     89.9963
_cell_angle_gamma    89.9974

_space_group_name_H-M_alt    "P 1"
_space_group_IT_number       1

loop_
  _space_group_symop_operation_xyz
  'x, y, z'

loop_
  _atom_site_type_symbol
  _atom_site_label
  _atom_site_symmetry_multiplicity
  _atom_site_fract_x
  _atom_site_fract_y
  _atom_site_fract_z
  _atom_site_occupancy
  Ca  Ca1       1.0  0.00001  0.16047  0.16045  1.0000
  Ca  Ca2       1.0  0.00002  0.66045  0.66047  1.0000
  H   H1        1.0  0.98467  0.40572  0.90572  1.0000
  H   H2        1.0  0.01530  0.90575  0.40575  1.0000
  H   H3        1.0  0.78809  0.52478  0.02478  1.0000
  H   H4        1.0  0.21188  0.02480  0.52479  1.0000
  H   H5        1.0  0.47998  0.35995  0.97895  1.0000
  H   H6        1.0  0.52000  0.97894  0.35994  1.0000
  H   H7        1.0  0.52000  0.85994  0.47893  1.0000
  H   H8        1.0  0.47998  0.47895  0.85996  1.0000
  H   H9        1.0  0.84100  0.88970  0.08561  1.0000
  H   H10       1.0  0.15907  0.08564  0.88969  1.0000
  H   H11       1.0  0.15907  0.38969  0.58564  1.0000
  H   H12       1.0  0.84102  0.58562  0.38970  1.0000
  H   H13       1.0  0.44759  0.16887  0.77881  1.0000
  H   H14       1.0  0.55241  0.77880  0.16886  1.0000
  H   H15       1.0  0.55240  0.66887  0.27880  1.0000
  H   H16       1.0  0.44758  0.27881  0.66888  1.0000
  H   H17       1.0  0.75815  0.40267  0.38589  1.0000
  H   H18       1.0  0.24172  0.38587  0.40260  1.0000
  H   H19       1.0  0.24172  0.90261  0.88587  1.0000
  H   H20       1.0  0.75815  0.88589  0.90267  1.0000
  H   H21       1.0  0.60110  0.97261  0.10803  1.0000
  H   H22       1.0  0.39896  0.10804  0.97259  1.0000
  H   H23       1.0  0.39896  0.47259  0.60804  1.0000
  H   H24       1.0  0.60110  0.60803  0.47261  1.0000
  H   H25       1.0  0.61155  0.28166  0.37116  1.0000
  H   H26       1.0  0.38903  0.37067  0.28164  1.0000
  H   H27       1.0  0.38901  0.78164  0.87067  1.0000
  H   H28       1.0  0.61154  0.87116  0.78166  1.0000
  H   H29       1.0  0.88951  0.93281  0.62649  1.0000
  H   H30       1.0  0.11051  0.62652  0.93285  1.0000
  H   H31       1.0  0.11051  0.43285  0.12651  1.0000
  H   H32       1.0  0.88951  0.12649  0.43281  1.0000
  C   C1        1.0  0.79513  0.43281  0.93281  1.0000
  C   C2        1.0  0.20484  0.93283  0.43283  1.0000
  C   C3        1.0  0.66017  0.32353  0.93787  1.0000
  C   C4        1.0  0.33981  0.93788  0.32354  1.0000
  C   C5        1.0  0.33981  0.82354  0.43788  1.0000
  C   C6        1.0  0.66016  0.43787  0.82353  1.0000
  C   C7        1.0  0.62219  0.21745  0.79413  1.0000
  C   C8        1.0  0.37780  0.79413  0.21744  1.0000
  C   C9        1.0  0.37780  0.71745  0.29412  1.0000
  C   C10       1.0  0.62219  0.29412  0.71745  1.0000
  C   C11       1.0  0.76542  0.27135  0.01993  1.0000
  C   C12       1.0  0.23459  0.01997  0.27138  1.0000
  C   C13       1.0  0.23458  0.77138  0.51996  1.0000
  C   C14       1.0  0.76542  0.51993  0.77135  1.0000
  C   C15       1.0  0.81745  0.11472  0.74843  1.0000
  C   C16       1.0  0.18255  0.74843  0.11472  1.0000
  C   C17       1.0  0.18253  0.61473  0.24843  1.0000
  C   C18       1.0  0.81745  0.24843  0.61472  1.0000
  O   O1        1.0  0.66849  0.17232  0.01662  1.0000
  O   O2        1.0  0.33156  0.01670  0.17238  1.0000
  O   O3        1.0  0.33157  0.67237  0.51669  1.0000
  O   O4        1.0  0.66849  0.51662  0.67233  1.0000
  O   O5        1.0  0.76676  0.95488  0.06741  1.0000
  O   O6        1.0  0.23330  0.06743  0.95486  1.0000
  O   O7        1.0  0.23331  0.45486  0.56742  1.0000
  O   O8        1.0  0.76676  0.56741  0.45489  1.0000
  O   O9        1.0  0.94663  0.32482  0.09386  1.0000
  O   O10       1.0  0.05333  0.09390  0.32484  1.0000
  O   O11       1.0  0.05333  0.82485  0.59389  1.0000
  O   O12       1.0  0.94663  0.59385  0.82483  1.0000
  O   O13       1.0  0.75088  0.30579  0.33831  1.0000
  O   O14       1.0  0.24855  0.33855  0.30573  1.0000
  O   O15       1.0  0.24854  0.80573  0.83855  1.0000
  O   O16       1.0  0.75088  0.83831  0.80579  1.0000
  O   O17       1.0  0.02475  0.13818  0.79391  1.0000
  O   O18       1.0  0.97526  0.79397  0.13821  1.0000
  O   O19       1.0  0.97525  0.63820  0.29397  1.0000
  O   O20       1.0  0.02475  0.29391  0.63818  1.0000
  O   O21       1.0  0.74688  0.99968  0.65541  1.0000
  O   O22       1.0  0.25309  0.65539  0.99971  1.0000
  O   O23       1.0  0.25308  0.49970  0.15538  1.0000
  O   O24       1.0  0.74689  0.15542  0.49968  1.0000
