data_image0
_chemical_formula_structural       Ag4H32C16S8N4O16
_chemical_formula_sum              "Ag4 H32 C16 S8 N4 O16"
_cell_length_a       6.51394
_cell_length_b       9.45674
_cell_length_c       13.8601
_cell_angle_alpha    103.229
_cell_angle_beta     89.9998
_cell_angle_gamma    90

_space_group_name_H-M_alt    "P 1"
_space_group_IT_number       1

loop_
  _space_group_symop_operation_xyz
  'x, y, z'

loop_
  _atom_site_type_symbol
  _atom_site_label
  _atom_site_symmetry_multiplicity
  _atom_site_fract_x
  _atom_site_fract_y
  _atom_site_fract_z
  _atom_site_occupancy
  Ag  Ag1       1.0  0.78936  0.36673  0.66522  1.0000
  Ag  Ag2       1.0  0.28935  0.13328  0.83478  1.0000
  Ag  Ag3       1.0  0.21064  0.63327  0.33478  1.0000
  Ag  Ag4       1.0  0.71064  0.86673  0.16522  1.0000
  H   H1        1.0  0.38316  0.48662  0.81030  1.0000
  H   H2        1.0  0.88315  0.01337  0.68970  1.0000
  H   H3        1.0  0.61686  0.51337  0.18970  1.0000
  H   H4        1.0  0.11685  0.98663  0.31030  1.0000
  H   H5        1.0  0.40571  0.17744  0.60207  1.0000
  H   H6        1.0  0.90570  0.32256  0.89793  1.0000
  H   H7        1.0  0.59430  0.82257  0.39793  1.0000
  H   H8        1.0  0.09430  0.67744  0.10207  1.0000
  H   H9        1.0  0.16047  0.16814  0.54544  1.0000
  H   H10       1.0  0.66047  0.33186  0.95456  1.0000
  H   H11       1.0  0.83953  0.83186  0.45457  1.0000
  H   H12       1.0  0.33952  0.66814  0.04543  1.0000
  H   H13       1.0  0.19325  0.42327  0.52601  1.0000
  H   H14       1.0  0.69324  0.07672  0.97399  1.0000
  H   H15       1.0  0.80675  0.57673  0.47399  1.0000
  H   H16       1.0  0.30675  0.92328  0.02601  1.0000
  H   H17       1.0  0.43338  0.33740  0.48514  1.0000
  H   H18       1.0  0.93337  0.16260  0.01486  1.0000
  H   H19       1.0  0.56662  0.66260  0.51486  1.0000
  H   H20       1.0  0.06661  0.83740  0.98514  1.0000
  H   H21       1.0  0.04206  0.60556  0.82955  1.0000
  H   H22       1.0  0.54205  0.89443  0.67045  1.0000
  H   H23       1.0  0.95796  0.39444  0.17045  1.0000
  H   H24       1.0  0.45796  0.10556  0.32955  1.0000
  H   H25       1.0  0.23695  0.71548  0.79152  1.0000
  H   H26       1.0  0.73696  0.78452  0.70848  1.0000
  H   H27       1.0  0.76305  0.28451  0.20848  1.0000
  H   H28       1.0  0.26305  0.21548  0.29152  1.0000
  H   H29       1.0  0.08694  0.66610  0.63715  1.0000
  H   H30       1.0  0.58694  0.83390  0.86285  1.0000
  H   H31       1.0  0.91307  0.33391  0.36286  1.0000
  H   H32       1.0  0.41306  0.16610  0.13714  1.0000
  C   C1        1.0  0.28859  0.48713  0.74479  1.0000
  C   C2        1.0  0.78859  0.01287  0.75521  1.0000
  C   C3        1.0  0.71141  0.51288  0.25521  1.0000
  C   C4        1.0  0.21141  0.98712  0.24479  1.0000
  C   C5        1.0  0.27075  0.24141  0.59124  1.0000
  C   C6        1.0  0.77075  0.25859  0.90876  1.0000
  C   C7        1.0  0.72925  0.75859  0.40876  1.0000
  C   C8        1.0  0.22925  0.74141  0.09124  1.0000
  C   C9        1.0  0.32835  0.36935  0.54837  1.0000
  C   C10       1.0  0.82834  0.13065  0.95163  1.0000
  C   C11       1.0  0.67165  0.63066  0.45163  1.0000
  C   C12       1.0  0.17165  0.86934  0.04837  1.0000
  C   C13       1.0  0.14184  0.61722  0.76773  1.0000
  C   C14       1.0  0.64185  0.88278  0.73227  1.0000
  C   C15       1.0  0.85816  0.38278  0.23228  1.0000
  C   C16       1.0  0.35816  0.11722  0.26773  1.0000
  S   S1        1.0  0.15067  0.31288  0.71081  1.0000
  S   S2        1.0  0.65066  0.18712  0.78918  1.0000
  S   S3        1.0  0.84934  0.68712  0.28919  1.0000
  S   S4        1.0  0.34934  0.81288  0.21081  1.0000
  S   S5        1.0  0.46589  0.49716  0.64451  1.0000
  S   S6        1.0  0.96589  0.00284  0.85549  1.0000
  S   S7        1.0  0.53410  0.50284  0.35549  1.0000
  S   S8        1.0  0.03410  0.99716  0.14451  1.0000
  N   N1        1.0  0.79975  0.14801  0.45986  1.0000
  N   N2        1.0  0.29975  0.35200  0.04014  1.0000
  N   N3        1.0  0.20026  0.85199  0.54013  1.0000
  N   N4        1.0  0.70025  0.64801  0.95988  1.0000
  O   O1        1.0  0.01088  0.62729  0.68783  1.0000
  O   O2        1.0  0.51089  0.87271  0.81217  1.0000
  O   O3        1.0  0.98911  0.37271  0.31218  1.0000
  O   O4        1.0  0.48910  0.12729  0.18782  1.0000
  O   O5        1.0  0.82933  0.28607  0.47187  1.0000
  O   O6        1.0  0.32933  0.21394  0.02813  1.0000
  O   O7        1.0  0.17067  0.71393  0.52813  1.0000
  O   O8        1.0  0.67068  0.78607  0.97187  1.0000
  O   O9        1.0  0.76110  0.09820  0.53518  1.0000
  O   O10       1.0  0.26108  0.40181  0.96482  1.0000
  O   O11       1.0  0.23892  0.90180  0.46482  1.0000
  O   O12       1.0  0.73892  0.59820  0.03518  1.0000
  O   O13       1.0  0.80991  0.06740  0.37440  1.0000
  O   O14       1.0  0.30993  0.43261  0.12560  1.0000
  O   O15       1.0  0.19009  0.93260  0.62560  1.0000
  O   O16       1.0  0.69007  0.56739  0.87440  1.0000
