data_image0
_chemical_formula_structural       Cd2H30C24N2O16
_chemical_formula_sum              "Cd2 H30 C24 N2 O16"
_cell_length_a       7.74315
_cell_length_b       9.7451
_cell_length_c       10.4149
_cell_angle_alpha    71.6255
_cell_angle_beta     92.8646
_cell_angle_gamma    78.3653

_space_group_name_H-M_alt    "P 1"
_space_group_IT_number       1

loop_
  _space_group_symop_operation_xyz
  'x, y, z'

loop_
  _atom_site_type_symbol
  _atom_site_label
  _atom_site_symmetry_multiplicity
  _atom_site_fract_x
  _atom_site_fract_y
  _atom_site_fract_z
  _atom_site_occupancy
  Cd  Cd1       1.0  0.05717  0.27651  0.41639  1.0000
  Cd  Cd2       1.0  0.99071  0.74435  0.57975  1.0000
  H   H1        1.0  0.23180  0.65174  0.04295  1.0000
  H   H2        1.0  0.28242  0.60185  0.21269  1.0000
  H   H3        1.0  0.02151  0.27449  0.92729  1.0000
  H   H4        1.0  0.31222  0.89143  0.25334  1.0000
  H   H5        1.0  0.93875  0.58234  0.34810  1.0000
  H   H6        1.0  0.75017  0.12582  0.43290  1.0000
  H   H7        1.0  0.83384  0.51866  0.46533  1.0000
  H   H8        1.0  0.33689  0.90654  0.83621  1.0000
  H   H9        1.0  0.85154  0.07598  0.57671  1.0000
  H   H10       1.0  0.53282  0.71282  0.01568  1.0000
  H   H11       1.0  0.54064  0.70374  0.18919  1.0000
  H   H12       1.0  0.37382  0.43444  0.04951  1.0000
  H   H13       1.0  0.67981  0.49274  0.05061  1.0000
  H   H14       1.0  0.68602  0.31212  0.16285  1.0000
  H   H15       1.0  0.69071  0.45709  0.22895  1.0000
  H   H16       1.0  0.61497  0.42409  0.89057  1.0000
  H   H17       1.0  0.41351  0.46728  0.79658  1.0000
  H   H18       1.0  0.22244  0.92545  0.60634  1.0000
  H   H19       1.0  0.12583  0.45037  0.74549  1.0000
  H   H20       1.0  0.21034  0.92567  0.45846  1.0000
  H   H21       1.0  0.99268  0.74023  0.12479  1.0000
  H   H22       1.0  0.12451  0.57541  0.82454  1.0000
  H   H23       1.0  0.61844  0.11172  0.16059  1.0000
  H   H24       1.0  0.69270  0.07037  0.76358  1.0000
  H   H25       1.0  0.41794  0.22641  0.80549  1.0000
  H   H26       1.0  0.40393  0.25761  0.96305  1.0000
  H   H27       1.0  0.73954  0.31008  0.72126  1.0000
  H   H28       1.0  0.43693  0.35270  0.58617  1.0000
  H   H29       1.0  0.58828  0.43802  0.48944  1.0000
  H   H30       1.0  0.41571  0.54780  0.54670  1.0000
  C   C1        1.0  0.13457  0.18306  0.71573  1.0000
  C   C2        1.0  0.17201  0.09754  0.86530  1.0000
  C   C3        1.0  0.10745  0.16317  0.96047  1.0000
  C   C4        1.0  0.15748  0.08895  0.09993  1.0000
  C   C5        1.0  0.09598  0.16425  0.20025  1.0000
  C   C6        1.0  0.27157  0.94750  0.14445  1.0000
  C   C7        1.0  0.33451  0.88070  0.05023  1.0000
  C   C8        1.0  0.28484  0.95602  0.91092  1.0000
  C   C9        1.0  0.45176  0.72750  0.09573  1.0000
  C   C10       1.0  0.43177  0.45705  0.13716  1.0000
  C   C11       1.0  0.63255  0.43035  0.14417  1.0000
  C   C12       1.0  0.37367  0.35182  0.26459  1.0000
  C   C13       1.0  0.95029  0.81641  0.84868  1.0000
  C   C14       1.0  0.85751  0.89921  0.93432  1.0000
  C   C15       1.0  0.89793  0.84529  0.07560  1.0000
  C   C16       1.0  0.81652  0.92368  0.15631  1.0000
  C   C17       1.0  0.87195  0.86543  0.30675  1.0000
  C   C18       1.0  0.68809  0.05601  0.09534  1.0000
  C   C19       1.0  0.64510  0.11095  0.95324  1.0000
  C   C20       1.0  0.72948  0.03204  0.87368  1.0000
  C   C21       1.0  0.49424  0.24346  0.88806  1.0000
  C   C22       1.0  0.63512  0.41188  0.70165  1.0000
  C   C23       1.0  0.51084  0.44010  0.57405  1.0000
  C   C24       1.0  0.73388  0.53513  0.70055  1.0000
  N   N1        1.0  0.33930  0.61488  0.12150  1.0000
  N   N2        1.0  0.53829  0.39141  0.82524  1.0000
  O   O1        1.0  0.17028  0.11157  0.63214  1.0000
  O   O2        1.0  0.07357  0.32238  0.67711  1.0000
  O   O3        1.0  0.02706  0.30160  0.15835  1.0000
  O   O4        1.0  0.11954  0.08449  0.32721  1.0000
  O   O5        1.0  0.43766  0.21679  0.29342  1.0000
  O   O6        1.0  0.26114  0.41722  0.32638  1.0000
  O   O7        1.0  0.87141  0.50353  0.37898  1.0000
  O   O8        1.0  0.80236  0.16557  0.49760  1.0000
  O   O9        1.0  0.90434  0.87318  0.72018  1.0000
  O   O10       1.0  0.06864  0.69721  0.90712  1.0000
  O   O11       1.0  0.99991  0.74760  0.35310  1.0000
  O   O12       1.0  0.79682  0.93087  0.38314  1.0000
  O   O13       1.0  0.75365  0.56311  0.80904  1.0000
  O   O14       1.0  0.79238  0.59456  0.58827  1.0000
  O   O15       1.0  0.17823  0.53347  0.75475  1.0000
  O   O16       1.0  0.23315  0.85573  0.55429  1.0000
