data_image0
_chemical_formula_structural       Zn8H48C48N4O30
_chemical_formula_sum              "Zn8 H48 C48 N4 O30"
_cell_length_a       11.1937
_cell_length_b       11.3548
_cell_length_c       11.6334
_cell_angle_alpha    71.3142
_cell_angle_beta     69.5312
_cell_angle_gamma    84.4111

_space_group_name_H-M_alt    "P 1"
_space_group_IT_number       1

loop_
  _space_group_symop_operation_xyz
  'x, y, z'

loop_
  _atom_site_type_symbol
  _atom_site_label
  _atom_site_symmetry_multiplicity
  _atom_site_fract_x
  _atom_site_fract_y
  _atom_site_fract_z
  _atom_site_occupancy
  Zn  Zn1       1.0  0.00636  0.16765  0.46531  1.0000
  Zn  Zn2       1.0  0.31760  0.28554  0.37819  1.0000
  Zn  Zn3       1.0  0.09482  0.25916  0.65823  1.0000
  Zn  Zn4       1.0  0.38846  0.37547  0.57419  1.0000
  Zn  Zn5       1.0  0.53273  0.66125  0.47246  1.0000
  Zn  Zn6       1.0  0.82775  0.78605  0.38303  1.0000
  Zn  Zn7       1.0  0.60530  0.76041  0.66319  1.0000
  Zn  Zn8       1.0  0.91643  0.86798  0.58084  1.0000
  H   H1        1.0  0.20292  0.08242  0.53838  1.0000
  H   H2        1.0  0.20472  0.47016  0.50449  1.0000
  H   H3        1.0  0.71606  0.57174  0.54492  1.0000
  H   H4        1.0  0.71909  0.95982  0.50906  1.0000
  H   H5        1.0  0.34223  0.48922  0.99077  1.0000
  H   H6        1.0  0.97172  0.32137  0.12327  1.0000
  H   H7        1.0  0.16031  0.50274  0.71704  1.0000
  H   H8        1.0  0.92215  0.26634  0.94674  1.0000
  H   H9        1.0  0.85306  0.41438  0.94127  1.0000
  H   H10       1.0  0.81232  0.26103  0.79383  1.0000
  H   H11       1.0  0.69212  0.42154  0.89446  1.0000
  H   H12       1.0  0.63765  0.40867  0.77307  1.0000
  H   H13       1.0  0.73739  0.53506  0.74050  1.0000
  H   H14       1.0  0.57071  0.56262  0.05516  1.0000
  H   H15       1.0  0.75347  0.53267  0.33078  1.0000
  H   H16       1.0  0.94620  0.71948  0.92578  1.0000
  H   H17       1.0  0.05823  0.59821  0.12255  1.0000
  H   H18       1.0  0.01196  0.75545  0.09967  1.0000
  H   H19       1.0  0.10043  0.52591  0.34456  1.0000
  H   H20       1.0  0.22318  0.67504  0.14115  1.0000
  H   H21       1.0  0.26627  0.69077  0.26817  1.0000
  H   H22       1.0  0.16536  0.80312  0.20218  1.0000
  H   H23       1.0  0.08061  0.08050  0.02873  1.0000
  H   H24       1.0  0.24231  0.04150  0.32297  1.0000
  H   H25       1.0  0.45565  0.22930  0.92469  1.0000
  H   H26       1.0  0.55295  0.09472  0.13007  1.0000
  H   H27       1.0  0.51433  0.25415  0.10217  1.0000
  H   H28       1.0  0.58875  0.02618  0.35200  1.0000
  H   H29       1.0  0.71735  0.17068  0.15280  1.0000
  H   H30       1.0  0.75477  0.19501  0.27943  1.0000
  H   H31       1.0  0.65569  0.30197  0.20641  1.0000
  H   H32       1.0  0.83538  0.96907  0.01683  1.0000
  H   H33       1.0  0.46185  0.81547  0.12513  1.0000
  H   H34       1.0  0.67458  0.99193  0.72430  1.0000
  H   H35       1.0  0.41869  0.76935  0.94387  1.0000
  H   H36       1.0  0.35837  0.92145  0.93246  1.0000
  H   H37       1.0  0.31886  0.76892  0.78177  1.0000
  H   H38       1.0  0.20492  0.93631  0.87586  1.0000
  H   H39       1.0  0.15205  0.92184  0.75468  1.0000
  H   H40       1.0  0.25711  0.04592  0.71963  1.0000
  H   H41       1.0  0.11660  0.73358  0.58493  1.0000
  H   H42       1.0  0.80399  0.30277  0.46279  1.0000
  H   H43       1.0  0.17637  0.86506  0.56065  1.0000
  H   H44       1.0  0.74386  0.17133  0.49070  1.0000
  H   H45       1.0  0.98360  0.47506  0.70650  1.0000
  H   H46       1.0  0.49828  0.97558  0.70050  1.0000
  H   H47       1.0  0.90110  0.56688  0.34949  1.0000
  H   H48       1.0  0.39311  0.06739  0.35216  1.0000
  C   C1        1.0  0.37845  0.56290  0.73722  1.0000
  C   C2        1.0  0.26037  0.50406  0.84380  1.0000
  C   C3        1.0  0.25950  0.46975  0.97069  1.0000
  C   C4        1.0  0.15452  0.40424  0.07074  1.0000
  C   C5        1.0  0.15700  0.35114  0.20590  1.0000
  C   C6        1.0  0.05084  0.37522  0.04323  1.0000
  C   C7        1.0  0.05052  0.40916  0.91660  1.0000
  C   C8        1.0  0.15544  0.47543  0.81721  1.0000
  C   C9        1.0  0.93840  0.36658  0.89554  1.0000
  C   C10       1.0  0.83446  0.36062  0.74237  1.0000
  C   C11       1.0  0.71946  0.43579  0.79070  1.0000
  C   C12       1.0  0.86693  0.37281  0.59949  1.0000
  C   C13       1.0  0.75784  0.69766  0.84265  1.0000
  C   C14       1.0  0.75998  0.64385  0.97733  1.0000
  C   C15       1.0  0.65388  0.57927  0.07615  1.0000
  C   C16       1.0  0.65381  0.54083  0.20261  1.0000
  C   C17       1.0  0.53868  0.47778  0.30882  1.0000
  C   C18       1.0  0.75933  0.56492  0.23017  1.0000
  C   C19       1.0  0.86577  0.62934  0.13204  1.0000
  C   C20       1.0  0.86546  0.66751  0.00524  1.0000
  C   C21       1.0  0.98036  0.65920  0.15737  1.0000
  C   C22       1.0  0.07355  0.62436  0.32944  1.0000
  C   C23       1.0  0.18871  0.70418  0.22827  1.0000
  C   C24       1.0  0.04705  0.65005  0.45722  1.0000
  C   C25       1.0  0.27569  0.21690  0.82637  1.0000
  C   C26       1.0  0.27052  0.15823  0.96301  1.0000
  C   C27       1.0  0.16021  0.09428  0.05669  1.0000
  C   C28       1.0  0.15131  0.05410  0.18613  1.0000
  C   C29       1.0  0.03291  0.99148  0.29037  1.0000
  C   C30       1.0  0.25377  0.07410  0.22094  1.0000
  C   C31       1.0  0.36468  0.13558  0.12824  1.0000
  C   C32       1.0  0.37184  0.17755  0.99910  1.0000
  C   C33       1.0  0.47720  0.15956  0.16029  1.0000
  C   C34       1.0  0.56274  0.12483  0.33697  1.0000
  C   C35       1.0  0.67934  0.20355  0.23751  1.0000
  C   C36       1.0  0.53164  0.14640  0.46786  1.0000
  C   C37       1.0  0.88662  0.04673  0.75541  1.0000
  C   C38       1.0  0.76573  0.98810  0.85997  1.0000
  C   C39       1.0  0.75598  0.95279  0.98982  1.0000
  C   C40       1.0  0.64570  0.89001  0.08500  1.0000
  C   C41       1.0  0.64018  0.83447  0.22275  1.0000
  C   C42       1.0  0.54517  0.86697  0.04954  1.0000
  C   C43       1.0  0.55270  0.90346  0.92025  1.0000
  C   C44       1.0  0.66351  0.96444  0.82616  1.0000
  C   C45       1.0  0.44166  0.86856  0.89164  1.0000
  C   C46       1.0  0.34662  0.86732  0.72997  1.0000
  C   C47       1.0  0.23430  0.94770  0.77249  1.0000
  C   C48       1.0  0.38603  0.87990  0.58563  1.0000
  N   N1        1.0  0.95436  0.38488  0.75986  1.0000
  N   N2        1.0  0.95591  0.64566  0.29408  1.0000
  N   N3        1.0  0.44740  0.14707  0.29748  1.0000
  N   N4        1.0  0.46415  0.88655  0.75466  1.0000
  O   O1        1.0  0.06176  0.28275  0.28504  1.0000
  O   O2        1.0  0.25313  0.37649  0.22892  1.0000
  O   O3        1.0  0.46046  0.60711  0.76350  1.0000
  O   O4        1.0  0.38835  0.56383  0.62140  1.0000
  O   O5        1.0  0.97351  0.32708  0.54648  1.0000
  O   O6        1.0  0.78984  0.42161  0.54078  1.0000
  O   O7        1.0  0.16825  0.16528  0.51052  1.0000
  O   O8        1.0  0.82367  0.22200  0.44546  1.0000
  O   O9        1.0  0.23738  0.38426  0.52486  1.0000
  O   O10       1.0  0.46096  0.42876  0.28157  1.0000
  O   O11       1.0  0.52788  0.47773  0.42459  1.0000
  O   O12       1.0  0.65409  0.68839  0.82416  1.0000
  O   O13       1.0  0.86115  0.74857  0.75897  1.0000
  O   O14       1.0  0.12517  0.61040  0.51723  1.0000
  O   O15       1.0  0.94922  0.71346  0.49595  1.0000
  O   O16       1.0  0.68544  0.65733  0.51830  1.0000
  O   O17       1.0  0.75486  0.87657  0.53292  1.0000
  O   O18       1.0  0.37869  0.27808  0.74839  1.0000
  O   O19       1.0  0.17871  0.20413  0.79928  1.0000
  O   O20       1.0  0.96434  0.93055  0.26276  1.0000
  O   O21       1.0  0.01147  0.00156  0.40385  1.0000
  O   O22       1.0  0.43470  0.21139  0.50515  1.0000
  O   O23       1.0  0.60385  0.09744  0.53308  1.0000
  O   O24       1.0  0.09712  0.81387  0.60405  1.0000
  O   O25       1.0  0.90798  0.03495  0.64257  1.0000
  O   O26       1.0  0.95831  0.10594  0.78141  1.0000
  O   O27       1.0  0.73064  0.85985  0.25302  1.0000
  O   O28       1.0  0.54358  0.76244  0.29803  1.0000
  O   O29       1.0  0.49071  0.82860  0.53807  1.0000
  O   O30       1.0  0.31680  0.93816  0.52070  1.0000
