data_image0
_chemical_formula_structural       Zn8P4H24C32N4O32
_chemical_formula_sum              "Zn8 P4 H24 C32 N4 O32"
_cell_length_a       6.62809
_cell_length_b       9.65403
_cell_length_c       16.9294
_cell_angle_alpha    90.7194
_cell_angle_beta     90.0004
_cell_angle_gamma    89.9999

_space_group_name_H-M_alt    "P 1"
_space_group_IT_number       1

loop_
  _space_group_symop_operation_xyz
  'x, y, z'

loop_
  _atom_site_type_symbol
  _atom_site_label
  _atom_site_symmetry_multiplicity
  _atom_site_fract_x
  _atom_site_fract_y
  _atom_site_fract_z
  _atom_site_occupancy
  Zn  Zn1       1.0  0.65808  0.57739  0.44079  1.0000
  Zn  Zn2       1.0  0.15807  0.92262  0.55922  1.0000
  Zn  Zn3       1.0  0.34193  0.42263  0.55921  1.0000
  Zn  Zn4       1.0  0.84192  0.07738  0.44079  1.0000
  Zn  Zn5       1.0  0.94749  0.61572  0.62479  1.0000
  Zn  Zn6       1.0  0.44747  0.88428  0.37521  1.0000
  Zn  Zn7       1.0  0.05252  0.38427  0.37521  1.0000
  Zn  Zn8       1.0  0.55252  0.11573  0.62479  1.0000
  P   P1        1.0  0.66232  0.84709  0.54928  1.0000
  P   P2        1.0  0.16232  0.65291  0.45072  1.0000
  P   P3        1.0  0.33769  0.15291  0.45073  1.0000
  P   P4        1.0  0.83769  0.34709  0.54928  1.0000
  H   H1        1.0  0.88491  0.46761  0.75582  1.0000
  H   H2        1.0  0.38489  0.03239  0.24418  1.0000
  H   H3        1.0  0.11511  0.53239  0.24417  1.0000
  H   H4        1.0  0.61510  0.96761  0.75582  1.0000
  H   H5        1.0  0.67264  0.46395  0.69977  1.0000
  H   H6        1.0  0.17263  0.03605  0.30023  1.0000
  H   H7        1.0  0.32737  0.53604  0.30023  1.0000
  H   H8        1.0  0.82736  0.96396  0.69977  1.0000
  H   H9        1.0  0.24523  0.80008  0.80590  1.0000
  H   H10       1.0  0.74523  0.69993  0.19411  1.0000
  H   H11       1.0  0.75477  0.19992  0.19411  1.0000
  H   H12       1.0  0.25476  0.30008  0.80589  1.0000
  H   H13       1.0  0.45397  0.91782  0.91078  1.0000
  H   H14       1.0  0.95397  0.58219  0.08923  1.0000
  H   H15       1.0  0.54604  0.08218  0.08923  1.0000
  H   H16       1.0  0.04601  0.41782  0.91077  1.0000
  H   H17       1.0  0.96089  0.66558  0.84170  1.0000
  H   H18       1.0  0.46088  0.83443  0.15829  1.0000
  H   H19       1.0  0.03911  0.33443  0.15830  1.0000
  H   H20       1.0  0.53911  0.16557  0.84171  1.0000
  H   H21       1.0  0.11418  0.92265  0.97361  1.0000
  H   H22       1.0  0.61416  0.57735  0.02639  1.0000
  H   H23       1.0  0.88584  0.07734  0.02639  1.0000
  H   H24       1.0  0.38583  0.42264  0.97361  1.0000
  C   C1        1.0  0.34604  0.60330  0.70540  1.0000
  C   C2        1.0  0.84602  0.89669  0.29460  1.0000
  C   C3        1.0  0.65397  0.39669  0.29461  1.0000
  C   C4        1.0  0.15396  0.10331  0.70539  1.0000
  C   C5        1.0  0.48244  0.66501  0.76680  1.0000
  C   C6        1.0  0.98242  0.83500  0.23320  1.0000
  C   C7        1.0  0.51757  0.33498  0.23321  1.0000
  C   C8        1.0  0.01756  0.16501  0.76680  1.0000
  C   C9        1.0  0.68641  0.62500  0.77687  1.0000
  C   C10       1.0  0.18641  0.87500  0.22313  1.0000
  C   C11       1.0  0.31359  0.37500  0.22313  1.0000
  C   C12       1.0  0.81359  0.12500  0.77687  1.0000
  C   C13       1.0  0.40148  0.77027  0.81541  1.0000
  C   C14       1.0  0.90146  0.72974  0.18459  1.0000
  C   C15       1.0  0.59853  0.22972  0.18459  1.0000
  C   C16       1.0  0.09852  0.27027  0.81540  1.0000
  C   C17       1.0  0.80269  0.69325  0.83476  1.0000
  C   C18       1.0  0.30267  0.80676  0.16524  1.0000
  C   C19       1.0  0.19733  0.30676  0.16524  1.0000
  C   C20       1.0  0.69732  0.19324  0.83476  1.0000
  C   C21       1.0  0.51598  0.83606  0.87312  1.0000
  C   C22       1.0  0.01596  0.66393  0.12687  1.0000
  C   C23       1.0  0.48404  0.16393  0.12688  1.0000
  C   C24       1.0  0.98402  0.33607  0.87312  1.0000
  C   C25       1.0  0.71910  0.79791  0.88203  1.0000
  C   C26       1.0  0.21908  0.70209  0.11797  1.0000
  C   C27       1.0  0.28092  0.20209  0.11797  1.0000
  C   C28       1.0  0.78090  0.29792  0.88203  1.0000
  C   C29       1.0  0.84327  0.87898  0.93890  1.0000
  C   C30       1.0  0.34323  0.62102  0.06109  1.0000
  C   C31       1.0  0.15676  0.12101  0.06110  1.0000
  C   C32       1.0  0.65674  0.37897  0.93890  1.0000
  N   N1        1.0  0.77882  0.52527  0.72734  1.0000
  N   N2        1.0  0.27883  0.97473  0.27267  1.0000
  N   N3        1.0  0.22118  0.47473  0.27266  1.0000
  N   N4        1.0  0.72117  0.02527  0.72733  1.0000
  O   O1        1.0  0.61011  0.77445  0.46925  1.0000
  O   O2        1.0  0.11007  0.72556  0.53074  1.0000
  O   O3        1.0  0.38988  0.22559  0.53074  1.0000
  O   O4        1.0  0.88989  0.27443  0.46925  1.0000
  O   O5        1.0  0.47233  0.92926  0.57908  1.0000
  O   O6        1.0  0.97235  0.57074  0.42091  1.0000
  O   O7        1.0  0.52767  0.07074  0.42094  1.0000
  O   O8        1.0  0.02768  0.42926  0.57907  1.0000
  O   O9        1.0  0.72621  0.74660  0.61351  1.0000
  O   O10       1.0  0.22621  0.75337  0.38648  1.0000
  O   O11       1.0  0.27379  0.25338  0.38649  1.0000
  O   O12       1.0  0.77378  0.24661  0.61351  1.0000
  O   O13       1.0  0.83109  0.95685  0.53546  1.0000
  O   O14       1.0  0.33114  0.54317  0.46454  1.0000
  O   O15       1.0  0.16890  0.04316  0.46454  1.0000
  O   O16       1.0  0.66890  0.45685  0.53546  1.0000
  O   O17       1.0  0.40576  0.49502  0.66768  1.0000
  O   O18       1.0  0.90574  0.00497  0.33232  1.0000
  O   O19       1.0  0.59426  0.50498  0.33231  1.0000
  O   O20       1.0  0.09425  0.99501  0.66770  1.0000
  O   O21       1.0  0.17708  0.66335  0.69651  1.0000
  O   O22       1.0  0.67707  0.83664  0.30349  1.0000
  O   O23       1.0  0.82295  0.33666  0.30348  1.0000
  O   O24       1.0  0.32293  0.16334  0.69651  1.0000
  O   O25       1.0  0.76490  0.97078  0.98162  1.0000
  O   O26       1.0  0.26490  0.52923  0.01838  1.0000
  O   O27       1.0  0.23510  0.02924  0.01838  1.0000
  O   O28       1.0  0.73509  0.47077  0.98162  1.0000
  O   O29       1.0  0.03781  0.85061  0.93843  1.0000
  O   O30       1.0  0.53779  0.64940  0.06157  1.0000
  O   O31       1.0  0.96220  0.14939  0.06158  1.0000
  O   O32       1.0  0.46220  0.35059  0.93843  1.0000
