data_image0
_chemical_formula_structural       Zn8P4H24C32N4O32
_chemical_formula_sum              "Zn8 P4 H24 C32 N4 O32"
_cell_length_a       6.64602
_cell_length_b       9.66095
_cell_length_c       16.6093
_cell_angle_alpha    89.5898
_cell_angle_beta     90.0001
_cell_angle_gamma    90

_space_group_name_H-M_alt    "P 1"
_space_group_IT_number       1

loop_
  _space_group_symop_operation_xyz
  'x, y, z'

loop_
  _atom_site_type_symbol
  _atom_site_label
  _atom_site_symmetry_multiplicity
  _atom_site_fract_x
  _atom_site_fract_y
  _atom_site_fract_z
  _atom_site_occupancy
  Zn  Zn1       1.0  0.65847  0.57966  0.43965  1.0000
  Zn  Zn2       1.0  0.15847  0.92035  0.56035  1.0000
  Zn  Zn3       1.0  0.34154  0.42035  0.56034  1.0000
  Zn  Zn4       1.0  0.84153  0.07965  0.43965  1.0000
  Zn  Zn5       1.0  0.94823  0.61127  0.62671  1.0000
  Zn  Zn6       1.0  0.44822  0.88874  0.37328  1.0000
  Zn  Zn7       1.0  0.05177  0.38874  0.37329  1.0000
  Zn  Zn8       1.0  0.55177  0.11127  0.62672  1.0000
  P   P1        1.0  0.66269  0.84527  0.54989  1.0000
  P   P2        1.0  0.16268  0.65473  0.45011  1.0000
  P   P3        1.0  0.33732  0.15473  0.45011  1.0000
  P   P4        1.0  0.83731  0.34528  0.54989  1.0000
  H   H1        1.0  0.96412  0.66266  0.84401  1.0000
  H   H2        1.0  0.46411  0.83733  0.15599  1.0000
  H   H3        1.0  0.03589  0.33733  0.15600  1.0000
  H   H4        1.0  0.53589  0.16266  0.84401  1.0000
  H   H5        1.0  0.45249  0.90445  0.91662  1.0000
  H   H6        1.0  0.95247  0.59554  0.08339  1.0000
  H   H7        1.0  0.54752  0.09555  0.08339  1.0000
  H   H8        1.0  0.04751  0.40445  0.91661  1.0000
  H   H9        1.0  0.24419  0.78623  0.81284  1.0000
  H   H10       1.0  0.74418  0.71376  0.18716  1.0000
  H   H11       1.0  0.75581  0.21377  0.18716  1.0000
  H   H12       1.0  0.25581  0.28623  0.81284  1.0000
  H   H13       1.0  0.88602  0.46065  0.76024  1.0000
  H   H14       1.0  0.38601  0.03935  0.23976  1.0000
  H   H15       1.0  0.11398  0.53935  0.23976  1.0000
  H   H16       1.0  0.61399  0.96065  0.76024  1.0000
  H   H17       1.0  0.67361  0.45721  0.70364  1.0000
  H   H18       1.0  0.17361  0.04280  0.29636  1.0000
  H   H19       1.0  0.32639  0.54280  0.29636  1.0000
  H   H20       1.0  0.82639  0.95721  0.70364  1.0000
  H   H21       1.0  0.84538  0.02031  0.02085  1.0000
  H   H22       1.0  0.34536  0.47968  0.97915  1.0000
  H   H23       1.0  0.15464  0.97969  0.97915  1.0000
  H   H24       1.0  0.65462  0.52031  0.02085  1.0000
  C   C1        1.0  0.34647  0.59414  0.70947  1.0000
  C   C2        1.0  0.84645  0.90587  0.29053  1.0000
  C   C3        1.0  0.65355  0.40586  0.29053  1.0000
  C   C4        1.0  0.15354  0.09414  0.70947  1.0000
  C   C5        1.0  0.48262  0.65481  0.77169  1.0000
  C   C6        1.0  0.98261  0.84519  0.22831  1.0000
  C   C7        1.0  0.51739  0.34519  0.22831  1.0000
  C   C8        1.0  0.01739  0.15481  0.77169  1.0000
  C   C9        1.0  0.68749  0.61710  0.78108  1.0000
  C   C10       1.0  0.18749  0.88290  0.21892  1.0000
  C   C11       1.0  0.31250  0.38290  0.21892  1.0000
  C   C12       1.0  0.81251  0.11710  0.78108  1.0000
  C   C13       1.0  0.80456  0.68681  0.83833  1.0000
  C   C14       1.0  0.30455  0.81319  0.16167  1.0000
  C   C15       1.0  0.19544  0.31319  0.16167  1.0000
  C   C16       1.0  0.69544  0.18681  0.83833  1.0000
  C   C17       1.0  0.72032  0.78965  0.88642  1.0000
  C   C18       1.0  0.22031  0.71034  0.11358  1.0000
  C   C19       1.0  0.27968  0.21034  0.11358  1.0000
  C   C20       1.0  0.77968  0.28965  0.88642  1.0000
  C   C21       1.0  0.51589  0.82402  0.87889  1.0000
  C   C22       1.0  0.01587  0.67597  0.12111  1.0000
  C   C23       1.0  0.48412  0.17597  0.12111  1.0000
  C   C24       1.0  0.98411  0.32403  0.87889  1.0000
  C   C25       1.0  0.40103  0.75772  0.82124  1.0000
  C   C26       1.0  0.90102  0.74227  0.17876  1.0000
  C   C27       1.0  0.59897  0.24228  0.17876  1.0000
  C   C28       1.0  0.09897  0.25773  0.82124  1.0000
  C   C29       1.0  0.84960  0.87271  0.94047  1.0000
  C   C30       1.0  0.34959  0.62728  0.05954  1.0000
  C   C31       1.0  0.15040  0.12728  0.05954  1.0000
  C   C32       1.0  0.65041  0.37271  0.94047  1.0000
  N   N1        1.0  0.77959  0.51843  0.73103  1.0000
  N   N2        1.0  0.27958  0.98157  0.26897  1.0000
  N   N3        1.0  0.22042  0.48157  0.26897  1.0000
  N   N4        1.0  0.72042  0.01843  0.73103  1.0000
  O   O1        1.0  0.61052  0.77556  0.46821  1.0000
  O   O2        1.0  0.11053  0.72445  0.53179  1.0000
  O   O3        1.0  0.38948  0.22445  0.53179  1.0000
  O   O4        1.0  0.88947  0.27556  0.46821  1.0000
  O   O5        1.0  0.47299  0.92607  0.58029  1.0000
  O   O6        1.0  0.97299  0.57393  0.41971  1.0000
  O   O7        1.0  0.52701  0.07393  0.41971  1.0000
  O   O8        1.0  0.02701  0.42607  0.58029  1.0000
  O   O9        1.0  0.72679  0.74234  0.61512  1.0000
  O   O10       1.0  0.22678  0.75767  0.38488  1.0000
  O   O11       1.0  0.27322  0.25767  0.38488  1.0000
  O   O12       1.0  0.77321  0.24234  0.61512  1.0000
  O   O13       1.0  0.83110  0.95532  0.53567  1.0000
  O   O14       1.0  0.33109  0.54468  0.46432  1.0000
  O   O15       1.0  0.16891  0.04468  0.46432  1.0000
  O   O16       1.0  0.66891  0.45532  0.53567  1.0000
  O   O17       1.0  0.40667  0.48742  0.67102  1.0000
  O   O18       1.0  0.90667  0.01259  0.32898  1.0000
  O   O19       1.0  0.59333  0.51259  0.32898  1.0000
  O   O20       1.0  0.09332  0.98742  0.67101  1.0000
  O   O21       1.0  0.17759  0.65389  0.70040  1.0000
  O   O22       1.0  0.67758  0.84612  0.29960  1.0000
  O   O23       1.0  0.82242  0.34612  0.29960  1.0000
  O   O24       1.0  0.32241  0.15388  0.70040  1.0000
  O   O25       1.0  0.75061  0.95093  0.99165  1.0000
  O   O26       1.0  0.25060  0.54907  0.00835  1.0000
  O   O27       1.0  0.24939  0.04907  0.00835  1.0000
  O   O28       1.0  0.74939  0.45093  0.99165  1.0000
  O   O29       1.0  0.03720  0.87141  0.93452  1.0000
  O   O30       1.0  0.53718  0.62858  0.06548  1.0000
  O   O31       1.0  0.96281  0.12857  0.06549  1.0000
  O   O32       1.0  0.46280  0.37141  0.93452  1.0000
