data_image0
_chemical_formula_structural       Cu2H16C24S4N8
_chemical_formula_sum              "Cu2 H16 C24 S4 N8"
_cell_length_a       7.94595
_cell_length_b       8.64682
_cell_length_c       10.3546
_cell_angle_alpha    88.2285
_cell_angle_beta     86.1629
_cell_angle_gamma    62.6611

_space_group_name_H-M_alt    "P 1"
_space_group_IT_number       1

loop_
  _space_group_symop_operation_xyz
  'x, y, z'

loop_
  _atom_site_type_symbol
  _atom_site_label
  _atom_site_symmetry_multiplicity
  _atom_site_fract_x
  _atom_site_fract_y
  _atom_site_fract_z
  _atom_site_occupancy
  Cu  Cu1       1.0  0.10139  0.79690  0.24985  1.0000
  Cu  Cu2       1.0  0.89861  0.20310  0.75016  1.0000
  H   H1        1.0  0.29835  0.15812  0.29857  1.0000
  H   H2        1.0  0.54301  0.15812  0.20141  1.0000
  H   H3        1.0  0.70166  0.84188  0.70143  1.0000
  H   H4        1.0  0.45699  0.84188  0.79858  1.0000
  H   H5        1.0  0.99116  0.18720  0.39314  1.0000
  H   H6        1.0  0.82133  0.18717  0.10715  1.0000
  H   H7        1.0  0.00884  0.81280  0.60685  1.0000
  H   H8        1.0  0.17867  0.81283  0.89284  1.0000
  H   H9        1.0  0.71793  0.48581  0.42954  1.0000
  H   H10       1.0  0.79605  0.48587  0.07088  1.0000
  H   H11       1.0  0.28207  0.51419  0.57045  1.0000
  H   H12       1.0  0.20394  0.51413  0.92911  1.0000
  H   H13       1.0  0.76840  0.74588  0.36822  1.0000
  H   H14       1.0  0.48562  0.74588  0.13208  1.0000
  H   H15       1.0  0.23160  0.25412  0.63178  1.0000
  H   H16       1.0  0.51438  0.25412  0.86792  1.0000
  C   C1        1.0  0.19522  0.43687  0.27980  1.0000
  C   C2        1.0  0.36757  0.43685  0.22022  1.0000
  C   C3        1.0  0.80479  0.56314  0.72021  1.0000
  C   C4        1.0  0.63242  0.56315  0.77978  1.0000
  C   C5        1.0  0.17875  0.28669  0.31357  1.0000
  C   C6        1.0  0.53414  0.28667  0.18646  1.0000
  C   C7        1.0  0.82126  0.71331  0.68643  1.0000
  C   C8        1.0  0.46586  0.71333  0.81353  1.0000
  C   C9        1.0  0.00641  0.30309  0.36758  1.0000
  C   C10       1.0  0.69018  0.30312  0.13266  1.0000
  C   C11       1.0  0.99359  0.69691  0.63242  1.0000
  C   C12       1.0  0.30981  0.69688  0.86733  1.0000
  C   C13       1.0  0.85469  0.46864  0.38727  1.0000
  C   C14       1.0  0.67643  0.46867  0.11305  1.0000
  C   C15       1.0  0.14531  0.53136  0.61273  1.0000
  C   C16       1.0  0.32357  0.53133  0.88695  1.0000
  C   C17       1.0  0.88097  0.61340  0.35352  1.0000
  C   C18       1.0  0.50540  0.61343  0.14669  1.0000
  C   C19       1.0  0.11903  0.38661  0.64647  1.0000
  C   C20       1.0  0.49459  0.38657  0.85331  1.0000
  C   C21       1.0  0.83372  0.94143  0.93222  1.0000
  C   C22       1.0  0.22511  0.94151  0.56813  1.0000
  C   C23       1.0  0.16629  0.05856  0.06779  1.0000
  C   C24       1.0  0.77489  0.05849  0.43187  1.0000
  S   S1        1.0  0.81855  0.80911  0.04023  1.0000
  S   S2        1.0  0.37306  0.80936  0.46029  1.0000
  S   S3        1.0  0.18147  0.19087  0.95978  1.0000
  S   S4        1.0  0.62694  0.19065  0.53972  1.0000
  N   N1        1.0  0.04741  0.59712  0.30123  1.0000
  N   N2        1.0  0.35520  0.59710  0.19881  1.0000
  N   N3        1.0  0.95259  0.40288  0.69877  1.0000
  N   N4        1.0  0.64480  0.40290  0.80119  1.0000
  N   N5        1.0  0.84580  0.03767  0.85212  1.0000
  N   N6        1.0  0.11638  0.03774  0.64803  1.0000
  N   N7        1.0  0.15421  0.96232  0.14790  1.0000
  N   N8        1.0  0.88362  0.96227  0.35198  1.0000
