data_image0
_chemical_formula_structural       Zn2H24C28S2O16
_chemical_formula_sum              "Zn2 H24 C28 S2 O16"
_cell_length_a       4.98072
_cell_length_b       12.0868
_cell_length_c       13.2292
_cell_angle_alpha    115.654
_cell_angle_beta     90.0005
_cell_angle_gamma    89.9998

_space_group_name_H-M_alt    "P 1"
_space_group_IT_number       1

loop_
  _space_group_symop_operation_xyz
  'x, y, z'

loop_
  _atom_site_type_symbol
  _atom_site_label
  _atom_site_symmetry_multiplicity
  _atom_site_fract_x
  _atom_site_fract_y
  _atom_site_fract_z
  _atom_site_occupancy
  Zn  Zn1       1.0  0.04755  0.25000  0.50000  1.0000
  Zn  Zn2       1.0  0.95245  0.75000  0.50000  1.0000
  H   H1        1.0  0.76639  0.39306  0.42339  1.0000
  H   H2        1.0  0.76639  0.10694  0.57661  1.0000
  H   H3        1.0  0.23360  0.60694  0.57661  1.0000
  H   H4        1.0  0.23361  0.89307  0.42339  1.0000
  H   H5        1.0  0.60740  0.26471  0.39993  1.0000
  H   H6        1.0  0.60741  0.23529  0.60007  1.0000
  H   H7        1.0  0.39260  0.73529  0.60007  1.0000
  H   H8        1.0  0.39259  0.76471  0.39993  1.0000
  H   H9        1.0  0.97125  0.75799  0.79452  1.0000
  H   H10       1.0  0.97126  0.74201  0.20548  1.0000
  H   H11       1.0  0.02874  0.24201  0.20548  1.0000
  H   H12       1.0  0.02875  0.25799  0.79452  1.0000
  H   H13       1.0  0.66190  0.62526  0.64360  1.0000
  H   H14       1.0  0.66190  0.87474  0.35640  1.0000
  H   H15       1.0  0.33809  0.37474  0.35640  1.0000
  H   H16       1.0  0.33810  0.12526  0.64360  1.0000
  H   H17       1.0  0.51903  0.40313  0.82015  1.0000
  H   H18       1.0  0.51903  0.09687  0.17985  1.0000
  H   H19       1.0  0.48097  0.59687  0.17985  1.0000
  H   H20       1.0  0.48097  0.90314  0.82015  1.0000
  H   H21       1.0  0.82689  0.53384  0.97024  1.0000
  H   H22       1.0  0.82689  0.96616  0.02976  1.0000
  H   H23       1.0  0.17310  0.46616  0.02976  1.0000
  H   H24       1.0  0.17312  0.03384  0.97024  1.0000
  C   C1        1.0  0.91415  0.65423  0.89132  1.0000
  C   C2        1.0  0.91416  0.84577  0.10868  1.0000
  C   C3        1.0  0.08584  0.34577  0.10868  1.0000
  C   C4        1.0  0.08585  0.15422  0.89132  1.0000
  C   C5        1.0  0.86820  0.68162  0.80049  1.0000
  C   C6        1.0  0.86820  0.81838  0.19951  1.0000
  C   C7        1.0  0.13179  0.31838  0.19951  1.0000
  C   C8        1.0  0.13179  0.18162  0.80049  1.0000
  C   C9        1.0  0.69240  0.60791  0.71671  1.0000
  C   C10       1.0  0.69240  0.89209  0.28329  1.0000
  C   C11       1.0  0.30759  0.39209  0.28329  1.0000
  C   C12       1.0  0.30761  0.10791  0.71671  1.0000
  C   C13       1.0  0.56294  0.50878  0.72404  1.0000
  C   C14       1.0  0.56294  0.99122  0.27596  1.0000
  C   C15       1.0  0.43706  0.49122  0.27597  1.0000
  C   C16       1.0  0.43706  0.00878  0.72404  1.0000
  C   C17       1.0  0.61637  0.48096  0.81464  1.0000
  C   C18       1.0  0.61637  0.01904  0.18536  1.0000
  C   C19       1.0  0.38362  0.51904  0.18536  1.0000
  C   C20       1.0  0.38364  0.98096  0.81464  1.0000
  C   C21       1.0  0.79092  0.55437  0.89908  1.0000
  C   C22       1.0  0.79091  0.94563  0.10091  1.0000
  C   C23       1.0  0.20908  0.44563  0.10092  1.0000
  C   C24       1.0  0.20909  0.05437  0.89908  1.0000
  C   C25       1.0  0.36691  0.43351  0.63618  1.0000
  C   C26       1.0  0.36691  0.06649  0.36382  1.0000
  C   C27       1.0  0.63308  0.56649  0.36382  1.0000
  C   C28       1.0  0.63309  0.93351  0.63618  1.0000
  S   S1        1.0  0.13454  0.74999  0.00000  1.0000
  S   S2        1.0  0.86546  0.25000  1.00000  1.0000
  O   O1        1.0  0.27962  0.82601  0.95843  1.0000
  O   O2        1.0  0.27960  0.67399  0.04157  1.0000
  O   O3        1.0  0.72040  0.17398  0.04157  1.0000
  O   O4        1.0  0.72039  0.32600  0.95843  1.0000
  O   O5        1.0  0.78044  0.30949  0.42302  1.0000
  O   O6        1.0  0.78044  0.19051  0.57698  1.0000
  O   O7        1.0  0.21956  0.69051  0.57697  1.0000
  O   O8        1.0  0.21956  0.80949  0.42302  1.0000
  O   O9        1.0  0.24925  0.47299  0.57393  1.0000
  O   O10       1.0  0.24925  0.02701  0.42607  1.0000
  O   O11       1.0  0.75075  0.52701  0.42607  1.0000
  O   O12       1.0  0.75075  0.97299  0.57394  1.0000
  O   O13       1.0  0.31891  0.32337  0.62588  1.0000
  O   O14       1.0  0.31891  0.17663  0.37412  1.0000
  O   O15       1.0  0.68108  0.67663  0.37412  1.0000
  O   O16       1.0  0.68109  0.82337  0.62588  1.0000
