data_image0
_chemical_formula_structural       Cd4H16C24S8N16O8
_chemical_formula_sum              "Cd4 H16 C24 S8 N16 O8"
_cell_length_a       6.77621
_cell_length_b       10.5634
_cell_length_c       14.3075
_cell_angle_alpha    89.9997
_cell_angle_beta     90.0001
_cell_angle_gamma    98.9628

_space_group_name_H-M_alt    "P 1"
_space_group_IT_number       1

loop_
  _space_group_symop_operation_xyz
  'x, y, z'

loop_
  _atom_site_type_symbol
  _atom_site_label
  _atom_site_symmetry_multiplicity
  _atom_site_fract_x
  _atom_site_fract_y
  _atom_site_fract_z
  _atom_site_occupancy
  Cd  Cd1       1.0  0.93285  0.24523  0.05905  1.0000
  Cd  Cd2       1.0  0.56716  0.25477  0.55905  1.0000
  Cd  Cd3       1.0  0.06714  0.75477  0.94095  1.0000
  Cd  Cd4       1.0  0.43285  0.74523  0.44095  1.0000
  H   H1        1.0  0.95029  0.09097  0.26579  1.0000
  H   H2        1.0  0.54970  0.40903  0.76579  1.0000
  H   H3        1.0  0.04970  0.90903  0.73421  1.0000
  H   H4        1.0  0.45031  0.59097  0.23421  1.0000
  H   H5        1.0  0.96016  0.86678  0.33436  1.0000
  H   H6        1.0  0.53983  0.63321  0.83436  1.0000
  H   H7        1.0  0.03984  0.13322  0.66564  1.0000
  H   H8        1.0  0.46017  0.36679  0.16564  1.0000
  H   H9        1.0  0.49369  0.85160  0.19310  1.0000
  H   H10       1.0  0.00630  0.64840  0.69310  1.0000
  H   H11       1.0  0.50630  0.14841  0.80690  1.0000
  H   H12       1.0  0.99370  0.35160  0.30691  1.0000
  H   H13       1.0  0.47967  0.07115  0.12142  1.0000
  H   H14       1.0  0.02032  0.42885  0.62141  1.0000
  H   H15       1.0  0.52032  0.92885  0.87858  1.0000
  H   H16       1.0  0.97968  0.57115  0.37859  1.0000
  C   C1        1.0  0.06929  0.03544  0.25142  1.0000
  C   C2        1.0  0.43071  0.46455  0.75142  1.0000
  C   C3        1.0  0.93070  0.96455  0.74858  1.0000
  C   C4        1.0  0.56930  0.53545  0.24858  1.0000
  C   C5        1.0  0.07537  0.91617  0.28857  1.0000
  C   C6        1.0  0.42462  0.58383  0.78857  1.0000
  C   C7        1.0  0.92462  0.08383  0.71143  1.0000
  C   C8        1.0  0.57539  0.41617  0.21143  1.0000
  C   C9        1.0  0.37451  0.90658  0.20760  1.0000
  C   C10       1.0  0.12548  0.59343  0.70759  1.0000
  C   C11       1.0  0.62549  0.09343  0.79240  1.0000
  C   C12       1.0  0.87453  0.40658  0.29241  1.0000
  C   C13       1.0  0.36646  0.02440  0.16893  1.0000
  C   C14       1.0  0.13354  0.47560  0.66893  1.0000
  C   C15       1.0  0.63354  0.97560  0.83107  1.0000
  C   C16       1.0  0.86647  0.52440  0.33107  1.0000
  C   C17       1.0  0.82361  0.92476  0.07484  1.0000
  C   C18       1.0  0.67640  0.57524  0.57483  1.0000
  C   C19       1.0  0.17637  0.07524  0.92515  1.0000
  C   C20       1.0  0.32363  0.42476  0.42516  1.0000
  C   C21       1.0  0.19781  0.53415  0.07081  1.0000
  C   C22       1.0  0.30221  0.96587  0.57083  1.0000
  C   C23       1.0  0.80219  0.46586  0.92919  1.0000
  C   C24       1.0  0.69780  0.03413  0.42918  1.0000
  S   S1        1.0  0.35363  0.65584  0.03137  1.0000
  S   S2        1.0  0.14637  0.84415  0.53138  1.0000
  S   S3        1.0  0.64636  0.34416  0.96864  1.0000
  S   S4        1.0  0.85364  0.15584  0.46862  1.0000
  S   S5        1.0  0.85216  0.77700  0.09530  1.0000
  S   S6        1.0  0.64785  0.72301  0.59530  1.0000
  S   S7        1.0  0.14782  0.22301  0.90469  1.0000
  S   S8        1.0  0.35217  0.27699  0.40470  1.0000
  N   N1        1.0  0.21374  0.08932  0.19061  1.0000
  N   N2        1.0  0.28625  0.41068  0.69061  1.0000
  N   N3        1.0  0.78625  0.91068  0.80939  1.0000
  N   N4        1.0  0.71375  0.58932  0.30939  1.0000
  N   N5        1.0  0.22824  0.85145  0.26659  1.0000
  N   N6        1.0  0.27176  0.64855  0.76659  1.0000
  N   N7        1.0  0.77176  0.14856  0.73341  1.0000
  N   N8        1.0  0.72824  0.35145  0.23341  1.0000
  N   N9        1.0  0.79809  0.03184  0.06148  1.0000
  N   N10       1.0  0.70192  0.46816  0.56147  1.0000
  N   N11       1.0  0.20189  0.96817  0.93852  1.0000
  N   N12       1.0  0.29811  0.53183  0.43852  1.0000
  N   N13       1.0  0.08792  0.44602  0.10200  1.0000
  N   N14       1.0  0.41207  0.05397  0.60200  1.0000
  N   N15       1.0  0.91206  0.55396  0.89801  1.0000
  N   N16       1.0  0.58793  0.94603  0.39800  1.0000
  O   O1        1.0  0.20750  0.20153  0.15365  1.0000
  O   O2        1.0  0.29250  0.29847  0.65364  1.0000
  O   O3        1.0  0.79249  0.79847  0.84635  1.0000
  O   O4        1.0  0.70751  0.70153  0.34635  1.0000
  O   O5        1.0  0.23502  0.73787  0.30173  1.0000
  O   O6        1.0  0.26497  0.76213  0.80172  1.0000
  O   O7        1.0  0.76498  0.26213  0.69828  1.0000
  O   O8        1.0  0.73503  0.23787  0.19828  1.0000
