data_image0
_chemical_formula_structural       Cd2H12C14S4N8O4
_chemical_formula_sum              "Cd2 H12 C14 S4 N8 O4"
_cell_length_a       7.75813
_cell_length_b       8.76922
_cell_length_c       8.61362
_cell_angle_alpha    100.188
_cell_angle_beta     103.399
_cell_angle_gamma    99.0857

_space_group_name_H-M_alt    "P 1"
_space_group_IT_number       1

loop_
  _space_group_symop_operation_xyz
  'x, y, z'

loop_
  _atom_site_type_symbol
  _atom_site_label
  _atom_site_symmetry_multiplicity
  _atom_site_fract_x
  _atom_site_fract_y
  _atom_site_fract_z
  _atom_site_occupancy
  Cd  Cd1       1.0  0.73889  0.71625  0.79716  1.0000
  Cd  Cd2       1.0  0.26109  0.28374  0.20283  1.0000
  H   H1        1.0  0.80152  0.42601  0.02662  1.0000
  H   H2        1.0  0.19849  0.57400  0.97339  1.0000
  H   H3        1.0  0.67107  0.98644  0.55473  1.0000
  H   H4        1.0  0.32894  0.01357  0.44528  1.0000
  H   H5        1.0  0.62724  0.15215  0.02458  1.0000
  H   H6        1.0  0.37277  0.84786  0.97543  1.0000
  H   H7        1.0  0.79008  0.36413  0.46355  1.0000
  H   H8        1.0  0.20993  0.63588  0.53646  1.0000
  H   H9        1.0  0.81736  0.16518  0.41257  1.0000
  H   H10       1.0  0.18264  0.83484  0.58744  1.0000
  H   H11       1.0  0.99905  0.31571  0.54895  1.0000
  H   H12       1.0  0.00095  0.68430  0.45106  1.0000
  C   C1        1.0  0.76419  0.32808  0.92044  1.0000
  C   C2        1.0  0.23582  0.67193  0.07956  1.0000
  C   C3        1.0  0.78639  0.23676  0.65167  1.0000
  C   C4        1.0  0.21362  0.76325  0.34834  1.0000
  C   C5        1.0  0.69678  0.08871  0.65515  1.0000
  C   C6        1.0  0.30323  0.91130  0.34486  1.0000
  C   C7        1.0  0.67347  0.18066  0.92110  1.0000
  C   C8        1.0  0.32654  0.81935  0.07891  1.0000
  C   C9        1.0  0.85170  0.27145  0.51086  1.0000
  C   C10       1.0  0.14831  0.72856  0.48915  1.0000
  C   C11       1.0  0.91938  0.97919  0.16059  1.0000
  C   C12       1.0  0.08059  0.02079  0.83944  1.0000
  C   C13       1.0  0.61328  0.58789  0.38399  1.0000
  C   C14       1.0  0.38671  0.41209  0.61596  1.0000
  S   S1        1.0  0.79010  0.80536  0.13170  1.0000
  S   S2        1.0  0.20988  0.19463  0.86832  1.0000
  S   S3        1.0  0.55744  0.47654  0.19948  1.0000
  S   S4        1.0  0.44255  0.52344  0.80046  1.0000
  N   N1        1.0  0.65760  0.67212  0.51578  1.0000
  N   N2        1.0  0.34238  0.32785  0.48416  1.0000
  N   N3        1.0  0.01148  0.10689  0.18652  1.0000
  N   N4        1.0  0.98851  0.89309  0.81350  1.0000
  N   N5        1.0  0.81693  0.35811  0.78681  1.0000
  N   N6        1.0  0.18307  0.64190  0.21320  1.0000
  N   N7        1.0  0.63759  0.06025  0.78677  1.0000
  N   N8        1.0  0.36242  0.93976  0.21324  1.0000
  O   O1        1.0  0.55043  0.91936  0.78477  1.0000
  O   O2        1.0  0.44959  0.08065  0.21525  1.0000
  O   O3        1.0  0.89920  0.50055  0.78679  1.0000
  O   O4        1.0  0.10080  0.49946  0.21321  1.0000
