data_image0
_chemical_formula_structural       Mg2Cd4P4H8C8O24
_chemical_formula_sum              "Mg2 Cd4 P4 H8 C8 O24"
_cell_length_a       5.08205
_cell_length_b       8.94231
_cell_length_c       12.5327
_cell_angle_alpha    90.0001
_cell_angle_beta     89.9995
_cell_angle_gamma    104.36

_space_group_name_H-M_alt    "P 1"
_space_group_IT_number       1

loop_
  _space_group_symop_operation_xyz
  'x, y, z'

loop_
  _atom_site_type_symbol
  _atom_site_label
  _atom_site_symmetry_multiplicity
  _atom_site_fract_x
  _atom_site_fract_y
  _atom_site_fract_z
  _atom_site_occupancy
  Mg  Mg1       1.0  0.50000  0.50000  0.50000  1.0000
  Mg  Mg2       1.0  1.00000  1.00000  0.00000  1.0000
  Cd  Cd1       1.0  0.35642  0.13520  0.57204  1.0000
  Cd  Cd2       1.0  0.14358  0.36480  0.07204  1.0000
  Cd  Cd3       1.0  0.64358  0.86480  0.42796  1.0000
  Cd  Cd4       1.0  0.85642  0.63520  0.92796  1.0000
  P   P1        1.0  0.59980  0.24328  0.93419  1.0000
  P   P2        1.0  0.90020  0.25672  0.43420  1.0000
  P   P3        1.0  0.40020  0.75672  0.06581  1.0000
  P   P4        1.0  0.09979  0.74329  0.56581  1.0000
  H   H1        1.0  0.79433  0.10673  0.72709  1.0000
  H   H2        1.0  0.70567  0.39327  0.22710  1.0000
  H   H3        1.0  0.20567  0.89327  0.27290  1.0000
  H   H4        1.0  0.29433  0.60673  0.77290  1.0000
  H   H5        1.0  0.90033  0.34400  0.78937  1.0000
  H   H6        1.0  0.59967  0.15600  0.28937  1.0000
  H   H7        1.0  0.09968  0.65600  0.21063  1.0000
  H   H8        1.0  0.40033  0.84400  0.71063  1.0000
  C   C1        1.0  0.54188  0.40402  0.74255  1.0000
  C   C2        1.0  0.95811  0.09598  0.24255  1.0000
  C   C3        1.0  0.45812  0.59598  0.25745  1.0000
  C   C4        1.0  0.04188  0.90402  0.75745  1.0000
  C   C5        1.0  0.68068  0.28684  0.79085  1.0000
  C   C6        1.0  0.81932  0.21316  0.29086  1.0000
  C   C7        1.0  0.31932  0.71316  0.20915  1.0000
  C   C8        1.0  0.18068  0.78684  0.70914  1.0000
  O   O1        1.0  0.62784  0.14866  0.72995  1.0000
  O   O2        1.0  0.87216  0.35134  0.22996  1.0000
  O   O3        1.0  0.37216  0.85133  0.27005  1.0000
  O   O4        1.0  0.12784  0.64866  0.77004  1.0000
  O   O5        1.0  0.43353  0.37756  0.65087  1.0000
  O   O6        1.0  0.06646  0.12244  0.15087  1.0000
  O   O7        1.0  0.56648  0.62244  0.34912  1.0000
  O   O8        1.0  0.93354  0.87756  0.84913  1.0000
  O   O9        1.0  0.54000  0.52500  0.79557  1.0000
  O   O10       1.0  0.96000  0.97500  0.29557  1.0000
  O   O11       1.0  0.46001  0.47500  0.20443  1.0000
  O   O12       1.0  0.04000  0.02500  0.70443  1.0000
  O   O13       1.0  0.73801  0.39413  0.99572  1.0000
  O   O14       1.0  0.76200  0.10587  0.49572  1.0000
  O   O15       1.0  0.26199  0.60587  0.00428  1.0000
  O   O16       1.0  0.23800  0.89413  0.50428  1.0000
  O   O17       1.0  0.28839  0.20610  0.94986  1.0000
  O   O18       1.0  0.21161  0.29390  0.44986  1.0000
  O   O19       1.0  0.71161  0.79390  0.05014  1.0000
  O   O20       1.0  0.78839  0.70610  0.55014  1.0000
  O   O21       1.0  0.72743  0.11405  0.96276  1.0000
  O   O22       1.0  0.77257  0.38594  0.46277  1.0000
  O   O23       1.0  0.27257  0.88595  0.03724  1.0000
  O   O24       1.0  0.22743  0.61406  0.53723  1.0000
