data_image0
_chemical_formula_structural       Na2Zn3P8H60C28N4Cl8O24
_chemical_formula_sum              "Na2 Zn3 P8 H60 C28 N4 Cl8 O24"
_cell_length_a       9.71373
_cell_length_b       11.1702
_cell_length_c       15.1209
_cell_angle_alpha    100.516
_cell_angle_beta     105.398
_cell_angle_gamma    105.027

_space_group_name_H-M_alt    "P 1"
_space_group_IT_number       1

loop_
  _space_group_symop_operation_xyz
  'x, y, z'

loop_
  _atom_site_type_symbol
  _atom_site_label
  _atom_site_symmetry_multiplicity
  _atom_site_fract_x
  _atom_site_fract_y
  _atom_site_fract_z
  _atom_site_occupancy
  Na  Na1       1.0  0.33075  0.02198  0.97234  1.0000
  Na  Na2       1.0  0.66925  0.97802  0.02766  1.0000
  Zn  Zn1       1.0  0.50000  0.50000  0.00000  1.0000
  Zn  Zn2       1.0  0.19161  0.19420  0.10838  1.0000
  Zn  Zn3       1.0  0.80840  0.80581  0.89162  1.0000
  P   P1        1.0  0.54708  0.31536  0.14983  1.0000
  P   P2        1.0  0.45292  0.68462  0.85016  1.0000
  P   P3        1.0  0.37528  0.50624  0.18113  1.0000
  P   P4        1.0  0.62471  0.49376  0.81886  1.0000
  P   P5        1.0  0.07443  0.88158  0.08877  1.0000
  P   P6        1.0  0.92557  0.11843  0.91123  1.0000
  P   P7        1.0  0.98078  0.06340  0.22319  1.0000
  P   P8        1.0  0.01922  0.93660  0.77681  1.0000
  H   H1        1.0  0.21768  0.30090  0.94279  1.0000
  H   H2        1.0  0.78232  0.69911  0.05721  1.0000
  H   H3        1.0  0.28888  0.31442  0.86174  1.0000
  H   H4        1.0  0.71112  0.68558  0.13826  1.0000
  H   H5        1.0  0.57823  0.22304  0.99189  1.0000
  H   H6        1.0  0.42177  0.77697  0.00811  1.0000
  H   H7        1.0  0.62605  0.14197  0.91802  1.0000
  H   H8        1.0  0.37395  0.85803  0.08197  1.0000
  H   H9        1.0  0.83554  0.41177  0.16213  1.0000
  H   H10       1.0  0.16446  0.58823  0.83787  1.0000
  H   H11       1.0  0.88411  0.27037  0.17735  1.0000
  H   H12       1.0  0.11588  0.72963  0.82265  1.0000
  H   H13       1.0  0.90671  0.39290  0.27941  1.0000
  H   H14       1.0  0.09329  0.60710  0.72059  1.0000
  H   H15       1.0  0.21596  0.48363  0.30447  1.0000
  H   H16       1.0  0.78404  0.51637  0.69553  1.0000
  H   H17       1.0  0.17106  0.62733  0.30003  1.0000
  H   H18       1.0  0.82893  0.37267  0.69997  1.0000
  H   H19       1.0  0.43816  0.60143  0.44893  1.0000
  H   H20       1.0  0.56184  0.39858  0.55107  1.0000
  H   H21       1.0  0.27652  0.63117  0.46817  1.0000
  H   H22       1.0  0.72348  0.36883  0.53183  1.0000
  H   H23       1.0  0.34631  0.84181  0.43082  1.0000
  H   H24       1.0  0.65369  0.15819  0.56918  1.0000
  H   H25       1.0  0.49944  0.83611  0.52268  1.0000
  H   H26       1.0  0.50056  0.16389  0.47732  1.0000
  H   H27       1.0  0.58022  0.92339  0.39430  1.0000
  H   H28       1.0  0.41979  0.07662  0.60570  1.0000
  H   H29       1.0  0.62658  0.78183  0.40473  1.0000
  H   H30       1.0  0.37342  0.21817  0.59527  1.0000
  H   H31       1.0  0.35532  0.80230  0.25636  1.0000
  H   H32       1.0  0.64468  0.19770  0.74364  1.0000
  H   H33       1.0  0.51201  0.76602  0.23420  1.0000
  H   H34       1.0  0.48799  0.23397  0.76580  1.0000
  H   H35       1.0  0.06011  0.60841  0.11479  1.0000
  H   H36       1.0  0.93990  0.39158  0.88521  1.0000
  H   H37       1.0  0.18120  0.60448  0.04354  1.0000
  H   H38       1.0  0.81880  0.39552  0.95646  1.0000
  H   H39       1.0  0.99802  0.62089  0.99463  1.0000
  H   H40       1.0  0.00198  0.37911  0.00537  1.0000
  H   H41       1.0  0.97415  0.01054  0.43045  1.0000
  H   H42       1.0  0.02585  0.98946  0.56955  1.0000
  H   H43       1.0  0.81316  0.98388  0.33003  1.0000
  H   H44       1.0  0.18684  0.01612  0.66997  1.0000
  H   H45       1.0  0.79831  0.10156  0.48501  1.0000
  H   H46       1.0  0.20169  0.89844  0.51499  1.0000
  H   H47       1.0  0.78486  0.18983  0.39832  1.0000
  H   H48       1.0  0.21514  0.81018  0.60168  1.0000
  H   H49       1.0  0.06768  0.22639  0.56526  1.0000
  H   H50       1.0  0.93232  0.77362  0.43474  1.0000
  H   H51       1.0  0.96359  0.33462  0.55665  1.0000
  H   H52       1.0  0.03641  0.66538  0.44334  1.0000
  H   H53       1.0  0.03153  0.37703  0.41465  1.0000
  H   H54       1.0  0.96848  0.62297  0.58535  1.0000
  H   H55       1.0  0.19818  0.40584  0.51078  1.0000
  H   H56       1.0  0.80182  0.59416  0.48922  1.0000
  H   H57       1.0  0.20035  0.27662  0.35561  1.0000
  H   H58       1.0  0.79965  0.72338  0.64439  1.0000
  H   H59       1.0  0.21790  0.19549  0.44679  1.0000
  H   H60       1.0  0.78210  0.80450  0.55321  1.0000
  C   C1        1.0  0.53113  0.44584  0.23820  1.0000
  C   C2        1.0  0.46888  0.55417  0.76180  1.0000
  C   C3        1.0  0.08870  0.94603  0.21437  1.0000
  C   C4        1.0  0.91129  0.05397  0.78562  1.0000
  C   C5        1.0  0.83799  0.34276  0.20512  1.0000
  C   C6        1.0  0.16201  0.65724  0.79488  1.0000
  C   C7        1.0  0.26515  0.58850  0.32082  1.0000
  C   C8        1.0  0.73485  0.41150  0.67919  1.0000
  C   C9        1.0  0.35373  0.64914  0.42683  1.0000
  C   C10       1.0  0.64627  0.35086  0.57317  1.0000
  C   C11       1.0  0.43235  0.79379  0.44676  1.0000
  C   C12       1.0  0.56765  0.20621  0.55324  1.0000
  C   C13       1.0  0.53178  0.81933  0.38440  1.0000
  C   C14       1.0  0.46822  0.18068  0.61560  1.0000
  C   C15       1.0  0.44042  0.75554  0.27932  1.0000
  C   C16       1.0  0.55958  0.24447  0.72068  1.0000
  C   C17       1.0  0.09571  0.64433  0.05887  1.0000
  C   C18       1.0  0.90429  0.35567  0.94113  1.0000
  C   C19       1.0  0.91108  0.05854  0.38457  1.0000
  C   C20       1.0  0.08892  0.94146  0.61543  1.0000
  C   C21       1.0  0.86183  0.15320  0.44538  1.0000
  C   C22       1.0  0.13817  0.84679  0.55462  1.0000
  C   C23       1.0  0.99884  0.26467  0.51428  1.0000
  C   C24       1.0  0.00116  0.73533  0.48572  1.0000
  C   C25       1.0  0.09544  0.33029  0.46071  1.0000
  C   C26       1.0  0.90456  0.66971  0.53929  1.0000
  C   C27       1.0  0.14060  0.23235  0.39963  1.0000
  C   C28       1.0  0.85940  0.76765  0.60037  1.0000
  N   N1        1.0  0.36185  0.61770  0.26245  1.0000
  N   N2        1.0  0.63814  0.38229  0.73754  1.0000
  N   N3        1.0  0.00727  0.12486  0.33647  1.0000
  N   N4        1.0  0.99273  0.87514  0.66353  1.0000
  Cl  Cl1       1.0  0.70564  0.57649  0.28451  1.0000
  Cl  Cl2       1.0  0.29436  0.42352  0.71549  1.0000
  Cl  Cl3       1.0  0.49459  0.38359  0.33367  1.0000
  Cl  Cl4       1.0  0.50541  0.61641  0.66633  1.0000
  Cl  Cl5       1.0  0.28463  0.02742  0.28163  1.0000
  Cl  Cl6       1.0  0.71537  0.97258  0.71837  1.0000
  Cl  Cl7       1.0  0.01697  0.81650  0.26154  1.0000
  Cl  Cl8       1.0  0.98304  0.18351  0.73847  1.0000
  O   O1        1.0  0.28534  0.36320  0.92091  1.0000
  O   O2        1.0  0.71466  0.63680  0.07909  1.0000
  O   O3        1.0  0.56909  0.13310  0.96232  1.0000
  O   O4        1.0  0.43092  0.86690  0.03768  1.0000
  O   O5        1.0  0.57580  0.36586  0.06780  1.0000
  O   O6        1.0  0.42420  0.63414  0.93221  1.0000
  O   O7        1.0  0.40707  0.19929  0.12450  1.0000
  O   O8        1.0  0.59293  0.80070  0.87549  1.0000
  O   O9        1.0  0.68654  0.27655  0.20327  1.0000
  O   O10       1.0  0.31345  0.72345  0.79673  1.0000
  O   O11       1.0  0.42816  0.56830  0.10973  1.0000
  O   O12       1.0  0.57183  0.43170  0.89027  1.0000
  O   O13       1.0  0.23430  0.38952  0.14681  1.0000
  O   O14       1.0  0.76570  0.61049  0.85318  1.0000
  O   O15       1.0  0.15704  0.99110  0.05770  1.0000
  O   O16       1.0  0.84296  0.00890  0.94230  1.0000
  O   O17       1.0  0.90956  0.80963  0.03031  1.0000
  O   O18       1.0  0.09043  0.19036  0.96969  1.0000
  O   O19       1.0  0.16876  0.78310  0.09312  1.0000
  O   O20       1.0  0.83124  0.21690  0.90688  1.0000
  O   O21       1.0  0.06161  0.17077  0.18733  1.0000
  O   O22       1.0  0.93840  0.82923  0.81268  1.0000
  O   O23       1.0  0.81831  0.98672  0.17103  1.0000
  O   O24       1.0  0.18169  0.01327  0.82897  1.0000
