data_image0
_chemical_formula_structural       Cd2P4H38C14N2Cl4O16
_chemical_formula_sum              "Cd2 P4 H38 C14 N2 Cl4 O16"
_cell_length_a       5.7465
_cell_length_b       8.87193
_cell_length_c       16.1706
_cell_angle_alpha    104.154
_cell_angle_beta     89.9997
_cell_angle_gamma    90

_space_group_name_H-M_alt    "P 1"
_space_group_IT_number       1

loop_
  _space_group_symop_operation_xyz
  'x, y, z'

loop_
  _atom_site_type_symbol
  _atom_site_label
  _atom_site_symmetry_multiplicity
  _atom_site_fract_x
  _atom_site_fract_y
  _atom_site_fract_z
  _atom_site_occupancy
  Cd  Cd1       1.0  0.83159  0.80575  0.61176  1.0000
  Cd  Cd2       1.0  0.33159  0.19425  0.38824  1.0000
  P   P1        1.0  0.48289  0.14888  0.67315  1.0000
  P   P2        1.0  0.98287  0.85112  0.32685  1.0000
  P   P3        1.0  0.32774  0.86425  0.74531  1.0000
  P   P4        1.0  0.82775  0.13576  0.25469  1.0000
  H   H1        1.0  0.19655  0.97536  0.57201  1.0000
  H   H2        1.0  0.69655  0.02464  0.42799  1.0000
  H   H3        1.0  0.14769  0.89809  0.47518  1.0000
  H   H4        1.0  0.64769  0.10192  0.52482  1.0000
  H   H5        1.0  0.21150  0.61110  0.61457  1.0000
  H   H6        1.0  0.71149  0.38890  0.38543  1.0000
  H   H7        1.0  0.06194  0.47092  0.55767  1.0000
  H   H8        1.0  0.56194  0.52909  0.44232  1.0000
  H   H9        1.0  0.64801  0.76813  0.44372  1.0000
  H   H10       1.0  0.14800  0.23187  0.55627  1.0000
  H   H11       1.0  0.43383  0.77353  0.50914  1.0000
  H   H12       1.0  0.93382  0.22647  0.49085  1.0000
  H   H13       1.0  0.82731  0.39987  0.79345  1.0000
  H   H14       1.0  0.32731  0.60014  0.20655  1.0000
  H   H15       1.0  0.83759  0.46975  0.69805  1.0000
  H   H16       1.0  0.33759  0.53026  0.30195  1.0000
  H   H17       1.0  0.92072  0.27339  0.69519  1.0000
  H   H18       1.0  0.42071  0.72662  0.30480  1.0000
  H   H19       1.0  0.65737  0.81440  0.90607  1.0000
  H   H20       1.0  0.15736  0.18560  0.09393  1.0000
  H   H21       1.0  0.66893  0.69678  0.79998  1.0000
  H   H22       1.0  0.16893  0.30322  0.20002  1.0000
  H   H23       1.0  0.40363  0.50443  0.83922  1.0000
  H   H24       1.0  0.90362  0.49557  0.16078  1.0000
  H   H25       1.0  0.64785  0.53534  0.90767  1.0000
  H   H26       1.0  0.14784  0.46466  0.09233  1.0000
  H   H27       1.0  0.42290  0.71788  0.02007  1.0000
  H   H28       1.0  0.92289  0.28211  0.97993  1.0000
  H   H29       1.0  0.27486  0.53818  0.98999  1.0000
  H   H30       1.0  0.77485  0.46181  0.01001  1.0000
  H   H31       1.0  0.00542  0.76847  0.99988  1.0000
  H   H32       1.0  0.50542  0.23152  0.00013  1.0000
  H   H33       1.0  0.01138  0.64187  0.89617  1.0000
  H   H34       1.0  0.51138  0.35812  0.10383  1.0000
  H   H35       1.0  0.03505  0.91094  0.88309  1.0000
  H   H36       1.0  0.53506  0.08906  0.11691  1.0000
  H   H37       1.0  0.27196  0.95083  0.95595  1.0000
  H   H38       1.0  0.77195  0.04917  0.04405  1.0000
  C   C1        1.0  0.43552  0.07252  0.76920  1.0000
  C   C2        1.0  0.93551  0.92748  0.23080  1.0000
  C   C3        1.0  0.80373  0.36912  0.72417  1.0000
  C   C4        1.0  0.30373  0.63088  0.27583  1.0000
  C   C5        1.0  0.55846  0.73071  0.85670  1.0000
  C   C6        1.0  0.05845  0.26928  0.14330  1.0000
  C   C7        1.0  0.49020  0.59070  0.89035  1.0000
  C   C8        1.0  0.99021  0.40929  0.10965  1.0000
  C   C9        1.0  0.32879  0.63966  0.96709  1.0000
  C   C10       1.0  0.82878  0.36033  0.03292  1.0000
  C   C11       1.0  0.11620  0.72405  0.94373  1.0000
  C   C12       1.0  0.61620  0.27595  0.05627  1.0000
  C   C13       1.0  0.18757  0.85919  0.90604  1.0000
  C   C14       1.0  0.68756  0.14079  0.09395  1.0000
  N   N1        1.0  0.34945  0.80712  0.83462  1.0000
  N   N2        1.0  0.84944  0.19287  0.16539  1.0000
  Cl  Cl1       1.0  0.70614  0.08233  0.82352  1.0000
  Cl  Cl2       1.0  0.20613  0.91768  0.17648  1.0000
  Cl  Cl3       1.0  0.23272  0.19746  0.83744  1.0000
  Cl  Cl4       1.0  0.73271  0.80254  0.16257  1.0000
  O   O1        1.0  0.16072  0.87181  0.53180  1.0000
  O   O2        1.0  0.66072  0.12820  0.46820  1.0000
  O   O3        1.0  0.05453  0.57948  0.59359  1.0000
  O   O4        1.0  0.55454  0.42053  0.40640  1.0000
  O   O5        1.0  0.58847  0.72358  0.49142  1.0000
  O   O6        1.0  0.08846  0.27643  0.50857  1.0000
  O   O7        1.0  0.67362  0.05289  0.61934  1.0000
  O   O8        1.0  0.17362  0.94711  0.38066  1.0000
  O   O9        1.0  0.24922  0.14966  0.62989  1.0000
  O   O10       1.0  0.74923  0.85034  0.37011  1.0000
  O   O11       1.0  0.56179  0.32534  0.70537  1.0000
  O   O12       1.0  0.06178  0.67466  0.29463  1.0000
  O   O13       1.0  0.49044  0.76717  0.67884  1.0000
  O   O14       1.0  0.99043  0.23282  0.32116  1.0000
  O   O15       1.0  0.07491  0.87321  0.72209  1.0000
  O   O16       1.0  0.57491  0.12679  0.27791  1.0000
