data_image0
_chemical_formula_structural       Cd2H22C24N12Cl2
_chemical_formula_sum              "Cd2 H22 C24 N12 Cl2"
_cell_length_a       8.5378
_cell_length_b       8.52667
_cell_length_c       10.4811
_cell_angle_alpha    88.0475
_cell_angle_beta     78.8121
_cell_angle_gamma    67.7456

_space_group_name_H-M_alt    "P 1"
_space_group_IT_number       1

loop_
  _space_group_symop_operation_xyz
  'x, y, z'

loop_
  _atom_site_type_symbol
  _atom_site_label
  _atom_site_symmetry_multiplicity
  _atom_site_fract_x
  _atom_site_fract_y
  _atom_site_fract_z
  _atom_site_occupancy
  Cd  Cd1       1.0  0.61775  0.86881  0.83878  1.0000
  Cd  Cd2       1.0  0.38225  0.13118  0.16121  1.0000
  H   H1        1.0  0.58447  0.35371  0.71079  1.0000
  H   H2        1.0  0.41553  0.64629  0.28921  1.0000
  H   H3        1.0  0.58302  0.47463  0.56949  1.0000
  H   H4        1.0  0.41699  0.52537  0.43051  1.0000
  H   H5        1.0  0.49290  0.57917  0.72690  1.0000
  H   H6        1.0  0.50710  0.42083  0.27310  1.0000
  H   H7        1.0  0.26350  0.42256  0.84038  1.0000
  H   H8        1.0  0.73650  0.57745  0.15962  1.0000
  H   H9        1.0  0.81548  0.95271  0.04703  1.0000
  H   H10       1.0  0.18452  0.04729  0.95297  1.0000
  H   H11       1.0  0.10219  0.84005  0.11773  1.0000
  H   H12       1.0  0.89781  0.15996  0.88227  1.0000
  H   H13       1.0  0.30711  0.24456  0.69460  1.0000
  H   H14       1.0  0.69289  0.75545  0.30540  1.0000
  H   H15       1.0  0.29354  0.43804  0.61905  1.0000
  H   H16       1.0  0.70645  0.56197  0.38094  1.0000
  H   H17       1.0  0.27837  0.27164  0.53075  1.0000
  H   H18       1.0  0.72164  0.72837  0.46924  1.0000
  H   H19       1.0  0.33069  0.57262  0.00557  1.0000
  H   H20       1.0  0.66931  0.42739  0.99443  1.0000
  H   H21       1.0  0.96451  0.26373  0.54272  1.0000
  H   H22       1.0  0.03549  0.73627  0.45728  1.0000
  C   C1        1.0  0.59710  0.47053  0.67155  1.0000
  C   C2        1.0  0.40290  0.52947  0.32844  1.0000
  C   C3        1.0  0.16890  0.54396  0.88198  1.0000
  C   C4        1.0  0.83110  0.45604  0.11802  1.0000
  C   C5        1.0  0.92024  0.83799  0.00124  1.0000
  C   C6        1.0  0.07975  0.16201  0.99876  1.0000
  C   C7        1.0  0.07844  0.77497  0.04049  1.0000
  C   C8        1.0  0.92155  0.22503  0.95952  1.0000
  C   C9        1.0  0.32756  0.89922  0.65477  1.0000
  C   C10       1.0  0.67245  0.10079  0.34523  1.0000
  C   C11       1.0  0.24301  0.33672  0.62663  1.0000
  C   C12       1.0  0.75699  0.66329  0.37337  1.0000
  C   C13       1.0  0.76827  0.47009  0.68219  1.0000
  C   C14       1.0  0.23173  0.52991  0.31781  1.0000
  C   C15       1.0  0.20505  0.62665  0.97789  1.0000
  C   C16       1.0  0.79494  0.37335  0.02212  1.0000
  C   C17       1.0  0.93404  0.36090  0.61792  1.0000
  C   C18       1.0  0.06596  0.63909  0.38208  1.0000
  C   C19       1.0  0.25968  0.97495  0.45454  1.0000
  C   C20       1.0  0.74031  0.02504  0.54546  1.0000
  C   C21       1.0  0.05165  0.40589  0.66640  1.0000
  C   C22       1.0  0.94835  0.59412  0.33360  1.0000
  C   C23       1.0  0.00684  0.61715  0.84807  1.0000
  C   C24       1.0  0.99316  0.38285  0.15194  1.0000
  N   N1        1.0  0.95513  0.53802  0.75649  1.0000
  N   N2        1.0  0.04487  0.46198  0.24352  1.0000
  N   N3        1.0  0.88670  0.76262  0.90528  1.0000
  N   N4        1.0  0.11330  0.23738  0.09473  1.0000
  N   N5        1.0  0.38153  0.90175  0.74999  1.0000
  N   N6        1.0  0.61847  0.09824  0.25000  1.0000
  N   N7        1.0  0.26391  0.88357  0.55613  1.0000
  N   N8        1.0  0.73610  0.11642  0.44386  1.0000
  N   N9        1.0  0.24739  0.05302  0.35934  1.0000
  N   N10       1.0  0.75262  0.94698  0.64065  1.0000
  N   N11       1.0  0.78176  0.57805  0.76498  1.0000
  N   N12       1.0  0.21824  0.42195  0.23502  1.0000
  Cl  Cl1       1.0  0.52913  0.18224  0.92512  1.0000
  Cl  Cl2       1.0  0.47087  0.81775  0.07489  1.0000
