data_image0
_chemical_formula_structural       Ho2H20C12O16
_chemical_formula_sum              "Ho2 H20 C12 O16"
_cell_length_a       6.6263
_cell_length_b       9.39716
_cell_length_c       10.2592
_cell_angle_alpha    80.9006
_cell_angle_beta     89.0811
_cell_angle_gamma    69.3738

_space_group_name_H-M_alt    "P 1"
_space_group_IT_number       1

loop_
  _space_group_symop_operation_xyz
  'x, y, z'

loop_
  _atom_site_type_symbol
  _atom_site_label
  _atom_site_symmetry_multiplicity
  _atom_site_fract_x
  _atom_site_fract_y
  _atom_site_fract_z
  _atom_site_occupancy
  Ho  Ho1       1.0  0.38350  0.61596  0.82099  1.0000
  Ho  Ho2       1.0  0.61651  0.38404  0.17901  1.0000
  H   H1        1.0  0.85972  0.56181  0.76430  1.0000
  H   H2        1.0  0.14028  0.43820  0.23570  1.0000
  H   H3        1.0  0.83473  0.44439  0.88701  1.0000
  H   H4        1.0  0.16527  0.55561  0.11299  1.0000
  H   H5        1.0  0.52670  0.82103  0.63368  1.0000
  H   H6        1.0  0.47330  0.17898  0.36632  1.0000
  H   H7        1.0  0.47652  0.71639  0.54235  1.0000
  H   H8        1.0  0.52348  0.28361  0.45765  1.0000
  H   H9        1.0  0.81240  0.69570  0.15428  1.0000
  H   H10       1.0  0.18761  0.30429  0.84572  1.0000
  H   H11       1.0  0.58961  0.86845  0.14554  1.0000
  H   H12       1.0  0.41039  0.13154  0.85446  1.0000
  H   H13       1.0  0.91058  0.93152  0.08094  1.0000
  H   H14       1.0  0.08942  0.06847  0.91906  1.0000
  H   H15       1.0  0.73337  0.98468  0.94175  1.0000
  H   H16       1.0  0.26663  0.01532  0.05826  1.0000
  H   H17       1.0  0.16836  0.33639  0.53447  1.0000
  H   H18       1.0  0.83163  0.66362  0.46553  1.0000
  H   H19       1.0  0.20696  0.48927  0.42479  1.0000
  H   H20       1.0  0.79303  0.51073  0.57521  1.0000
  C   C1        1.0  0.58730  0.73757  0.99519  1.0000
  C   C2        1.0  0.41271  0.26243  0.00481  1.0000
  C   C3        1.0  0.70815  0.79503  0.08517  1.0000
  C   C4        1.0  0.29186  0.20496  0.91483  1.0000
  C   C5        1.0  0.83702  0.88492  0.01045  1.0000
  C   C6        1.0  0.16299  0.11508  0.98955  1.0000
  C   C7        1.0  0.01465  0.78989  0.93279  1.0000
  C   C8        1.0  0.98535  0.21011  0.06721  1.0000
  C   C9        1.0  0.21096  0.51201  0.62469  1.0000
  C   C10       1.0  0.78903  0.48800  0.37531  1.0000
  C   C11       1.0  0.12137  0.46267  0.51271  1.0000
  C   C12       1.0  0.87863  0.53733  0.48728  1.0000
  O   O1        1.0  0.76246  0.50691  0.80024  1.0000
  O   O2        1.0  0.23755  0.49308  0.19976  1.0000
  O   O3        1.0  0.42615  0.77048  0.61722  1.0000
  O   O4        1.0  0.57385  0.22952  0.38278  1.0000
  O   O5        1.0  0.52584  0.62356  0.04194  1.0000
  O   O6        1.0  0.47415  0.37643  0.95805  1.0000
  O   O7        1.0  0.54307  0.79907  0.87549  1.0000
  O   O8        1.0  0.45694  0.20092  0.12451  1.0000
  O   O9        1.0  0.09216  0.64179  0.96632  1.0000
  O   O10       1.0  0.90783  0.35821  0.03368  1.0000
  O   O11       1.0  0.09453  0.85318  0.83762  1.0000
  O   O12       1.0  0.90547  0.14682  0.16237  1.0000
  O   O13       1.0  0.08550  0.60449  0.69593  1.0000
  O   O14       1.0  0.91450  0.39552  0.30407  1.0000
  O   O15       1.0  0.41469  0.46237  0.64714  1.0000
  O   O16       1.0  0.58530  0.53763  0.35286  1.0000
