data_image0
_chemical_formula_structural       Cs4H16C16O12
_chemical_formula_sum              "Cs4 H16 C16 O12"
_cell_length_a       4.09221
_cell_length_b       12.4644
_cell_length_c       12.8266
_cell_angle_alpha    113.039
_cell_angle_beta     89.9999
_cell_angle_gamma    89.9997

_space_group_name_H-M_alt    "P 1"
_space_group_IT_number       1

loop_
  _space_group_symop_operation_xyz
  'x, y, z'

loop_
  _atom_site_type_symbol
  _atom_site_label
  _atom_site_symmetry_multiplicity
  _atom_site_fract_x
  _atom_site_fract_y
  _atom_site_fract_z
  _atom_site_occupancy
  Cs  Cs1       1.0  0.26301  0.18014  0.64911  1.0000
  Cs  Cs2       1.0  0.76302  0.31986  0.35088  1.0000
  Cs  Cs3       1.0  0.73699  0.81986  0.35088  1.0000
  Cs  Cs4       1.0  0.23698  0.68014  0.64911  1.0000
  H   H1        1.0  0.09016  0.17298  0.95267  1.0000
  H   H2        1.0  0.59018  0.32702  0.04732  1.0000
  H   H3        1.0  0.90984  0.82702  0.04732  1.0000
  H   H4        1.0  0.40983  0.67299  0.95268  1.0000
  H   H5        1.0  0.71843  0.82504  0.86335  1.0000
  H   H6        1.0  0.21843  0.67496  0.13666  1.0000
  H   H7        1.0  0.28157  0.17496  0.13665  1.0000
  H   H8        1.0  0.78158  0.32504  0.86334  1.0000
  H   H9        1.0  0.57366  0.09429  0.38912  1.0000
  H   H10       1.0  0.07365  0.40571  0.61087  1.0000
  H   H11       1.0  0.42634  0.90571  0.61088  1.0000
  H   H12       1.0  0.92635  0.59429  0.38913  1.0000
  H   H13       1.0  0.95692  0.09810  0.39573  1.0000
  H   H14       1.0  0.45690  0.40190  0.60427  1.0000
  H   H15       1.0  0.04308  0.90190  0.60427  1.0000
  H   H16       1.0  0.54310  0.59810  0.39573  1.0000
  C   C1        1.0  0.78266  0.99963  0.78349  1.0000
  C   C2        1.0  0.28267  0.50037  0.21651  1.0000
  C   C3        1.0  0.21734  0.00038  0.21651  1.0000
  C   C4        1.0  0.71733  0.49963  0.78349  1.0000
  C   C5        1.0  0.89184  0.99926  0.89544  1.0000
  C   C6        1.0  0.39186  0.50073  0.10456  1.0000
  C   C7        1.0  0.10815  0.00074  0.10456  1.0000
  C   C8        1.0  0.60815  0.49927  0.89544  1.0000
  C   C9        1.0  0.04990  0.09753  0.97395  1.0000
  C   C10       1.0  0.54992  0.40247  0.02604  1.0000
  C   C11       1.0  0.95010  0.90247  0.02604  1.0000
  C   C12       1.0  0.45009  0.59753  0.97396  1.0000
  C   C13       1.0  0.84289  0.90188  0.92284  1.0000
  C   C14       1.0  0.34289  0.59812  0.07716  1.0000
  C   C15       1.0  0.15711  0.09812  0.07716  1.0000
  C   C16       1.0  0.65712  0.40189  0.92284  1.0000
  O   O1        1.0  0.76194  0.09565  0.77262  1.0000
  O   O2        1.0  0.26195  0.40434  0.22738  1.0000
  O   O3        1.0  0.23806  0.90435  0.22738  1.0000
  O   O4        1.0  0.73805  0.59566  0.77263  1.0000
  O   O5        1.0  0.72474  0.89935  0.70233  1.0000
  O   O6        1.0  0.22475  0.60065  0.29767  1.0000
  O   O7        1.0  0.27526  0.10065  0.29767  1.0000
  O   O8        1.0  0.77525  0.39935  0.70233  1.0000
  O   O9        1.0  0.76051  0.10011  0.44166  1.0000
  O   O10       1.0  0.26050  0.39988  0.55834  1.0000
  O   O11       1.0  0.23949  0.89989  0.55834  1.0000
  O   O12       1.0  0.73951  0.60012  0.44166  1.0000
