data_image0
_chemical_formula_structural       Cu2H8C12I2N2
_chemical_formula_sum              "Cu2 H8 C12 I2 N2"
_cell_length_a       4.33063
_cell_length_b       9.29094
_cell_length_c       9.28998
_cell_angle_alpha    60.1722
_cell_angle_beta     84.407
_cell_angle_gamma    84.3962

_space_group_name_H-M_alt    "P 1"
_space_group_IT_number       1

loop_
  _space_group_symop_operation_xyz
  'x, y, z'

loop_
  _atom_site_type_symbol
  _atom_site_label
  _atom_site_symmetry_multiplicity
  _atom_site_fract_x
  _atom_site_fract_y
  _atom_site_fract_z
  _atom_site_occupancy
  Cu  Cu1       1.0  0.49992  0.13644  0.86354  1.0000
  Cu  Cu2       1.0  0.50006  0.86355  0.13647  1.0000
  H   H1        1.0  0.86452  0.10881  0.64503  1.0000
  H   H2        1.0  0.13533  0.35498  0.89116  1.0000
  H   H3        1.0  0.13552  0.89119  0.35496  1.0000
  H   H4        1.0  0.86461  0.64501  0.10885  1.0000
  H   H5        1.0  0.19646  0.13324  0.40028  1.0000
  H   H6        1.0  0.80344  0.59966  0.86676  1.0000
  H   H7        1.0  0.80357  0.86676  0.59971  1.0000
  H   H8        1.0  0.19652  0.40034  0.13323  1.0000
  C   C1        1.0  0.67553  0.36239  0.51704  1.0000
  C   C2        1.0  0.32436  0.48294  0.63769  1.0000
  C   C3        1.0  0.32445  0.63760  0.48297  1.0000
  C   C4        1.0  0.67567  0.51706  0.36234  1.0000
  C   C5        1.0  0.86494  0.22484  0.52663  1.0000
  C   C6        1.0  0.13497  0.47332  0.77523  1.0000
  C   C7        1.0  0.13504  0.77516  0.47334  1.0000
  C   C8        1.0  0.86506  0.52668  0.22478  1.0000
  C   C9        1.0  0.04802  0.23888  0.39131  1.0000
  C   C10       1.0  0.95190  0.60860  0.76119  1.0000
  C   C11       1.0  0.95195  0.76111  0.60868  1.0000
  C   C12       1.0  0.04808  0.39142  0.23879  1.0000
  I   I1        1.0  0.30599  0.87725  0.87738  1.0000
  I   I2        1.0  0.69402  0.12275  0.12262  1.0000
  N   N1        1.0  0.49995  0.34674  0.65328  1.0000
  N   N2        1.0  0.50007  0.65326  0.34673  1.0000
