data_image0
_chemical_formula_structural       Cu2H8C12Br2N2
_chemical_formula_sum              "Cu2 H8 C12 Br2 N2"
_cell_length_a       3.86107
_cell_length_b       8.70322
_cell_length_c       9.32582
_cell_angle_alpha    67.5454
_cell_angle_beta     87.9517
_cell_angle_gamma    78.9461

_space_group_name_H-M_alt    "P 1"
_space_group_IT_number       1

loop_
  _space_group_symop_operation_xyz
  'x, y, z'

loop_
  _atom_site_type_symbol
  _atom_site_label
  _atom_site_symmetry_multiplicity
  _atom_site_fract_x
  _atom_site_fract_y
  _atom_site_fract_z
  _atom_site_occupancy
  Cu  Cu1       1.0  0.68939  0.44606  0.16271  1.0000
  Cu  Cu2       1.0  0.31057  0.55392  0.83730  1.0000
  H   H1        1.0  0.05324  0.20697  0.38900  1.0000
  H   H2        1.0  0.94677  0.79304  0.61100  1.0000
  H   H3        1.0  0.32646  0.98752  0.63968  1.0000
  H   H4        1.0  0.67354  0.01248  0.36032  1.0000
  H   H5        1.0  0.17736  0.02278  0.88753  1.0000
  H   H6        1.0  0.82266  0.97723  0.11247  1.0000
  H   H7        1.0  0.73961  0.27365  0.88799  1.0000
  H   H8        1.0  0.26039  0.72636  0.11201  1.0000
  C   C1        1.0  0.73707  0.36361  0.49536  1.0000
  C   C2        1.0  0.26292  0.63639  0.50464  1.0000
  C   C3        1.0  0.98401  0.21844  0.49937  1.0000
  C   C4        1.0  0.01601  0.78155  0.50065  1.0000
  C   C5        1.0  0.13490  0.09808  0.63773  1.0000
  C   C6        1.0  0.86511  0.90192  0.36226  1.0000
  C   C7        1.0  0.04837  0.11768  0.77952  1.0000
  C   C8        1.0  0.95165  0.88233  0.22048  1.0000
  C   C9        1.0  0.80857  0.25626  0.78010  1.0000
  C   C10       1.0  0.19144  0.74375  0.21990  1.0000
  C   C11       1.0  0.64465  0.38215  0.63976  1.0000
  C   C12       1.0  0.35534  0.61785  0.36025  1.0000
  Br  Br1       1.0  0.27041  0.29884  0.09949  1.0000
  Br  Br2       1.0  0.72961  0.70113  0.90051  1.0000
  N   N1        1.0  0.59331  0.48193  0.35627  1.0000
  N   N2        1.0  0.40668  0.51808  0.64372  1.0000
