data_image0
_chemical_formula_structural       Cu2H8C12N2Cl2
_chemical_formula_sum              "Cu2 H8 C12 N2 Cl2"
_cell_length_a       3.68057
_cell_length_b       8.82148
_cell_length_c       9.26374
_cell_angle_alpha    112.566
_cell_angle_beta     95.1363
_cell_angle_gamma    99.4472

_space_group_name_H-M_alt    "P 1"
_space_group_IT_number       1

loop_
  _space_group_symop_operation_xyz
  'x, y, z'

loop_
  _atom_site_type_symbol
  _atom_site_label
  _atom_site_symmetry_multiplicity
  _atom_site_fract_x
  _atom_site_fract_y
  _atom_site_fract_z
  _atom_site_occupancy
  Cu  Cu1       1.0  0.38225  0.55785  0.16031  1.0000
  Cu  Cu2       1.0  0.61773  0.44214  0.83962  1.0000
  H   H1        1.0  0.18330  0.02786  0.63923  1.0000
  H   H2        1.0  0.81663  0.97214  0.36081  1.0000
  H   H3        1.0  0.26149  0.80445  0.38604  1.0000
  H   H4        1.0  0.73846  0.19559  0.61394  1.0000
  H   H5        1.0  0.43870  0.72807  0.89173  1.0000
  H   H6        1.0  0.56128  0.27190  0.10824  1.0000
  H   H7        1.0  0.26254  0.98811  0.88957  1.0000
  H   H8        1.0  0.73747  0.01191  0.11047  1.0000
  C   C1        1.0  0.74150  0.08699  0.36243  1.0000
  C   C2        1.0  0.25861  0.91300  0.63754  1.0000
  C   C3        1.0  0.69668  0.20929  0.50192  1.0000
  C   C4        1.0  0.30337  0.79069  0.49805  1.0000
  C   C5        1.0  0.59840  0.35916  0.50518  1.0000
  C   C6        1.0  0.40153  0.64081  0.49482  1.0000
  C   C7        1.0  0.54317  0.38070  0.35891  1.0000
  C   C8        1.0  0.45687  0.61932  0.64114  1.0000
  C   C9        1.0  0.59634  0.25265  0.21753  1.0000
  C   C10       1.0  0.40370  0.74739  0.78249  1.0000
  C   C11       1.0  0.69377  0.10929  0.21904  1.0000
  C   C12       1.0  0.30614  0.89070  0.78096  1.0000
  N   N1        1.0  0.55790  0.47893  0.64570  1.0000
  N   N2        1.0  0.44212  0.52106  0.35433  1.0000
  Cl  Cl1       1.0  0.90297  0.68838  0.09577  1.0000
  Cl  Cl2       1.0  0.09710  0.31162  0.90421  1.0000
