data_image0
_chemical_formula_structural       CdSi2H36C32Br2N4
_chemical_formula_sum              "Cd1 Si2 H36 C32 Br2 N4"
_cell_length_a       8.69085
_cell_length_b       10.5574
_cell_length_c       12.5892
_cell_angle_alpha    76.7
_cell_angle_beta     87.8646
_cell_angle_gamma    66.4418

_space_group_name_H-M_alt    "P 1"
_space_group_IT_number       1

loop_
  _space_group_symop_operation_xyz
  'x, y, z'

loop_
  _atom_site_type_symbol
  _atom_site_label
  _atom_site_symmetry_multiplicity
  _atom_site_fract_x
  _atom_site_fract_y
  _atom_site_fract_z
  _atom_site_occupancy
  Cd  Cd1       1.0  0.00000  1.00000  1.00000  1.0000
  Si  Si1       1.0  0.71379  0.69215  0.64844  1.0000
  Si  Si2       1.0  0.28621  0.30785  0.35156  1.0000
  H   H1        1.0  0.70373  0.32531  0.98410  1.0000
  H   H2        1.0  0.29627  0.67469  0.01590  1.0000
  H   H3        1.0  0.60425  0.57253  0.86560  1.0000
  H   H4        1.0  0.39575  0.42747  0.13440  1.0000
  H   H5        1.0  0.96129  0.39655  0.63413  1.0000
  H   H6        1.0  0.03870  0.60345  0.36587  1.0000
  H   H7        1.0  0.04984  0.16109  0.76503  1.0000
  H   H8        1.0  0.95016  0.83891  0.23497  1.0000
  H   H9        1.0  0.14599  0.78865  0.83430  1.0000
  H   H10       1.0  0.85401  0.21136  0.16569  1.0000
  H   H11       1.0  0.05616  0.66740  0.71573  1.0000
  H   H12       1.0  0.94384  0.33260  0.28427  1.0000
  H   H13       1.0  0.54058  0.93235  0.76404  1.0000
  H   H14       1.0  0.45942  0.06765  0.23596  1.0000
  H   H15       1.0  0.65416  0.03339  0.88558  1.0000
  H   H16       1.0  0.34584  0.96661  0.11442  1.0000
  H   H17       1.0  0.42193  0.78752  0.70053  1.0000
  H   H18       1.0  0.57807  0.21249  0.29947  1.0000
  H   H19       1.0  0.44258  0.88640  0.57029  1.0000
  H   H20       1.0  0.55743  0.11360  0.42971  1.0000
  H   H21       1.0  0.43099  0.58875  0.61529  1.0000
  H   H22       1.0  0.56900  0.41125  0.38471  1.0000
  H   H23       1.0  0.34502  0.83451  0.40907  1.0000
  H   H24       1.0  0.65498  0.16549  0.59093  1.0000
  H   H25       1.0  0.32296  0.66308  0.42506  1.0000
  H   H26       1.0  0.67704  0.33692  0.57494  1.0000
  H   H27       1.0  0.96475  0.62477  0.54233  1.0000
  H   H28       1.0  0.03525  0.37523  0.45767  1.0000
  H   H29       1.0  0.79248  0.61612  0.47641  1.0000
  H   H30       1.0  0.20752  0.38388  0.52360  1.0000
  H   H31       1.0  0.67445  0.87388  0.39527  1.0000
  H   H32       1.0  0.32555  0.12612  0.60473  1.0000
  H   H33       1.0  0.00885  0.85433  0.48896  1.0000
  H   H34       1.0  0.99115  0.14567  0.51105  1.0000
  H   H35       1.0  0.85316  0.00355  0.38691  1.0000
  H   H36       1.0  0.14684  0.99645  0.61309  1.0000
  C   C1        1.0  0.75835  0.34836  0.90618  1.0000
  C   C2        1.0  0.24164  0.65163  0.09382  1.0000
  C   C3        1.0  0.70264  0.48473  0.83871  1.0000
  C   C4        1.0  0.29736  0.51527  0.16129  1.0000
  C   C5        1.0  0.77523  0.50759  0.73825  1.0000
  C   C6        1.0  0.22476  0.49241  0.26175  1.0000
  C   C7        1.0  0.90016  0.38822  0.71098  1.0000
  C   C8        1.0  0.09983  0.61178  0.28902  1.0000
  C   C9        1.0  0.95027  0.25523  0.78326  1.0000
  C   C10       1.0  0.04973  0.74477  0.21673  1.0000
  C   C11       1.0  0.01308  0.81480  0.81670  1.0000
  C   C12       1.0  0.98692  0.18520  0.18330  1.0000
  C   C13       1.0  0.96088  0.74994  0.74956  1.0000
  C   C14       1.0  0.03912  0.25006  0.25044  1.0000
  C   C15       1.0  0.78824  0.78988  0.72786  1.0000
  C   C16       1.0  0.21176  0.21012  0.27214  1.0000
  C   C17       1.0  0.67648  0.89691  0.77499  1.0000
  C   C18       1.0  0.32352  0.10309  0.22501  1.0000
  C   C19       1.0  0.73846  0.95491  0.84335  1.0000
  C   C20       1.0  0.26154  0.04509  0.15665  1.0000
  C   C21       1.0  0.47826  0.77789  0.62105  1.0000
  C   C22       1.0  0.52174  0.22211  0.37895  1.0000
  C   C23       1.0  0.41934  0.69266  0.56585  1.0000
  C   C24       1.0  0.58067  0.30734  0.43415  1.0000
  C   C25       1.0  0.35995  0.73171  0.46146  1.0000
  C   C26       1.0  0.64005  0.26829  0.53854  1.0000
  C   C27       1.0  0.82938  0.68141  0.51837  1.0000
  C   C28       1.0  0.17062  0.31859  0.48163  1.0000
  C   C29       1.0  0.79203  0.82564  0.44634  1.0000
  C   C30       1.0  0.20797  0.17436  0.55366  1.0000
  C   C31       1.0  0.88910  0.89822  0.44109  1.0000
  C   C32       1.0  0.11090  0.10178  0.55891  1.0000
  Br  Br1       1.0  0.69786  0.06788  0.09936  1.0000
  Br  Br2       1.0  0.30215  0.93212  0.90064  1.0000
  N   N1        1.0  0.88156  0.23581  0.87962  1.0000
  N   N2        1.0  0.11844  0.76418  0.12038  1.0000
  N   N3        1.0  0.90379  0.91433  0.86420  1.0000
  N   N4        1.0  0.09621  0.08567  0.13580  1.0000
