data_image0
_chemical_formula_structural       Cd4H16C32N16O16
_chemical_formula_sum              "Cd4 H16 C32 N16 O16"
_cell_length_a       7.32182
_cell_length_b       11.8415
_cell_length_c       12.1866
_cell_angle_alpha    84.6726
_cell_angle_beta     72.5183
_cell_angle_gamma    71.9898

_space_group_name_H-M_alt    "P 1"
_space_group_IT_number       1

loop_
  _space_group_symop_operation_xyz
  'x, y, z'

loop_
  _atom_site_type_symbol
  _atom_site_label
  _atom_site_symmetry_multiplicity
  _atom_site_fract_x
  _atom_site_fract_y
  _atom_site_fract_z
  _atom_site_occupancy
  Cd  Cd1       1.0  0.77954  0.67054  0.02337  1.0000
  Cd  Cd2       1.0  0.47315  0.32947  0.97668  1.0000
  Cd  Cd3       1.0  0.19972  0.82958  0.52326  1.0000
  Cd  Cd4       1.0  0.55251  0.17048  0.47673  1.0000
  H   H1        1.0  0.64332  0.86312  0.43167  1.0000
  H   H2        1.0  0.93827  0.13684  0.56842  1.0000
  H   H3        1.0  0.25724  0.63668  0.93126  1.0000
  H   H4        1.0  0.82510  0.36330  0.06867  1.0000
  H   H5        1.0  0.09686  0.83110  0.11418  1.0000
  H   H6        1.0  0.04199  0.16898  0.88594  1.0000
  H   H7        1.0  0.67812  0.66928  0.61371  1.0000
  H   H8        1.0  0.96130  0.33064  0.38613  1.0000
  H   H9        1.0  0.96352  0.91180  0.31915  1.0000
  H   H10       1.0  0.19442  0.08830  0.68099  1.0000
  H   H11       1.0  0.62593  0.58837  0.81861  1.0000
  H   H12       1.0  0.03289  0.41158  0.18122  1.0000
  H   H13       1.0  0.08863  0.53064  0.29907  1.0000
  H   H14       1.0  0.91831  0.46943  0.70082  1.0000
  H   H15       1.0  0.36928  0.96939  0.79923  1.0000
  H   H16       1.0  0.13771  0.03069  0.20082  1.0000
  C   C1        1.0  0.36389  0.52320  0.14632  1.0000
  C   C2        1.0  0.03335  0.47681  0.85365  1.0000
  C   C3        1.0  0.63689  0.97674  0.64645  1.0000
  C   C4        1.0  0.26003  0.02328  0.35359  1.0000
  C   C5        1.0  0.39810  0.59970  0.22216  1.0000
  C   C6        1.0  0.21987  0.40035  0.77781  1.0000
  C   C7        1.0  0.74778  0.90026  0.72220  1.0000
  C   C8        1.0  0.37027  0.09968  0.27778  1.0000
  C   C9        1.0  0.28303  0.64549  0.33257  1.0000
  C   C10       1.0  0.26109  0.35461  0.66738  1.0000
  C   C11       1.0  0.67871  0.85455  0.83267  1.0000
  C   C12       1.0  0.36580  0.14546  0.16735  1.0000
  C   C13       1.0  0.09065  0.63614  0.41046  1.0000
  C   C14       1.0  0.13727  0.36386  0.58951  1.0000
  C   C15       1.0  0.47702  0.86386  0.91059  1.0000
  C   C16       1.0  0.25136  0.13613  0.08942  1.0000
  C   C17       1.0  0.54324  0.71034  0.27676  1.0000
  C   C18       1.0  0.53026  0.28963  0.72327  1.0000
  C   C19       1.0  0.00376  0.78964  0.77667  1.0000
  C   C20       1.0  0.57004  0.21033  0.22330  1.0000
  C   C21       1.0  0.69243  0.76994  0.26715  1.0000
  C   C22       1.0  0.72940  0.22998  0.73294  1.0000
  C   C23       1.0  0.21263  0.73006  0.76691  1.0000
  C   C24       1.0  0.70953  0.26995  0.23304  1.0000
  C   C25       1.0  0.72364  0.83574  0.34373  1.0000
  C   C26       1.0  0.90308  0.16422  0.65638  1.0000
  C   C27       1.0  0.30991  0.66420  0.84334  1.0000
  C   C28       1.0  0.81739  0.33578  0.15657  1.0000
  C   C29       1.0  0.96274  0.82020  0.17775  1.0000
  C   C30       1.0  0.96055  0.17984  0.82237  1.0000
  C   C31       1.0  0.53317  0.68002  0.67733  1.0000
  C   C32       1.0  0.89063  0.31991  0.32255  1.0000
  N   N1        1.0  0.56123  0.64092  0.18972  1.0000
  N   N2        1.0  0.39175  0.35903  0.81031  1.0000
  N   N3        1.0  0.95214  0.85898  0.68964  1.0000
  N   N4        1.0  0.50089  0.14091  0.31030  1.0000
  N   N5        1.0  0.37670  0.71538  0.36485  1.0000
  N   N6        1.0  0.45693  0.28469  0.63511  1.0000
  N   N7        1.0  0.84238  0.78472  0.86492  1.0000
  N   N8        1.0  0.49176  0.21536  0.13514  1.0000
  N   N9        1.0  0.84353  0.76130  0.16371  1.0000
  N   N10       1.0  0.76836  0.23865  0.83639  1.0000
  N   N11       1.0  0.35493  0.73883  0.66342  1.0000
  N   N12       1.0  0.75724  0.26114  0.33650  1.0000
  N   N13       1.0  0.89360  0.86606  0.28577  1.0000
  N   N14       1.0  0.04536  0.13399  0.71436  1.0000
  N   N15       1.0  0.51016  0.63404  0.78528  1.0000
  N   N16       1.0  0.92952  0.36589  0.21459  1.0000
  O   O1        1.0  0.48840  0.49747  0.04664  1.0000
  O   O2        1.0  0.03248  0.50237  0.95338  1.0000
  O   O3        1.0  0.73556  0.00243  0.54672  1.0000
  O   O4        1.0  0.28463  0.99768  0.45334  1.0000
  O   O5        1.0  0.21049  0.48502  0.18444  1.0000
  O   O6        1.0  0.87996  0.51515  0.81550  1.0000
  O   O7        1.0  0.44534  0.01504  0.68465  1.0000
  O   O8        1.0  0.14480  0.98507  0.31545  1.0000
  O   O9        1.0  0.00278  0.56770  0.37998  1.0000
  O   O10       1.0  0.95038  0.43224  0.62000  1.0000
  O   O11       1.0  0.32063  0.93221  0.88013  1.0000
  O   O12       1.0  0.13281  0.06781  0.11993  1.0000
  O   O13       1.0  0.01145  0.69355  0.50237  1.0000
  O   O14       1.0  0.20737  0.30639  0.49764  1.0000
  O   O15       1.0  0.45533  0.80640  0.00247  1.0000
  O   O16       1.0  0.26429  0.19346  0.99746  1.0000
