data_image0
_chemical_formula_structural       Mg2H48C24O4
_chemical_formula_sum              "Mg2 H48 C24 O4"
_cell_length_a       7.59165
_cell_length_b       7.7178
_cell_length_c       11.5464
_cell_angle_alpha    85.6874
_cell_angle_beta     81.5049
_cell_angle_gamma    69.9972

_space_group_name_H-M_alt    "P 1"
_space_group_IT_number       1

loop_
  _space_group_symop_operation_xyz
  'x, y, z'

loop_
  _atom_site_type_symbol
  _atom_site_label
  _atom_site_symmetry_multiplicity
  _atom_site_fract_x
  _atom_site_fract_y
  _atom_site_fract_z
  _atom_site_occupancy
  Mg  Mg1       1.0  0.27666  0.84426  0.26964  1.0000
  Mg  Mg2       1.0  0.72334  0.15574  0.73036  1.0000
  H   H1        1.0  0.09834  0.67863  0.44448  1.0000
  H   H2        1.0  0.90166  0.32137  0.55552  1.0000
  H   H3        1.0  0.31238  0.66954  0.48785  1.0000
  H   H4        1.0  0.68762  0.33046  0.51215  1.0000
  H   H5        1.0  0.02526  0.88505  0.61401  1.0000
  H   H6        1.0  0.97474  0.11495  0.38598  1.0000
  H   H7        1.0  0.17980  0.99672  0.54552  1.0000
  H   H8        1.0  0.82019  0.00329  0.45448  1.0000
  H   H9        1.0  0.32210  0.86592  0.03392  1.0000
  H   H10       1.0  0.67790  0.13407  0.96607  1.0000
  H   H11       1.0  0.19926  0.71155  0.07281  1.0000
  H   H12       1.0  0.80074  0.28845  0.92719  1.0000
  H   H13       1.0  0.89573  0.98296  0.12199  1.0000
  H   H14       1.0  0.10427  0.01704  0.87801  1.0000
  H   H15       1.0  0.02102  0.13488  0.08232  1.0000
  H   H16       1.0  0.97898  0.86512  0.91768  1.0000
  H   H17       1.0  0.23152  0.24372  0.11871  1.0000
  H   H18       1.0  0.76848  0.75628  0.88129  1.0000
  H   H19       1.0  0.47072  0.09140  0.10487  1.0000
  H   H20       1.0  0.52928  0.90861  0.89513  1.0000
  H   H21       1.0  0.31037  0.48004  0.19807  1.0000
  H   H22       1.0  0.68963  0.51997  0.80193  1.0000
  H   H23       1.0  0.54132  0.36333  0.12741  1.0000
  H   H24       1.0  0.45868  0.63667  0.87259  1.0000
  H   H25       1.0  0.48262  0.40316  0.36500  1.0000
  H   H26       1.0  0.51737  0.59684  0.63500  1.0000
  H   H27       1.0  0.63731  0.18972  0.30557  1.0000
  H   H28       1.0  0.36269  0.81028  0.69443  1.0000
  H   H29       1.0  0.40915  0.08133  0.43345  1.0000
  H   H30       1.0  0.59085  0.91866  0.56655  1.0000
  H   H31       1.0  0.21823  0.28717  0.40702  1.0000
  H   H32       1.0  0.78177  0.71283  0.59298  1.0000
  H   H33       1.0  0.70734  0.81843  0.10483  1.0000
  H   H34       1.0  0.29266  0.18157  0.89517  1.0000
  H   H35       1.0  0.61291  0.64812  0.06980  1.0000
  H   H36       1.0  0.38709  0.35188  0.93020  1.0000
  H   H37       1.0  0.88287  0.40216  0.12605  1.0000
  H   H38       1.0  0.11713  0.59784  0.87395  1.0000
  H   H39       1.0  0.99587  0.57134  0.10106  1.0000
  H   H40       1.0  0.00413  0.42866  0.89894  1.0000
  H   H41       1.0  0.00466  0.57178  0.30591  1.0000
  H   H42       1.0  0.99534  0.42822  0.69409  1.0000
  H   H43       1.0  0.88904  0.40479  0.32766  1.0000
  H   H44       1.0  0.11097  0.59521  0.67234  1.0000
  H   H45       1.0  0.62874  0.65338  0.41525  1.0000
  H   H46       1.0  0.37126  0.34661  0.58475  1.0000
  H   H47       1.0  0.71807  0.82227  0.33636  1.0000
  H   H48       1.0  0.28193  0.17772  0.66364  1.0000
  C   C1        1.0  0.19010  0.76296  0.44685  1.0000
  C   C2        1.0  0.80990  0.23704  0.55315  1.0000
  C   C3        1.0  0.08245  0.92714  0.52616  1.0000
  C   C4        1.0  0.91755  0.07287  0.47384  1.0000
  C   C5        1.0  0.20187  0.84792  0.09515  1.0000
  C   C6        1.0  0.79813  0.15209  0.90485  1.0000
  C   C7        1.0  0.02033  0.99655  0.06380  1.0000
  C   C8        1.0  0.97966  0.00346  0.93620  1.0000
  C   C9        1.0  0.36068  0.19384  0.16101  1.0000
  C   C10       1.0  0.63932  0.80616  0.83898  1.0000
  C   C11       1.0  0.42699  0.34761  0.19283  1.0000
  C   C12       1.0  0.57301  0.65239  0.80717  1.0000
  C   C13       1.0  0.49121  0.28616  0.31359  1.0000
  C   C14       1.0  0.50879  0.71384  0.68641  1.0000
  C   C15       1.0  0.35387  0.18947  0.36800  1.0000
  C   C16       1.0  0.64613  0.81052  0.63200  1.0000
  C   C17       1.0  0.68933  0.68472  0.13209  1.0000
  C   C18       1.0  0.31067  0.31528  0.86791  1.0000
  C   C19       1.0  0.87781  0.53759  0.15240  1.0000
  C   C20       1.0  0.12219  0.46241  0.84760  1.0000
  C   C21       1.0  0.88313  0.53871  0.28588  1.0000
  C   C22       1.0  0.11687  0.46129  0.71412  1.0000
  C   C23       1.0  0.69823  0.68801  0.33108  1.0000
  C   C24       1.0  0.30177  0.31199  0.66892  1.0000
  O   O1        1.0  0.31965  0.10013  0.27122  1.0000
  O   O2        1.0  0.68035  0.89987  0.72878  1.0000
  O   O3        1.0  0.57253  0.70364  0.24477  1.0000
  O   O4        1.0  0.42747  0.29636  0.75523  1.0000
