data_image0
_chemical_formula_structural       Zn2H36C44N8O8
_chemical_formula_sum              "Zn2 H36 C44 N8 O8"
_cell_length_a       8.10791
_cell_length_b       11.3706
_cell_length_c       11.73
_cell_angle_alpha    99.616
_cell_angle_beta     107.097
_cell_angle_gamma    95.2559

_space_group_name_H-M_alt    "P 1"
_space_group_IT_number       1

loop_
  _space_group_symop_operation_xyz
  'x, y, z'

loop_
  _atom_site_type_symbol
  _atom_site_label
  _atom_site_symmetry_multiplicity
  _atom_site_fract_x
  _atom_site_fract_y
  _atom_site_fract_z
  _atom_site_occupancy
  Zn  Zn1       1.0  0.27303  0.33983  0.24612  1.0000
  Zn  Zn2       1.0  0.72697  0.66019  0.75389  1.0000
  H   H1        1.0  0.62477  0.99086  0.40868  1.0000
  H   H2        1.0  0.37521  0.00915  0.59130  1.0000
  H   H3        1.0  0.55504  0.78041  0.29657  1.0000
  H   H4        1.0  0.44495  0.21960  0.70341  1.0000
  H   H5        1.0  0.03651  0.71276  0.14690  1.0000
  H   H6        1.0  0.96349  0.28723  0.85308  1.0000
  H   H7        1.0  0.31516  0.83441  0.16981  1.0000
  H   H8        1.0  0.68483  0.16559  0.83018  1.0000
  H   H9        1.0  0.38914  0.04569  0.28783  1.0000
  H   H10       1.0  0.61085  0.95431  0.71216  1.0000
  H   H11       1.0  0.18521  0.13628  0.38085  1.0000
  H   H12       1.0  0.81478  0.86372  0.61915  1.0000
  H   H13       1.0  0.97788  0.17903  0.52003  1.0000
  H   H14       1.0  0.02212  0.82097  0.47995  1.0000
  H   H15       1.0  0.96562  0.21365  0.37711  1.0000
  H   H16       1.0  0.03437  0.78635  0.62287  1.0000
  H   H17       1.0  0.76662  0.25431  0.61378  1.0000
  H   H18       1.0  0.23339  0.74567  0.38621  1.0000
  H   H19       1.0  0.45661  0.34840  0.52840  1.0000
  H   H20       1.0  0.54340  0.65160  0.47161  1.0000
  H   H21       1.0  0.61364  0.20444  0.22850  1.0000
  H   H22       1.0  0.38635  0.79557  0.77148  1.0000
  H   H23       1.0  0.14022  0.96610  0.94092  1.0000
  H   H24       1.0  0.85979  0.03392  0.05908  1.0000
  H   H25       1.0  0.89812  0.58305  0.42387  1.0000
  H   H26       1.0  0.10188  0.41691  0.57618  1.0000
  H   H27       1.0  0.38603  0.68526  0.02041  1.0000
  H   H28       1.0  0.61395  0.31473  0.97958  1.0000
  H   H29       1.0  0.14011  0.53111  0.07339  1.0000
  H   H30       1.0  0.85988  0.46890  0.92661  1.0000
  H   H31       1.0  0.64687  0.47924  0.26656  1.0000
  H   H32       1.0  0.35313  0.52077  0.73344  1.0000
  H   H33       1.0  0.82859  0.60324  0.17969  1.0000
  H   H34       1.0  0.17140  0.39676  0.82030  1.0000
  H   H35       1.0  0.72365  0.67655  0.06038  1.0000
  H   H36       1.0  0.27635  0.32344  0.93961  1.0000
  C   C1        1.0  0.71530  0.95505  0.36413  1.0000
  C   C2        1.0  0.28470  0.04495  0.63587  1.0000
  C   C3        1.0  0.67558  0.83390  0.30010  1.0000
  C   C4        1.0  0.32443  0.16609  0.69990  1.0000
  C   C5        1.0  0.78177  0.78535  0.23777  1.0000
  C   C6        1.0  0.21823  0.21464  0.76223  1.0000
  C   C7        1.0  0.94414  0.85488  0.24953  1.0000
  C   C8        1.0  0.05586  0.14512  0.75045  1.0000
  C   C9        1.0  0.06654  0.80548  0.19764  1.0000
  C   C10       1.0  0.93346  0.19452  0.80234  1.0000
  C   C11       1.0  0.22384  0.87297  0.21174  1.0000
  C   C12       1.0  0.77616  0.12702  0.78825  1.0000
  C   C13       1.0  0.26601  0.99238  0.27892  1.0000
  C   C14       1.0  0.73398  0.00762  0.72107  1.0000
  C   C15       1.0  0.14964  0.04371  0.32954  1.0000
  C   C16       1.0  0.85036  0.95629  0.67045  1.0000
  C   C17       1.0  0.98558  0.97783  0.31602  1.0000
  C   C18       1.0  0.01442  0.02217  0.68397  1.0000
  C   C19       1.0  0.86215  0.02882  0.36745  1.0000
  C   C20       1.0  0.13785  0.97117  0.63254  1.0000
  C   C21       1.0  0.89546  0.16190  0.42416  1.0000
  C   C22       1.0  0.10453  0.83809  0.57582  1.0000
  C   C23       1.0  0.68821  0.25857  0.52262  1.0000
  C   C24       1.0  0.31180  0.74143  0.47737  1.0000
  C   C25       1.0  0.53621  0.30448  0.47966  1.0000
  C   C26       1.0  0.46380  0.69552  0.52034  1.0000
  C   C27       1.0  0.61448  0.23322  0.32170  1.0000
  C   C28       1.0  0.38552  0.76679  0.67829  1.0000
  C   C29       1.0  0.17918  0.14074  0.06571  1.0000
  C   C30       1.0  0.82083  0.85928  0.93430  1.0000
  C   C31       1.0  0.07818  0.02113  0.99677  1.0000
  C   C32       1.0  0.92184  0.97889  0.00325  1.0000
  C   C33       1.0  0.98375  0.51573  0.44564  1.0000
  C   C34       1.0  0.01626  0.48423  0.55441  1.0000
  C   C35       1.0  0.05738  0.46353  0.34928  1.0000
  C   C36       1.0  0.94262  0.53645  0.65075  1.0000
  C   C37       1.0  0.40040  0.62014  0.07911  1.0000
  C   C38       1.0  0.59959  0.37985  0.92088  1.0000
  C   C39       1.0  0.28129  0.54349  0.10495  1.0000
  C   C40       1.0  0.71870  0.45651  0.89506  1.0000
  C   C41       1.0  0.54009  0.51416  0.20870  1.0000
  C   C42       1.0  0.45990  0.48585  0.79130  1.0000
  C   C43       1.0  0.73144  0.66355  0.15263  1.0000
  C   C44       1.0  0.26855  0.33645  0.84737  1.0000
  N   N1        1.0  0.73607  0.21401  0.42194  1.0000
  N   N2        1.0  0.26393  0.78599  0.57805  1.0000
  N   N3        1.0  0.49150  0.28800  0.35431  1.0000
  N   N4        1.0  0.50850  0.71201  0.64569  1.0000
  N   N5        1.0  0.56328  0.60037  0.14584  1.0000
  N   N6        1.0  0.43671  0.39963  0.85416  1.0000
  N   N7        1.0  0.37023  0.47787  0.18577  1.0000
  N   N8        1.0  0.62977  0.52214  0.81424  1.0000
  O   O1        1.0  0.33202  0.16873  0.06368  1.0000
  O   O2        1.0  0.66799  0.83129  0.93632  1.0000
  O   O3        1.0  0.10279  0.21026  0.12775  1.0000
  O   O4        1.0  0.89723  0.78976  0.87226  1.0000
  O   O5        1.0  0.17074  0.39146  0.37880  1.0000
  O   O6        1.0  0.82928  0.60853  0.62122  1.0000
  O   O7        1.0  0.00650  0.49107  0.24649  1.0000
  O   O8        1.0  0.99350  0.50892  0.75355  1.0000
