data_image0
_chemical_formula_structural       Na2H10C10N4O8
_chemical_formula_sum              "Na2 H10 C10 N4 O8"
_cell_length_a       3.56815
_cell_length_b       10.2208
_cell_length_c       10.8182
_cell_angle_alpha    108.958
_cell_angle_beta     98.6392
_cell_angle_gamma    96.2094

_space_group_name_H-M_alt    "P 1"
_space_group_IT_number       1

loop_
  _space_group_symop_operation_xyz
  'x, y, z'

loop_
  _atom_site_type_symbol
  _atom_site_label
  _atom_site_symmetry_multiplicity
  _atom_site_fract_x
  _atom_site_fract_y
  _atom_site_fract_z
  _atom_site_occupancy
  Na  Na1       1.0  0.26102  0.61414  0.92519  1.0000
  Na  Na2       1.0  0.73890  0.38585  0.07480  1.0000
  H   H1        1.0  0.71143  0.88016  0.45576  1.0000
  H   H2        1.0  0.28858  0.11985  0.54427  1.0000
  H   H3        1.0  0.25761  0.57813  0.38143  1.0000
  H   H4        1.0  0.74243  0.42186  0.61856  1.0000
  H   H5        1.0  0.58755  0.76721  0.23397  1.0000
  H   H6        1.0  0.41243  0.23279  0.76602  1.0000
  H   H7        1.0  0.79350  0.83015  0.91476  1.0000
  H   H8        1.0  0.20647  0.16986  0.08524  1.0000
  H   H9        1.0  0.97697  0.86456  0.06185  1.0000
  H   H10       1.0  0.02300  0.13545  0.93815  1.0000
  C   C1        1.0  0.40063  0.71569  0.66050  1.0000
  C   C2        1.0  0.59944  0.28429  0.33952  1.0000
  C   C3        1.0  0.56783  0.81451  0.61115  1.0000
  C   C4        1.0  0.43226  0.18548  0.38886  1.0000
  C   C5        1.0  0.56679  0.79143  0.47555  1.0000
  C   C6        1.0  0.43327  0.20857  0.52447  1.0000
  C   C7        1.0  0.40561  0.67120  0.36971  1.0000
  C   C8        1.0  0.59440  0.32880  0.63028  1.0000
  C   C9        1.0  0.43421  0.66979  0.23970  1.0000
  C   C10       1.0  0.56574  0.33021  0.76029  1.0000
  N   N1        1.0  0.26144  0.63352  0.70167  1.0000
  N   N2        1.0  0.73864  0.36646  0.29831  1.0000
  N   N3        1.0  0.74819  0.94300  0.70805  1.0000
  N   N4        1.0  0.25184  0.05701  0.29197  1.0000
  O   O1        1.0  0.91054  0.03829  0.67559  1.0000
  O   O2        1.0  0.08944  0.96172  0.32441  1.0000
  O   O3        1.0  0.74128  0.96093  0.83034  1.0000
  O   O4        1.0  0.25869  0.03908  0.16966  1.0000
  O   O5        1.0  0.30188  0.56736  0.13278  1.0000
  O   O6        1.0  0.69801  0.43266  0.86722  1.0000
  O   O7        1.0  0.84727  0.78431  0.98132  1.0000
  O   O8        1.0  0.15269  0.21569  0.01867  1.0000
