data_image0
_chemical_formula_structural       Hg2H28C26N8Cl4O2
_chemical_formula_sum              "Hg2 H28 C26 N8 Cl4 O2"
_cell_length_a       4.44513
_cell_length_b       14.4145
_cell_length_c       15.1338
_cell_angle_alpha    106.269
_cell_angle_beta     90.0001
_cell_angle_gamma    89.9999

_space_group_name_H-M_alt    "P 1"
_space_group_IT_number       1

loop_
  _space_group_symop_operation_xyz
  'x, y, z'

loop_
  _atom_site_type_symbol
  _atom_site_label
  _atom_site_symmetry_multiplicity
  _atom_site_fract_x
  _atom_site_fract_y
  _atom_site_fract_z
  _atom_site_occupancy
  Hg  Hg1       1.0  0.30027  0.25000  0.25000  1.0000
  Hg  Hg2       1.0  0.69973  0.75000  0.75000  1.0000
  H   H1        1.0  0.94097  0.16015  0.38760  1.0000
  H   H2        1.0  0.94097  0.33985  0.11240  1.0000
  H   H3        1.0  0.05903  0.83985  0.61240  1.0000
  H   H4        1.0  0.05903  0.66015  0.88760  1.0000
  H   H5        1.0  0.77298  0.20672  0.55244  1.0000
  H   H6        1.0  0.77298  0.29328  0.94756  1.0000
  H   H7        1.0  0.22702  0.79328  0.44755  1.0000
  H   H8        1.0  0.22702  0.70673  0.05244  1.0000
  H   H9        1.0  0.21020  0.48171  0.58720  1.0000
  H   H10       1.0  0.21020  0.01830  0.91281  1.0000
  H   H11       1.0  0.78980  0.51829  0.41280  1.0000
  H   H12       1.0  0.78980  0.98171  0.08720  1.0000
  H   H13       1.0  0.36461  0.42310  0.42014  1.0000
  H   H14       1.0  0.36460  0.07690  0.07986  1.0000
  H   H15       1.0  0.63540  0.57690  0.57986  1.0000
  H   H16       1.0  0.63539  0.92310  0.92014  1.0000
  H   H17       1.0  0.06589  0.41699  0.72524  1.0000
  H   H18       1.0  0.06589  0.08301  0.77476  1.0000
  H   H19       1.0  0.93411  0.58301  0.27476  1.0000
  H   H20       1.0  0.93411  0.91699  0.22524  1.0000
  H   H21       1.0  0.71377  0.44559  0.68829  1.0000
  H   H22       1.0  0.71377  0.05441  0.81171  1.0000
  H   H23       1.0  0.28623  0.55441  0.31171  1.0000
  H   H24       1.0  0.28623  0.94559  0.18829  1.0000
  H   H25       1.0  0.49686  0.30923  0.72036  1.0000
  H   H26       1.0  0.49686  0.19077  0.77964  1.0000
  H   H27       1.0  0.50314  0.69077  0.27964  1.0000
  H   H28       1.0  0.50314  0.80923  0.22036  1.0000
  C   C1        1.0  0.99875  0.23001  0.43488  1.0000
  C   C2        1.0  0.99875  0.26998  0.06512  1.0000
  C   C3        1.0  0.00126  0.76999  0.56512  1.0000
  C   C4        1.0  0.00125  0.73001  0.93488  1.0000
  C   C5        1.0  0.90448  0.25713  0.52622  1.0000
  C   C6        1.0  0.90447  0.24287  0.97378  1.0000
  C   C7        1.0  0.09553  0.74287  0.47378  1.0000
  C   C8        1.0  0.09552  0.75713  0.02622  1.0000
  C   C9        1.0  0.97556  0.34899  0.58307  1.0000
  C   C10       1.0  0.97556  0.15102  0.91693  1.0000
  C   C11       1.0  0.02444  0.65101  0.41693  1.0000
  C   C12       1.0  0.02443  0.84898  0.08307  1.0000
  C   C13       1.0  0.14669  0.40978  0.54487  1.0000
  C   C14       1.0  0.14668  0.09022  0.95513  1.0000
  C   C15       1.0  0.85332  0.59022  0.45513  1.0000
  C   C16       1.0  0.85332  0.90978  0.04487  1.0000
  C   C17       1.0  0.23299  0.37839  0.45332  1.0000
  C   C18       1.0  0.23298  0.12161  0.04668  1.0000
  C   C19       1.0  0.76701  0.62161  0.54668  1.0000
  C   C20       1.0  0.76701  0.87839  0.95332  1.0000
  C   C21       1.0  0.87191  0.38507  0.68204  1.0000
  C   C22       1.0  0.87191  0.11493  0.81796  1.0000
  C   C23       1.0  0.12809  0.61493  0.31796  1.0000
  C   C24       1.0  0.12809  0.88507  0.18204  1.0000
  C   C25       1.0  0.88830  0.25000  0.75000  1.0000
  C   C26       1.0  0.11170  0.75000  0.25000  1.0000
  N   N1        1.0  0.15820  0.29022  0.39918  1.0000
  N   N2        1.0  0.15819  0.20978  0.10082  1.0000
  N   N3        1.0  0.84180  0.70978  0.60082  1.0000
  N   N4        1.0  0.84180  0.79023  0.89918  1.0000
  N   N5        1.0  0.72712  0.31383  0.71776  1.0000
  N   N6        1.0  0.72712  0.18617  0.78224  1.0000
  N   N7        1.0  0.27288  0.68617  0.28224  1.0000
  N   N8        1.0  0.27288  0.81383  0.21776  1.0000
  Cl  Cl1       1.0  0.64329  0.39954  0.26222  1.0000
  Cl  Cl2       1.0  0.64329  0.10046  0.23778  1.0000
  Cl  Cl3       1.0  0.35671  0.60046  0.73778  1.0000
  Cl  Cl4       1.0  0.35671  0.89954  0.76222  1.0000
  O   O1        1.0  0.17182  0.25000  0.75000  1.0000
  O   O2        1.0  0.82818  0.75000  0.25000  1.0000
