data_image0
_chemical_formula_structural       Cd2H40C34N8O10
_chemical_formula_sum              "Cd2 H40 C34 N8 O10"
_cell_length_a       9.00059
_cell_length_b       9.28039
_cell_length_c       10.9576
_cell_angle_alpha    96.1624
_cell_angle_beta     90.0002
_cell_angle_gamma    89.9999

_space_group_name_H-M_alt    "P 1"
_space_group_IT_number       1

loop_
  _space_group_symop_operation_xyz
  'x, y, z'

loop_
  _atom_site_type_symbol
  _atom_site_label
  _atom_site_symmetry_multiplicity
  _atom_site_fract_x
  _atom_site_fract_y
  _atom_site_fract_z
  _atom_site_occupancy
  Cd  Cd1       1.0  0.67691  0.46319  0.44993  1.0000
  Cd  Cd2       1.0  0.32309  0.96319  0.94993  1.0000
  H   H1        1.0  0.08702  0.59045  0.49035  1.0000
  H   H2        1.0  0.91298  0.09045  0.99035  1.0000
  H   H3        1.0  0.08838  0.33862  0.41246  1.0000
  H   H4        1.0  0.91162  0.83862  0.91246  1.0000
  H   H5        1.0  0.53710  0.94443  0.19055  1.0000
  H   H6        1.0  0.46291  0.44443  0.69055  1.0000
  H   H7        1.0  0.52680  0.84358  0.39507  1.0000
  H   H8        1.0  0.47320  0.34358  0.89507  1.0000
  H   H9        1.0  0.06515  0.74533  0.32273  1.0000
  H   H10       1.0  0.93485  0.24533  0.82273  1.0000
  H   H11       1.0  0.09554  0.84561  0.12021  1.0000
  H   H12       1.0  0.90446  0.34561  0.62021  1.0000
  H   H13       1.0  0.38968  0.71395  0.53787  1.0000
  H   H14       1.0  0.61032  0.21395  0.03787  1.0000
  H   H15       1.0  0.21576  0.80295  0.56077  1.0000
  H   H16       1.0  0.78425  0.30295  0.06078  1.0000
  H   H17       1.0  0.21763  0.12845  0.33953  1.0000
  H   H18       1.0  0.78237  0.62846  0.83953  1.0000
  H   H19       1.0  0.39104  0.21765  0.36489  1.0000
  H   H20       1.0  0.60895  0.71765  0.86489  1.0000
  H   H21       1.0  0.09183  0.06454  0.77364  1.0000
  H   H22       1.0  0.90817  0.56453  0.27364  1.0000
  H   H23       1.0  0.06159  0.16450  0.57081  1.0000
  H   H24       1.0  0.93841  0.66450  0.07081  1.0000
  H   H25       1.0  0.53140  0.10018  0.51262  1.0000
  H   H26       1.0  0.46860  0.60018  0.01262  1.0000
  H   H27       1.0  0.54149  0.99913  0.71742  1.0000
  H   H28       1.0  0.45851  0.49914  0.21742  1.0000
  H   H29       1.0  0.94945  0.91414  0.53920  1.0000
  H   H30       1.0  0.05055  0.41414  0.03919  1.0000
  H   H31       1.0  0.94959  0.84112  0.68201  1.0000
  H   H32       1.0  0.05041  0.34112  0.18200  1.0000
  H   H33       1.0  0.79505  0.94736  0.64098  1.0000
  H   H34       1.0  0.20495  0.44736  0.14098  1.0000
  H   H35       1.0  0.86473  0.04443  0.20492  1.0000
  H   H36       1.0  0.13527  0.54443  0.70492  1.0000
  H   H37       1.0  0.79629  0.95722  0.33005  1.0000
  H   H38       1.0  0.20371  0.45722  0.83004  1.0000
  H   H39       1.0  0.98065  0.03200  0.33446  1.0000
  H   H40       1.0  0.01935  0.53200  0.83446  1.0000
  C   C1        1.0  0.43509  0.89825  0.22340  1.0000
  C   C2        1.0  0.56491  0.39824  0.72340  1.0000
  C   C3        1.0  0.42840  0.84401  0.33704  1.0000
  C   C4        1.0  0.57160  0.34401  0.83703  1.0000
  C   C5        1.0  0.29459  0.78701  0.37537  1.0000
  C   C6        1.0  0.70540  0.28701  0.87537  1.0000
  C   C7        1.0  0.17214  0.78781  0.29660  1.0000
  C   C8        1.0  0.82787  0.28781  0.79660  1.0000
  C   C9        1.0  0.18785  0.84285  0.18442  1.0000
  C   C10       1.0  0.81215  0.34285  0.68442  1.0000
  C   C11       1.0  0.27951  0.72622  0.49762  1.0000
  C   C12       1.0  0.72049  0.22622  0.99762  1.0000
  C   C13       1.0  0.27988  0.46502  0.45178  1.0000
  C   C14       1.0  0.72013  0.96502  0.95178  1.0000
  C   C15       1.0  0.28080  0.20370  0.40443  1.0000
  C   C16       1.0  0.71920  0.70370  0.90443  1.0000
  C   C17       1.0  0.18587  0.07475  0.71247  1.0000
  C   C18       1.0  0.81413  0.57475  0.21247  1.0000
  C   C19       1.0  0.17032  0.12955  0.60022  1.0000
  C   C20       1.0  0.82968  0.62955  0.10022  1.0000
  C   C21       1.0  0.29531  0.14020  0.52560  1.0000
  C   C22       1.0  0.70469  0.64020  0.02560  1.0000
  C   C23       1.0  0.43136  0.09232  0.56767  1.0000
  C   C24       1.0  0.56864  0.59232  0.06767  1.0000
  C   C25       1.0  0.43774  0.03786  0.68119  1.0000
  C   C26       1.0  0.56226  0.53786  0.18118  1.0000
  C   C27       1.0  0.80645  0.73010  0.54591  1.0000
  C   C28       1.0  0.19355  0.23010  0.04590  1.0000
  C   C29       1.0  0.80382  0.19145  0.35991  1.0000
  C   C30       1.0  0.19618  0.69145  0.85991  1.0000
  C   C31       1.0  0.87823  0.86720  0.60604  1.0000
  C   C32       1.0  0.12177  0.36720  0.10604  1.0000
  C   C33       1.0  0.86568  0.04695  0.30556  1.0000
  C   C34       1.0  0.13432  0.54694  0.80556  1.0000
  N   N1        1.0  0.31736  0.89647  0.14775  1.0000
  N   N2        1.0  0.68264  0.39647  0.64775  1.0000
  N   N3        1.0  0.20183  0.58824  0.48663  1.0000
  N   N4        1.0  0.79816  0.08825  0.98663  1.0000
  N   N5        1.0  0.20265  0.34137  0.41838  1.0000
  N   N6        1.0  0.79735  0.84137  0.91838  1.0000
  N   N7        1.0  0.31763  0.03063  0.75307  1.0000
  N   N8        1.0  0.68237  0.53063  0.25307  1.0000
  O   O1        1.0  0.41974  0.46580  0.45091  1.0000
  O   O2        1.0  0.58027  0.96580  0.95091  1.0000
  O   O3        1.0  0.66619  0.72176  0.53770  1.0000
  O   O4        1.0  0.33381  0.22176  0.03770  1.0000
  O   O5        1.0  0.89211  0.62497  0.50478  1.0000
  O   O6        1.0  0.10789  0.12497  0.00477  1.0000
  O   O7        1.0  0.66391  0.20582  0.37032  1.0000
  O   O8        1.0  0.33608  0.70582  0.87032  1.0000
  O   O9        1.0  0.89405  0.29595  0.39132  1.0000
  O   O10       1.0  0.10595  0.79595  0.89132  1.0000
