data_image0
_chemical_formula_structural       Cu2H30C26S2N2O8
_chemical_formula_sum              "Cu2 H30 C26 S2 N2 O8"
_cell_length_a       4.96608
_cell_length_b       11.9477
_cell_length_c       12.4541
_cell_angle_alpha    99.4805
_cell_angle_beta     90.0002
_cell_angle_gamma    89.9998

_space_group_name_H-M_alt    "P 1"
_space_group_IT_number       1

loop_
  _space_group_symop_operation_xyz
  'x, y, z'

loop_
  _atom_site_type_symbol
  _atom_site_label
  _atom_site_symmetry_multiplicity
  _atom_site_fract_x
  _atom_site_fract_y
  _atom_site_fract_z
  _atom_site_occupancy
  Cu  Cu1       1.0  0.24920  0.08476  0.07893  1.0000
  Cu  Cu2       1.0  0.74919  0.91524  0.92107  1.0000
  H   H1        1.0  0.25420  0.43139  0.11540  1.0000
  H   H2        1.0  0.75419  0.56861  0.88461  1.0000
  H   H3        1.0  0.01457  0.50239  0.04289  1.0000
  H   H4        1.0  0.51458  0.49761  0.95712  1.0000
  H   H5        1.0  0.19564  0.38145  0.97369  1.0000
  H   H6        1.0  0.69563  0.61855  0.02631  1.0000
  H   H7        1.0  0.94295  0.52050  0.23313  1.0000
  H   H8        1.0  0.44293  0.47949  0.76688  1.0000
  H   H9        1.0  0.29827  0.40909  0.42186  1.0000
  H   H10       1.0  0.79828  0.59092  0.57814  1.0000
  H   H11       1.0  0.65275  0.55116  0.39804  1.0000
  H   H12       1.0  0.15275  0.44883  0.60196  1.0000
  H   H13       1.0  0.06588  0.24307  0.36505  1.0000
  H   H14       1.0  0.56590  0.75693  0.63495  1.0000
  H   H15       1.0  0.73686  0.10381  0.29714  1.0000
  H   H16       1.0  0.23686  0.89619  0.70285  1.0000
  H   H17       1.0  0.19489  0.92934  0.28166  1.0000
  H   H18       1.0  0.69489  0.07066  0.71834  1.0000
  H   H19       1.0  0.11541  0.03237  0.39642  1.0000
  H   H20       1.0  0.61541  0.96764  0.60358  1.0000
  H   H21       1.0  0.74558  0.83464  0.29941  1.0000
  H   H22       1.0  0.24558  0.16536  0.70059  1.0000
  H   H23       1.0  0.65152  0.94684  0.40417  1.0000
  H   H24       1.0  0.15152  0.05316  0.59583  1.0000
  H   H25       1.0  0.35430  0.76406  0.36553  1.0000
  H   H26       1.0  0.85430  0.23594  0.63447  1.0000
  H   H27       1.0  0.07504  0.67009  0.32955  1.0000
  H   H28       1.0  0.57504  0.32990  0.67045  1.0000
  H   H29       1.0  0.25100  0.66894  0.45407  1.0000
  H   H30       1.0  0.75100  0.33106  0.54593  1.0000
  C   C1        1.0  0.10157  0.41942  0.05058  1.0000
  C   C2        1.0  0.60156  0.58058  0.94943  1.0000
  C   C3        1.0  0.75373  0.36426  0.16346  1.0000
  C   C4        1.0  0.25371  0.63574  0.83655  1.0000
  C   C5        1.0  0.78700  0.45896  0.24292  1.0000
  C   C6        1.0  0.28699  0.54104  0.75709  1.0000
  C   C7        1.0  0.42770  0.39707  0.35011  1.0000
  C   C8        1.0  0.92770  0.60293  0.64990  1.0000
  C   C9        1.0  0.62339  0.47558  0.33702  1.0000
  C   C10       1.0  0.12338  0.52441  0.66299  1.0000
  C   C11       1.0  0.38668  0.29912  0.26992  1.0000
  C   C12       1.0  0.88668  0.70088  0.73008  1.0000
  C   C13       1.0  0.54972  0.28085  0.17387  1.0000
  C   C14       1.0  0.04971  0.71915  0.82614  1.0000
  C   C15       1.0  0.17612  0.22220  0.28776  1.0000
  C   C16       1.0  0.67612  0.77780  0.71223  1.0000
  C   C17       1.0  0.78302  0.98553  0.14954  1.0000
  C   C18       1.0  0.28302  0.01447  0.85045  1.0000
  C   C19       1.0  0.90228  0.05496  0.25245  1.0000
  C   C20       1.0  0.40228  0.94504  0.74754  1.0000
  C   C21       1.0  0.02791  0.97648  0.32608  1.0000
  C   C22       1.0  0.52790  0.02352  0.67391  1.0000
  C   C23       1.0  0.82416  0.89754  0.36639  1.0000
  C   C24       1.0  0.32415  0.10247  0.63360  1.0000
  C   C25       1.0  0.18031  0.72318  0.39686  1.0000
  C   C26       1.0  0.68031  0.27682  0.60314  1.0000
  S   S1        1.0  0.95268  0.82450  0.47228  1.0000
  S   S2        1.0  0.45266  0.17550  0.52772  1.0000
  N   N1        1.0  0.10865  0.13071  0.22187  1.0000
  N   N2        1.0  0.60864  0.86929  0.77812  1.0000
  O   O1        1.0  0.57014  0.93216  0.15168  1.0000
  O   O2        1.0  0.07014  0.06784  0.84831  1.0000
  O   O3        1.0  0.92402  0.98576  0.06009  1.0000
  O   O4        1.0  0.42401  0.01425  0.93991  1.0000
  O   O5        1.0  0.52776  0.19630  0.09383  1.0000
  O   O6        1.0  0.02775  0.80369  0.90618  1.0000
  O   O7        1.0  0.89948  0.34034  0.06997  1.0000
  O   O8        1.0  0.39946  0.65966  0.93004  1.0000
