data_image0
_chemical_formula_structural       Na2H32C26S2N2O8
_chemical_formula_sum              "Na2 H32 C26 S2 N2 O8"
_cell_length_a       4.7063
_cell_length_b       10.9852
_cell_length_c       15.415
_cell_angle_alpha    110.421
_cell_angle_beta     90.0002
_cell_angle_gamma    89.9999

_space_group_name_H-M_alt    "P 1"
_space_group_IT_number       1

loop_
  _space_group_symop_operation_xyz
  'x, y, z'

loop_
  _atom_site_type_symbol
  _atom_site_label
  _atom_site_symmetry_multiplicity
  _atom_site_fract_x
  _atom_site_fract_y
  _atom_site_fract_z
  _atom_site_occupancy
  Na  Na1       1.0  0.38178  0.37331  0.95656  1.0000
  Na  Na2       1.0  0.88178  0.62669  0.04344  1.0000
  H   H1        1.0  0.98246  0.60226  0.34253  1.0000
  H   H2        1.0  0.48245  0.39774  0.65747  1.0000
  H   H3        1.0  0.76858  0.42161  0.23964  1.0000
  H   H4        1.0  0.26858  0.57839  0.76036  1.0000
  H   H5        1.0  0.79388  0.01872  0.34913  1.0000
  H   H6        1.0  0.29388  0.98128  0.65087  1.0000
  H   H7        1.0  0.15288  0.81246  0.44275  1.0000
  H   H8        1.0  0.65287  0.18754  0.55725  1.0000
  H   H9        1.0  0.45078  0.00796  0.46930  1.0000
  H   H10       1.0  0.95076  0.99204  0.53069  1.0000
  H   H11       1.0  0.38190  0.35346  0.30229  1.0000
  H   H12       1.0  0.88190  0.64653  0.69771  1.0000
  H   H13       1.0  0.33136  0.18472  0.27619  1.0000
  H   H14       1.0  0.83137  0.81527  0.72381  1.0000
  H   H15       1.0  0.91055  0.19217  0.17333  1.0000
  H   H16       1.0  0.41055  0.80783  0.82667  1.0000
  H   H17       1.0  0.24458  0.23538  0.13789  1.0000
  H   H18       1.0  0.74458  0.76462  0.86211  1.0000
  H   H19       1.0  0.35218  0.40894  0.48463  1.0000
  H   H20       1.0  0.85220  0.59107  0.51537  1.0000
  H   H21       1.0  0.33903  0.23546  0.45537  1.0000
  H   H22       1.0  0.83902  0.76454  0.54463  1.0000
  H   H23       1.0  0.08395  0.33626  0.53307  1.0000
  H   H24       1.0  0.58396  0.66374  0.46693  1.0000
  H   H25       1.0  0.18313  0.95634  0.25101  1.0000
  H   H26       1.0  0.68313  0.04366  0.74898  1.0000
  H   H27       1.0  0.89772  0.01882  0.20123  1.0000
  H   H28       1.0  0.39772  0.98118  0.79877  1.0000
  H   H29       1.0  0.15697  0.91161  0.12732  1.0000
  H   H30       1.0  0.65697  0.08839  0.87268  1.0000
  H   H31       1.0  0.30192  0.50286  0.16689  1.0000
  H   H32       1.0  0.80192  0.49714  0.83311  1.0000
  C   C1        1.0  0.14374  0.60055  0.29095  1.0000
  C   C2        1.0  0.64374  0.39945  0.70905  1.0000
  C   C3        1.0  0.94560  0.39223  0.19013  1.0000
  C   C4        1.0  0.44559  0.60777  0.80987  1.0000
  C   C5        1.0  0.66688  0.93107  0.33641  1.0000
  C   C6        1.0  0.16687  0.06893  0.66359  1.0000
  C   C7        1.0  0.69375  0.82712  0.25450  1.0000
  C   C8        1.0  0.19374  0.17288  0.74550  1.0000
  C   C9        1.0  0.32929  0.70790  0.30746  1.0000
  C   C10       1.0  0.82928  0.29210  0.69254  1.0000
  C   C11       1.0  0.82695  0.36765  0.09137  1.0000
  C   C12       1.0  0.32695  0.63235  0.90863  1.0000
  C   C13       1.0  0.52848  0.70955  0.23640  1.0000
  C   C14       1.0  0.02848  0.29045  0.76360  1.0000
  C   C15       1.0  0.30634  0.81673  0.39086  1.0000
  C   C16       1.0  0.80632  0.18327  0.60914  1.0000
  C   C17       1.0  0.47144  0.92528  0.40521  1.0000
  C   C18       1.0  0.97143  0.07473  0.59479  1.0000
  C   C19       1.0  0.22091  0.27595  0.28319  1.0000
  C   C20       1.0  0.72091  0.72405  0.71681  1.0000
  C   C21       1.0  0.08005  0.26556  0.19193  1.0000
  C   C22       1.0  0.58005  0.73444  0.80807  1.0000
  C   C23       1.0  0.21191  0.32442  0.47120  1.0000
  C   C24       1.0  0.71193  0.67558  0.52881  1.0000
  C   C25       1.0  0.03684  0.93477  0.19196  1.0000
  C   C26       1.0  0.53683  0.06523  0.80804  1.0000
  S   S1        1.0  0.96768  0.30996  0.37779  1.0000
  S   S2        1.0  0.46769  0.69004  0.62221  1.0000
  N   N1        1.0  0.14934  0.49788  0.21485  1.0000
  N   N2        1.0  0.64934  0.50212  0.78515  1.0000
  O   O1        1.0  0.96424  0.41526  0.04001  1.0000
  O   O2        1.0  0.46424  0.58474  0.95999  1.0000
  O   O3        1.0  0.87083  0.82177  0.18258  1.0000
  O   O4        1.0  0.37083  0.17823  0.81742  1.0000
  O   O5        1.0  0.55858  0.61389  0.16022  1.0000
  O   O6        1.0  0.05858  0.38611  0.83978  1.0000
  O   O7        1.0  0.60458  0.29974  0.06959  1.0000
  O   O8        1.0  0.10459  0.70026  0.93041  1.0000
