data_image0
_chemical_formula_structural       Na2H36C26S2N2O10
_chemical_formula_sum              "Na2 H36 C26 S2 N2 O10"
_cell_length_a       4.97818
_cell_length_b       10.0141
_cell_length_c       14.8263
_cell_angle_alpha    87.319
_cell_angle_beta     86.8268
_cell_angle_gamma    90.5639

_space_group_name_H-M_alt    "P 1"
_space_group_IT_number       1

loop_
  _space_group_symop_operation_xyz
  'x, y, z'

loop_
  _atom_site_type_symbol
  _atom_site_label
  _atom_site_symmetry_multiplicity
  _atom_site_fract_x
  _atom_site_fract_y
  _atom_site_fract_z
  _atom_site_occupancy
  Na  Na1       1.0  0.09354  0.34854  0.54583  1.0000
  Na  Na2       1.0  0.90638  0.65145  0.45413  1.0000
  H   H1        1.0  0.28990  0.08071  0.88084  1.0000
  H   H2        1.0  0.71014  0.91931  0.11917  1.0000
  H   H3        1.0  0.93708  0.48943  0.79470  1.0000
  H   H4        1.0  0.06293  0.51056  0.20530  1.0000
  H   H5        1.0  0.94189  0.90486  0.72679  1.0000
  H   H6        1.0  0.05804  0.09512  0.27319  1.0000
  H   H7        1.0  0.43558  0.67342  0.78728  1.0000
  H   H8        1.0  0.56441  0.32656  0.21274  1.0000
  H   H9        1.0  0.10182  0.72532  0.81570  1.0000
  H   H10       1.0  0.89816  0.27468  0.18432  1.0000
  H   H11       1.0  0.32514  0.98203  0.65383  1.0000
  H   H12       1.0  0.67482  0.01798  0.34617  1.0000
  H   H13       1.0  0.34815  0.05158  0.53977  1.0000
  H   H14       1.0  0.65184  0.94840  0.46024  1.0000
  H   H15       1.0  0.08868  0.93012  0.57481  1.0000
  H   H16       1.0  0.91131  0.06989  0.42519  1.0000
  H   H17       1.0  0.12745  0.29667  0.83811  1.0000
  H   H18       1.0  0.87254  0.70335  0.16189  1.0000
  H   H19       1.0  0.59612  0.88894  0.85352  1.0000
  H   H20       1.0  0.40388  0.11106  0.14647  1.0000
  H   H21       1.0  0.40721  0.50274  0.91649  1.0000
  H   H22       1.0  0.59277  0.49725  0.08353  1.0000
  H   H23       1.0  0.06169  0.53756  0.93766  1.0000
  H   H24       1.0  0.93829  0.46245  0.06236  1.0000
  H   H25       1.0  0.14037  0.89239  0.04165  1.0000
  H   H26       1.0  0.85963  0.10762  0.95834  1.0000
  H   H27       1.0  0.90184  0.77907  0.99843  1.0000
  H   H28       1.0  0.09820  0.22093  0.00157  1.0000
  H   H29       1.0  0.11830  0.88013  0.92242  1.0000
  H   H30       1.0  0.88169  0.11987  0.07759  1.0000
  H   H31       1.0  0.46320  0.43623  0.69198  1.0000
  H   H32       1.0  0.53685  0.56377  0.30802  1.0000
  H   H33       1.0  0.60746  0.31725  0.44906  1.0000
  H   H34       1.0  0.39253  0.68278  0.55094  1.0000
  H   H35       1.0  0.35031  0.27119  0.40313  1.0000
  H   H36       1.0  0.64975  0.72878  0.59686  1.0000
  C   C1        1.0  0.85344  0.10762  0.68656  1.0000
  C   C2        1.0  0.14659  0.89239  0.31344  1.0000
  C   C3        1.0  0.44903  0.08716  0.82726  1.0000
  C   C4        1.0  0.55102  0.91285  0.17274  1.0000
  C   C5        1.0  0.11593  0.53466  0.75759  1.0000
  C   C6        1.0  0.88408  0.46534  0.24242  1.0000
  C   C7        1.0  0.01261  0.60178  0.67048  1.0000
  C   C8        1.0  0.98741  0.39820  0.32952  1.0000
  C   C9        1.0  0.47740  0.20761  0.77248  1.0000
  C   C10       1.0  0.52257  0.79238  0.22751  1.0000
  C   C11       1.0  0.81916  0.99171  0.74044  1.0000
  C   C12       1.0  0.18086  0.00829  0.25956  1.0000
  C   C13       1.0  0.68587  0.22296  0.70083  1.0000
  C   C14       1.0  0.31412  0.77704  0.29916  1.0000
  C   C15       1.0  0.23759  0.63966  0.81694  1.0000
  C   C16       1.0  0.76238  0.36034  0.18307  1.0000
  C   C17       1.0  0.21090  0.01412  0.59549  1.0000
  C   C18       1.0  0.78908  0.98588  0.40451  1.0000
  C   C19       1.0  0.29307  0.31152  0.78681  1.0000
  C   C20       1.0  0.70690  0.68848  0.21318  1.0000
  C   C21       1.0  0.61755  0.98167  0.81204  1.0000
  C   C22       1.0  0.38244  0.01832  0.18795  1.0000
  C   C23       1.0  0.25676  0.58250  0.91331  1.0000
  C   C24       1.0  0.74321  0.41748  0.08670  1.0000
  C   C25       1.0  0.10409  0.82392  0.98782  1.0000
  C   C26       1.0  0.89595  0.17607  0.01218  1.0000
  S   S1        1.0  0.36082  0.69858  0.99497  1.0000
  S   S2        1.0  0.63922  0.30141  0.00503  1.0000
  N   N1        1.0  0.30273  0.42722  0.74046  1.0000
  N   N2        1.0  0.69727  0.57279  0.25953  1.0000
  O   O1        1.0  0.72054  0.33169  0.65130  1.0000
  O   O2        1.0  0.27948  0.66831  0.34870  1.0000
  O   O3        1.0  0.11485  0.57030  0.59364  1.0000
  O   O4        1.0  0.88519  0.42970  0.40636  1.0000
  O   O5        1.0  0.04227  0.12589  0.61652  1.0000
  O   O6        1.0  0.95775  0.87412  0.38348  1.0000
  O   O7        1.0  0.83033  0.68587  0.68483  1.0000
  O   O8        1.0  0.16969  0.31411  0.31517  1.0000
  O   O9        1.0  0.44689  0.25968  0.46040  1.0000
  O   O10       1.0  0.55312  0.74034  0.53960  1.0000
