data_image0
_chemical_formula_structural       Cu2H30C26S2N2O8
_chemical_formula_sum              "Cu2 H30 C26 S2 N2 O8"
_cell_length_a       4.82463
_cell_length_b       11.6322
_cell_length_c       12.3419
_cell_angle_alpha    96.0783
_cell_angle_beta     89.9993
_cell_angle_gamma    90.0003

_space_group_name_H-M_alt    "P 1"
_space_group_IT_number       1

loop_
  _space_group_symop_operation_xyz
  'x, y, z'

loop_
  _atom_site_type_symbol
  _atom_site_label
  _atom_site_symmetry_multiplicity
  _atom_site_fract_x
  _atom_site_fract_y
  _atom_site_fract_z
  _atom_site_occupancy
  Cu  Cu1       1.0  0.73846  0.90861  0.92612  1.0000
  Cu  Cu2       1.0  0.23846  0.09140  0.07388  1.0000
  H   H1        1.0  0.40768  0.63480  0.05529  1.0000
  H   H2        1.0  0.90769  0.36520  0.94471  1.0000
  H   H3        1.0  0.07284  0.60508  0.10885  1.0000
  H   H4        1.0  0.57286  0.39492  0.89116  1.0000
  H   H5        1.0  0.15438  0.74857  0.07528  1.0000
  H   H6        1.0  0.65439  0.25142  0.92472  1.0000
  H   H7        1.0  0.03106  0.46511  0.78940  1.0000
  H   H8        1.0  0.53100  0.53487  0.21061  1.0000
  H   H9        1.0  0.68219  0.58817  0.59077  1.0000
  H   H10       1.0  0.18216  0.41184  0.40923  1.0000
  H   H11       1.0  0.30600  0.44477  0.61546  1.0000
  H   H12       1.0  0.80595  0.55522  0.38454  1.0000
  H   H13       1.0  0.93197  0.74914  0.64576  1.0000
  H   H14       1.0  0.43194  0.25087  0.35424  1.0000
  H   H15       1.0  0.27068  0.89157  0.70828  1.0000
  H   H16       1.0  0.77064  0.10844  0.29171  1.0000
  H   H17       1.0  0.87800  0.95855  0.60153  1.0000
  H   H18       1.0  0.37796  0.04145  0.39847  1.0000
  H   H19       1.0  0.78694  0.06315  0.71060  1.0000
  H   H20       1.0  0.28692  0.93684  0.28940  1.0000
  H   H21       1.0  0.34218  0.05123  0.58532  1.0000
  H   H22       1.0  0.84215  0.94879  0.41468  1.0000
  H   H23       1.0  0.25407  0.16029  0.69086  1.0000
  H   H24       1.0  0.75407  0.83972  0.30913  1.0000
  H   H25       1.0  0.61147  0.24474  0.62495  1.0000
  H   H26       1.0  0.11146  0.75526  0.37505  1.0000
  H   H27       1.0  0.76323  0.35466  0.55392  1.0000
  H   H28       1.0  0.26322  0.64533  0.44607  1.0000
  H   H29       1.0  0.91695  0.31878  0.67736  1.0000
  H   H30       1.0  0.41694  0.68123  0.32263  1.0000
  C   C1        1.0  0.18611  0.65574  0.05303  1.0000
  C   C2        1.0  0.68612  0.34426  0.94697  1.0000
  C   C3        1.0  0.24178  0.61526  0.85767  1.0000
  C   C4        1.0  0.74176  0.38473  0.14233  1.0000
  C   C5        1.0  0.19512  0.52623  0.77559  1.0000
  C   C6        1.0  0.69506  0.47376  0.22443  1.0000
  C   C7        1.0  0.55513  0.59512  0.66434  1.0000
  C   C8        1.0  0.05508  0.40488  0.33567  1.0000
  C   C9        1.0  0.34840  0.51591  0.67810  1.0000
  C   C10       1.0  0.84833  0.48407  0.32190  1.0000
  C   C11       1.0  0.60727  0.68856  0.74527  1.0000
  C   C12       1.0  0.10724  0.31144  0.25473  1.0000
  C   C13       1.0  0.44506  0.70282  0.84329  1.0000
  C   C14       1.0  0.94505  0.29718  0.15671  1.0000
  C   C15       1.0  0.82092  0.76836  0.72339  1.0000
  C   C16       1.0  0.32090  0.23164  0.27661  1.0000
  C   C17       1.0  0.21330  0.01428  0.84829  1.0000
  C   C18       1.0  0.71326  0.98573  0.15170  1.0000
  C   C19       1.0  0.09687  0.93991  0.74943  1.0000
  C   C20       1.0  0.59685  0.06009  0.25057  1.0000
  C   C21       1.0  0.96261  0.01712  0.66925  1.0000
  C   C22       1.0  0.46258  0.98288  0.33075  1.0000
  C   C23       1.0  0.16768  0.09989  0.62507  1.0000
  C   C24       1.0  0.66767  0.90012  0.37493  1.0000
  C   C25       1.0  0.80752  0.28379  0.60321  1.0000
  C   C26       1.0  0.30751  0.71622  0.39679  1.0000
  S   S1        1.0  0.02713  0.18302  0.52177  1.0000
  S   S2        1.0  0.52714  0.81698  0.47823  1.0000
  N   N1        1.0  0.88995  0.86095  0.78553  1.0000
  N   N2        1.0  0.38992  0.13905  0.21447  1.0000
  O   O1        1.0  0.43341  0.06850  0.84329  1.0000
  O   O2        1.0  0.93340  0.93151  0.15670  1.0000
  O   O3        1.0  0.06310  0.01764  0.93696  1.0000
  O   O4        1.0  0.56309  0.98237  0.06304  1.0000
  O   O5        1.0  0.46144  0.79118  0.91783  1.0000
  O   O6        1.0  0.96144  0.20883  0.08217  1.0000
  O   O7        1.0  0.07147  0.62041  0.94630  1.0000
  O   O8        1.0  0.57146  0.37957  0.05370  1.0000
