data_image0
_chemical_formula_structural       Zn2H22C20O14
_chemical_formula_sum              "Zn2 H22 C20 O14"
_cell_length_a       6.53242
_cell_length_b       9.51657
_cell_length_c       9.89345
_cell_angle_alpha    63.2256
_cell_angle_beta     88.3625
_cell_angle_gamma    100.451

_space_group_name_H-M_alt    "P 1"
_space_group_IT_number       1

loop_
  _space_group_symop_operation_xyz
  'x, y, z'

loop_
  _atom_site_type_symbol
  _atom_site_label
  _atom_site_symmetry_multiplicity
  _atom_site_fract_x
  _atom_site_fract_y
  _atom_site_fract_z
  _atom_site_occupancy
  Zn  Zn1       1.0  0.49786  0.33560  0.40196  1.0000
  Zn  Zn2       1.0  0.50214  0.66440  0.59804  1.0000
  H   H1        1.0  0.38514  0.36129  0.95518  1.0000
  H   H2        1.0  0.61486  0.63871  0.04482  1.0000
  H   H3        1.0  0.25643  0.98298  0.82584  1.0000
  H   H4        1.0  0.74359  0.01701  0.17416  1.0000
  H   H5        1.0  0.21347  0.86481  0.30244  1.0000
  H   H6        1.0  0.78652  0.13520  0.69754  1.0000
  H   H7        1.0  0.28782  0.71896  0.93344  1.0000
  H   H8        1.0  0.71217  0.28105  0.06656  1.0000
  H   H9        1.0  0.03674  0.77020  0.91901  1.0000
  H   H10       1.0  0.96325  0.22980  0.08101  1.0000
  H   H11       1.0  0.88355  0.49693  0.13905  1.0000
  H   H12       1.0  0.11644  0.50306  0.86094  1.0000
  H   H13       1.0  0.13016  0.44405  0.13424  1.0000
  H   H14       1.0  0.86985  0.55595  0.86575  1.0000
  H   H15       1.0  0.20281  0.46691  0.48484  1.0000
  H   H16       1.0  0.79719  0.53310  0.51516  1.0000
  H   H17       1.0  0.16785  0.55363  0.31046  1.0000
  H   H18       1.0  0.83215  0.44637  0.68954  1.0000
  H   H19       1.0  0.90871  0.30700  0.41781  1.0000
  H   H20       1.0  0.09129  0.69299  0.58219  1.0000
  H   H21       1.0  0.75746  0.12643  0.48966  1.0000
  H   H22       1.0  0.24253  0.87357  0.51033  1.0000
  C   C1        1.0  0.33938  0.16948  0.26275  1.0000
  C   C2        1.0  0.66064  0.83053  0.73726  1.0000
  C   C3        1.0  0.35640  0.29613  0.70905  1.0000
  C   C4        1.0  0.64359  0.70387  0.29096  1.0000
  C   C5        1.0  0.30232  0.11816  0.14138  1.0000
  C   C6        1.0  0.69768  0.88182  0.85861  1.0000
  C   C7        1.0  0.33753  0.23367  0.98675  1.0000
  C   C8        1.0  0.66248  0.76632  0.01325  1.0000
  C   C9        1.0  0.31681  0.18179  0.87563  1.0000
  C   C10       1.0  0.68320  0.81822  0.12437  1.0000
  C   C11       1.0  0.26297  0.01709  0.91681  1.0000
  C   C12       1.0  0.73703  0.98292  0.08319  1.0000
  C   C13       1.0  0.22124  0.90334  0.07048  1.0000
  C   C14       1.0  0.77876  0.09667  0.92954  1.0000
  C   C15       1.0  0.24044  0.95407  0.18281  1.0000
  C   C16       1.0  0.75954  0.04592  0.81721  1.0000
  C   C17       1.0  0.13426  0.69541  0.99700  1.0000
  C   C18       1.0  0.86574  0.30459  0.00299  1.0000
  C   C19       1.0  0.02703  0.52027  0.06463  1.0000
  C   C20       1.0  0.97297  0.47974  0.93536  1.0000
  O   O1        1.0  0.29725  0.07089  0.40281  1.0000
  O   O2        1.0  0.70276  0.92910  0.59719  1.0000
  O   O3        1.0  0.42258  0.32070  0.21628  1.0000
  O   O4        1.0  0.57743  0.67931  0.78371  1.0000
  O   O5        1.0  0.16276  0.74077  0.11804  1.0000
  O   O6        1.0  0.83724  0.25922  0.88197  1.0000
  O   O7        1.0  0.41081  0.23878  0.62296  1.0000
  O   O8        1.0  0.58920  0.76122  0.37704  1.0000
  O   O9        1.0  0.32645  0.43959  0.66099  1.0000
  O   O10       1.0  0.67355  0.56041  0.33902  1.0000
  O   O11       1.0  0.16590  0.44768  0.39747  1.0000
  O   O12       1.0  0.83410  0.55232  0.60253  1.0000
  O   O13       1.0  0.76934  0.24440  0.41971  1.0000
  O   O14       1.0  0.23066  0.75559  0.58028  1.0000
