data_image0
_chemical_formula_structural       Mg12H40C40O48
_chemical_formula_sum              "Mg12 H40 C40 O48"
_cell_length_a       9.92823
_cell_length_b       11.2108
_cell_length_c       14.8888
_cell_angle_alpha    91.7815
_cell_angle_beta     89.9996
_cell_angle_gamma    90

_space_group_name_H-M_alt    "P 1"
_space_group_IT_number       1

loop_
  _space_group_symop_operation_xyz
  'x, y, z'

loop_
  _atom_site_type_symbol
  _atom_site_label
  _atom_site_symmetry_multiplicity
  _atom_site_fract_x
  _atom_site_fract_y
  _atom_site_fract_z
  _atom_site_occupancy
  Mg  Mg1       1.0  0.91752  0.74425  0.86444  1.0000
  Mg  Mg2       1.0  0.41752  0.75576  0.63556  1.0000
  Mg  Mg3       1.0  0.08248  0.25575  0.13556  1.0000
  Mg  Mg4       1.0  0.58249  0.24425  0.36444  1.0000
  Mg  Mg5       1.0  0.00000  0.99999  0.00000  1.0000
  Mg  Mg6       1.0  0.49999  0.50001  0.49999  1.0000
  Mg  Mg7       1.0  0.10639  0.76037  0.69037  1.0000
  Mg  Mg8       1.0  0.60639  0.73964  0.80964  1.0000
  Mg  Mg9       1.0  0.89362  0.23964  0.30963  1.0000
  Mg  Mg10      1.0  0.39361  0.26037  0.19036  1.0000
  Mg  Mg11      1.0  1.00000  0.50000  0.00000  1.0000
  Mg  Mg12      1.0  0.50001  0.00000  0.50000  1.0000
  H   H1        1.0  0.01651  0.03777  0.72982  1.0000
  H   H2        1.0  0.51650  0.46223  0.77018  1.0000
  H   H3        1.0  0.98350  0.96223  0.27019  1.0000
  H   H4        1.0  0.48351  0.53778  0.22981  1.0000
  H   H5        1.0  0.60357  0.95154  0.95413  1.0000
  H   H6        1.0  0.10356  0.54846  0.54587  1.0000
  H   H7        1.0  0.39643  0.04845  0.04587  1.0000
  H   H8        1.0  0.89643  0.45155  0.45413  1.0000
  H   H9        1.0  0.74518  0.61894  0.63163  1.0000
  H   H10       1.0  0.24519  0.88106  0.86838  1.0000
  H   H11       1.0  0.25482  0.38106  0.36837  1.0000
  H   H12       1.0  0.75481  0.11894  0.13162  1.0000
  H   H13       1.0  0.69637  0.50653  0.00004  1.0000
  H   H14       1.0  0.19637  0.99347  0.49996  1.0000
  H   H15       1.0  0.30362  0.49346  0.99995  1.0000
  H   H16       1.0  0.80364  0.00653  0.50004  1.0000
  H   H17       1.0  0.19300  0.50791  0.76028  1.0000
  H   H18       1.0  0.69300  0.99209  0.73972  1.0000
  H   H19       1.0  0.80701  0.49209  0.23972  1.0000
  H   H20       1.0  0.30701  0.00791  0.26028  1.0000
  H   H21       1.0  0.17162  0.81230  0.06958  1.0000
  H   H22       1.0  0.67162  0.68770  0.43042  1.0000
  H   H23       1.0  0.82839  0.18769  0.93041  1.0000
  H   H24       1.0  0.32839  0.31230  0.56959  1.0000
  H   H25       1.0  0.06818  0.28921  0.49462  1.0000
  H   H26       1.0  0.56816  0.21077  0.00537  1.0000
  H   H27       1.0  0.93182  0.71078  0.50539  1.0000
  H   H28       1.0  0.43181  0.78920  0.99464  1.0000
  H   H29       1.0  0.05829  0.30309  0.71985  1.0000
  H   H30       1.0  0.55830  0.19688  0.78014  1.0000
  H   H31       1.0  0.94169  0.69690  0.28015  1.0000
  H   H32       1.0  0.44170  0.80312  0.21988  1.0000
  H   H33       1.0  0.22423  0.19932  0.87664  1.0000
  H   H34       1.0  0.72423  0.30073  0.62337  1.0000
  H   H35       1.0  0.77576  0.80067  0.12335  1.0000
  H   H36       1.0  0.27576  0.69932  0.37664  1.0000
  H   H37       1.0  0.31405  0.11346  0.66755  1.0000
  H   H38       1.0  0.81406  0.38657  0.83247  1.0000
  H   H39       1.0  0.68593  0.88652  0.33244  1.0000
  H   H40       1.0  0.18594  0.61345  0.16755  1.0000
  C   C1        1.0  0.00111  0.98519  0.79054  1.0000
  C   C2        1.0  0.50110  0.51481  0.70946  1.0000
  C   C3        1.0  0.99889  0.01480  0.20946  1.0000
  C   C4        1.0  0.49889  0.48519  0.29053  1.0000
  C   C5        1.0  0.71094  0.92667  0.94872  1.0000
  C   C6        1.0  0.21093  0.57333  0.55129  1.0000
  C   C7        1.0  0.28906  0.07332  0.05129  1.0000
  C   C8        1.0  0.78907  0.42668  0.44871  1.0000
  C   C9        1.0  0.82393  0.66133  0.67409  1.0000
  C   C10       1.0  0.32394  0.83867  0.82592  1.0000
  C   C11       1.0  0.17607  0.33868  0.32591  1.0000
  C   C12       1.0  0.67607  0.16132  0.17408  1.0000
  C   C13       1.0  0.71739  0.57495  0.95011  1.0000
  C   C14       1.0  0.21739  0.92505  0.54989  1.0000
  C   C15       1.0  0.28261  0.42505  0.04989  1.0000
  C   C16       1.0  0.78263  0.07495  0.45010  1.0000
  C   C17       1.0  0.12328  0.54210  0.81320  1.0000
  C   C18       1.0  0.62328  0.95790  0.68679  1.0000
  C   C19       1.0  0.87672  0.45790  0.18679  1.0000
  C   C20       1.0  0.37673  0.04211  0.31321  1.0000
  C   C21       1.0  0.10538  0.75809  0.02523  1.0000
  C   C22       1.0  0.60538  0.74191  0.47477  1.0000
  C   C23       1.0  0.89462  0.24190  0.97476  1.0000
  C   C24       1.0  0.39463  0.25809  0.52524  1.0000
  C   C25       1.0  0.06530  0.29282  0.56691  1.0000
  C   C26       1.0  0.56530  0.20714  0.93308  1.0000
  C   C27       1.0  0.93469  0.70716  0.43309  1.0000
  C   C28       1.0  0.43468  0.79284  0.06694  1.0000
  C   C29       1.0  0.06161  0.29977  0.64808  1.0000
  C   C30       1.0  0.56163  0.20020  0.85191  1.0000
  C   C31       1.0  0.93837  0.70022  0.35192  1.0000
  C   C32       1.0  0.43837  0.79979  0.14810  1.0000
  C   C33       1.0  0.25365  0.17094  0.81027  1.0000
  C   C34       1.0  0.75365  0.32909  0.68975  1.0000
  C   C35       1.0  0.74635  0.82906  0.18972  1.0000
  C   C36       1.0  0.24634  0.67094  0.31026  1.0000
  C   C37       1.0  0.28463  0.13792  0.73505  1.0000
  C   C38       1.0  0.78463  0.36210  0.76497  1.0000
  C   C39       1.0  0.71536  0.86207  0.26494  1.0000
  C   C40       1.0  0.21536  0.63791  0.23505  1.0000
  O   O1        1.0  0.99953  0.87080  0.77890  1.0000
  O   O2        1.0  0.49953  0.62920  0.72110  1.0000
  O   O3        1.0  0.00047  0.12920  0.22110  1.0000
  O   O4        1.0  0.50047  0.37080  0.27889  1.0000
  O   O5        1.0  0.74047  0.84690  0.88747  1.0000
  O   O6        1.0  0.24047  0.65310  0.61253  1.0000
  O   O7        1.0  0.25953  0.15310  0.11253  1.0000
  O   O8        1.0  0.75952  0.34690  0.38747  1.0000
  O   O9        1.0  0.79366  0.68735  0.75610  1.0000
  O   O10       1.0  0.29367  0.81265  0.74391  1.0000
  O   O11       1.0  0.20633  0.31265  0.24390  1.0000
  O   O12       1.0  0.70633  0.18736  0.25609  1.0000
  O   O13       1.0  0.84228  0.60454  0.94059  1.0000
  O   O14       1.0  0.34229  0.89547  0.55942  1.0000
  O   O15       1.0  0.15771  0.39546  0.05941  1.0000
  O   O16       1.0  0.65773  0.10453  0.44058  1.0000
  O   O17       1.0  0.07797  0.64836  0.80315  1.0000
  O   O18       1.0  0.57796  0.85164  0.69685  1.0000
  O   O19       1.0  0.92204  0.35163  0.19685  1.0000
  O   O20       1.0  0.42205  0.14837  0.30315  1.0000
  O   O21       1.0  0.02722  0.81514  0.97230  1.0000
  O   O22       1.0  0.52721  0.68486  0.52769  1.0000
  O   O23       1.0  0.97278  0.18485  0.02769  1.0000
  O   O24       1.0  0.47279  0.31515  0.47231  1.0000
  O   O25       1.0  0.98674  0.03881  0.86473  1.0000
  O   O26       1.0  0.48673  0.46119  0.63527  1.0000
  O   O27       1.0  0.01326  0.96118  0.13528  1.0000
  O   O28       1.0  0.51326  0.53882  0.36472  1.0000
  O   O29       1.0  0.79353  0.97679  0.00091  1.0000
  O   O30       1.0  0.29352  0.52321  0.49909  1.0000
  O   O31       1.0  0.20648  0.02320  0.99909  1.0000
  O   O32       1.0  0.70646  0.47680  0.50090  1.0000
  O   O33       1.0  0.62005  0.61647  0.90761  1.0000
  O   O34       1.0  0.12006  0.88354  0.59239  1.0000
  O   O35       1.0  0.37994  0.38353  0.09238  1.0000
  O   O36       1.0  0.87995  0.11647  0.40760  1.0000
  O   O37       1.0  0.09539  0.47555  0.87643  1.0000
  O   O38       1.0  0.59539  0.02445  0.62356  1.0000
  O   O39       1.0  0.90462  0.52445  0.12356  1.0000
  O   O40       1.0  0.40463  0.97555  0.37644  1.0000
  O   O41       1.0  0.11220  0.64692  0.02915  1.0000
  O   O42       1.0  0.61220  0.85308  0.47085  1.0000
  O   O43       1.0  0.88781  0.35307  0.97084  1.0000
  O   O44       1.0  0.38782  0.14693  0.52916  1.0000
  O   O45       1.0  0.93662  0.68047  0.63865  1.0000
  O   O46       1.0  0.43664  0.81953  0.86137  1.0000
  O   O47       1.0  0.06337  0.31955  0.36135  1.0000
  O   O48       1.0  0.56336  0.18046  0.13864  1.0000
