data_image0
_chemical_formula_structural       Er2H20C18N4Cl2O22
_chemical_formula_sum              "Er2 H20 C18 N4 Cl2 O22"
_cell_length_a       7.172
_cell_length_b       9.22394
_cell_length_c       11.8008
_cell_angle_alpha    100.181
_cell_angle_beta     98.2608
_cell_angle_gamma    96.5721

_space_group_name_H-M_alt    "P 1"
_space_group_IT_number       1

loop_
  _space_group_symop_operation_xyz
  'x, y, z'

loop_
  _atom_site_type_symbol
  _atom_site_label
  _atom_site_symmetry_multiplicity
  _atom_site_fract_x
  _atom_site_fract_y
  _atom_site_fract_z
  _atom_site_occupancy
  Er  Er1       1.0  0.68077  0.21774  0.99203  1.0000
  Er  Er2       1.0  0.31923  0.78226  0.00797  1.0000
  H   H1        1.0  0.89555  0.52459  0.07734  1.0000
  H   H2        1.0  0.10446  0.47542  0.92266  1.0000
  H   H3        1.0  0.68393  0.52865  0.09683  1.0000
  H   H4        1.0  0.31608  0.47136  0.90318  1.0000
  H   H5        1.0  0.10309  0.32191  0.04334  1.0000
  H   H6        1.0  0.89691  0.67809  0.95666  1.0000
  H   H7        1.0  0.04540  0.21761  0.91457  1.0000
  H   H8        1.0  0.95459  0.78239  0.08543  1.0000
  H   H9        1.0  0.69487  0.90166  0.89759  1.0000
  H   H10       1.0  0.30512  0.09834  0.10242  1.0000
  H   H11       1.0  0.84986  0.99236  0.84236  1.0000
  H   H12       1.0  0.15014  0.00764  0.15764  1.0000
  H   H13       1.0  0.84845  0.35557  0.58624  1.0000
  H   H14       1.0  0.15156  0.64443  0.41376  1.0000
  H   H15       1.0  0.66196  0.82968  0.41027  1.0000
  H   H16       1.0  0.33804  0.17031  0.58973  1.0000
  H   H17       1.0  0.00417  0.59940  0.71788  1.0000
  H   H18       1.0  0.99584  0.40061  0.28211  1.0000
  H   H19       1.0  0.60465  0.26995  0.35765  1.0000
  H   H20       1.0  0.39535  0.73005  0.64234  1.0000
  C   C1        1.0  0.40675  0.36405  0.17751  1.0000
  C   C2        1.0  0.59325  0.63595  0.82250  1.0000
  C   C3        1.0  0.53036  0.45809  0.28369  1.0000
  C   C4        1.0  0.46964  0.54191  0.71631  1.0000
  C   C5        1.0  0.54404  0.61566  0.30018  1.0000
  C   C6        1.0  0.45595  0.38434  0.69982  1.0000
  C   C7        1.0  0.46368  0.67998  0.20045  1.0000
  C   C8        1.0  0.53631  0.32003  0.79955  1.0000
  C   C9        1.0  0.64839  0.70909  0.40062  1.0000
  C   C10       1.0  0.35161  0.29091  0.59937  1.0000
  C   C11       1.0  0.74195  0.64238  0.48593  1.0000
  C   C12       1.0  0.25805  0.35763  0.51406  1.0000
  C   C13       1.0  0.90970  0.59199  0.63610  1.0000
  C   C14       1.0  0.09031  0.40801  0.36390  1.0000
  C   C15       1.0  0.72284  0.48429  0.46920  1.0000
  C   C16       1.0  0.27717  0.51570  0.53079  1.0000
  C   C17       1.0  0.61893  0.39043  0.36927  1.0000
  C   C18       1.0  0.38107  0.60957  0.63073  1.0000
  N   N1        1.0  0.83021  0.45683  0.56768  1.0000
  N   N2        1.0  0.16981  0.54317  0.43231  1.0000
  N   N3        1.0  0.86030  0.70622  0.59094  1.0000
  N   N4        1.0  0.13972  0.29378  0.40905  1.0000
  Cl  Cl1       1.0  0.76058  0.02142  0.19719  1.0000
  Cl  Cl2       1.0  0.23941  0.97857  0.80282  1.0000
  O   O1        1.0  0.46937  0.24980  0.12219  1.0000
  O   O2        1.0  0.53063  0.75020  0.87781  1.0000
  O   O3        1.0  0.24452  0.39840  0.14781  1.0000
  O   O4        1.0  0.75548  0.60160  0.85218  1.0000
  O   O5        1.0  0.52317  0.64237  0.10186  1.0000
  O   O6        1.0  0.47683  0.35763  0.89815  1.0000
  O   O7        1.0  0.34367  0.77066  0.20732  1.0000
  O   O8        1.0  0.65633  0.22934  0.79269  1.0000
  O   O9        1.0  0.85614  0.15922  0.17167  1.0000
  O   O10       1.0  0.14385  0.84077  0.82832  1.0000
  O   O11       1.0  0.60631  0.96515  0.09449  1.0000
  O   O12       1.0  0.39368  0.03485  0.90552  1.0000
  O   O13       1.0  0.68301  0.04774  0.30267  1.0000
  O   O14       1.0  0.31697  0.95226  0.69733  1.0000
  O   O15       1.0  0.89443  0.91462  0.20358  1.0000
  O   O16       1.0  0.10556  0.08538  0.79642  1.0000
  O   O17       1.0  0.78518  0.46106  0.09167  1.0000
  O   O18       1.0  0.21482  0.53894  0.90833  1.0000
  O   O19       1.0  0.99596  0.28927  0.97069  1.0000
  O   O20       1.0  0.00404  0.71073  0.02931  1.0000
  O   O21       1.0  0.78408  0.99695  0.90951  1.0000
  O   O22       1.0  0.21592  0.00306  0.09050  1.0000
