data_image0
_chemical_formula_structural       Er2H8C18N4Cl2O16
_chemical_formula_sum              "Er2 H8 C18 N4 Cl2 O16"
_cell_length_a       7.00112
_cell_length_b       8.07229
_cell_length_c       11.2111
_cell_angle_alpha    101.293
_cell_angle_beta     109.21
_cell_angle_gamma    97.2005

_space_group_name_H-M_alt    "P 1"
_space_group_IT_number       1

loop_
  _space_group_symop_operation_xyz
  'x, y, z'

loop_
  _atom_site_type_symbol
  _atom_site_label
  _atom_site_symmetry_multiplicity
  _atom_site_fract_x
  _atom_site_fract_y
  _atom_site_fract_z
  _atom_site_occupancy
  Er  Er1       1.0  0.14634  0.32823  0.05636  1.0000
  Er  Er2       1.0  0.85367  0.67177  0.94365  1.0000
  H   H1        1.0  0.46193  0.83874  0.74861  1.0000
  H   H2        1.0  0.53806  0.16126  0.25138  1.0000
  H   H3        1.0  0.33495  0.64504  0.47645  1.0000
  H   H4        1.0  0.66504  0.35496  0.52355  1.0000
  H   H5        1.0  0.43391  0.13245  0.86320  1.0000
  H   H6        1.0  0.56610  0.86755  0.13680  1.0000
  H   H7        1.0  0.16297  0.21461  0.41220  1.0000
  H   H8        1.0  0.83703  0.78539  0.58780  1.0000
  C   C1        1.0  0.09003  0.00146  0.19163  1.0000
  C   C2        1.0  0.90998  0.99854  0.80837  1.0000
  C   C3        1.0  0.16803  0.95496  0.31950  1.0000
  C   C4        1.0  0.83197  0.04504  0.68050  1.0000
  C   C5        1.0  0.21478  0.79128  0.33708  1.0000
  C   C6        1.0  0.78523  0.20872  0.66292  1.0000
  C   C7        1.0  0.20651  0.64144  0.23440  1.0000
  C   C8        1.0  0.79349  0.35856  0.76561  1.0000
  C   C9        1.0  0.29119  0.76683  0.46370  1.0000
  C   C10       1.0  0.70881  0.23317  0.53630  1.0000
  C   C11       1.0  0.31327  0.90149  0.56801  1.0000
  C   C12       1.0  0.68672  0.09851  0.43199  1.0000
  C   C13       1.0  0.38168  0.08517  0.75785  1.0000
  C   C14       1.0  0.61831  0.91483  0.24215  1.0000
  C   C15       1.0  0.26422  0.06338  0.55215  1.0000
  C   C16       1.0  0.73578  0.93662  0.44785  1.0000
  C   C17       1.0  0.19473  0.08988  0.42679  1.0000
  C   C18       1.0  0.80526  0.91012  0.57322  1.0000
  N   N1        1.0  0.38709  0.92035  0.70095  1.0000
  N   N2        1.0  0.61290  0.07965  0.29905  1.0000
  N   N3        1.0  0.30707  0.17499  0.67254  1.0000
  N   N4        1.0  0.69293  0.82501  0.32746  1.0000
  Cl  Cl1       1.0  0.71132  0.40251  0.15084  1.0000
  Cl  Cl2       1.0  0.28869  0.59749  0.84916  1.0000
  O   O1        1.0  0.18270  0.14336  0.18448  1.0000
  O   O2        1.0  0.81731  0.85665  0.81553  1.0000
  O   O3        1.0  0.93038  0.90704  0.09870  1.0000
  O   O4        1.0  0.06964  0.09297  0.90130  1.0000
  O   O5        1.0  0.12444  0.63001  0.10875  1.0000
  O   O6        1.0  0.87556  0.36999  0.89126  1.0000
  O   O7        1.0  0.27784  0.51216  0.26518  1.0000
  O   O8        1.0  0.72216  0.48785  0.73481  1.0000
  O   O9        1.0  0.70597  0.54626  0.08946  1.0000
  O   O10       1.0  0.29402  0.45374  0.91055  1.0000
  O   O11       1.0  0.83555  0.28726  0.10740  1.0000
  O   O12       1.0  0.16445  0.71274  0.89259  1.0000
  O   O13       1.0  0.78712  0.45936  0.28941  1.0000
  O   O14       1.0  0.21288  0.54062  0.71059  1.0000
  O   O15       1.0  0.49802  0.29681  0.10210  1.0000
  O   O16       1.0  0.50198  0.70318  0.89789  1.0000
