data_image0
_chemical_formula_structural       Zn2H28C20N4O8
_chemical_formula_sum              "Zn2 H28 C20 N4 O8"
_cell_length_a       6.0632
_cell_length_b       9.54057
_cell_length_c       10.8822
_cell_angle_alpha    88.0698
_cell_angle_beta     90.0005
_cell_angle_gamma    90.0026

_space_group_name_H-M_alt    "P 1"
_space_group_IT_number       1

loop_
  _space_group_symop_operation_xyz
  'x, y, z'

loop_
  _atom_site_type_symbol
  _atom_site_label
  _atom_site_symmetry_multiplicity
  _atom_site_fract_x
  _atom_site_fract_y
  _atom_site_fract_z
  _atom_site_occupancy
  Zn  Zn1       1.0  0.07953  0.08846  0.81416  1.0000
  Zn  Zn2       1.0  0.57953  0.91153  0.18582  1.0000
  H   H1        1.0  0.73467  0.04469  0.51671  1.0000
  H   H2        1.0  0.23470  0.95534  0.48327  1.0000
  H   H3        1.0  0.78955  0.38239  0.48168  1.0000
  H   H4        1.0  0.28956  0.61766  0.51834  1.0000
  H   H5        1.0  0.94437  0.50267  0.56393  1.0000
  H   H6        1.0  0.44436  0.49736  0.43611  1.0000
  H   H7        1.0  0.49268  0.40217  0.62204  1.0000
  H   H8        1.0  0.99268  0.59784  0.37799  1.0000
  H   H9        1.0  0.64222  0.53407  0.69567  1.0000
  H   H10       1.0  0.14221  0.46592  0.30437  1.0000
  H   H11       1.0  0.56199  0.24296  0.78804  1.0000
  H   H12       1.0  0.06199  0.75703  0.21197  1.0000
  H   H13       1.0  0.73230  0.36629  0.86055  1.0000
  H   H14       1.0  0.23228  0.63368  0.13946  1.0000
  H   H15       1.0  0.42745  0.83012  0.74220  1.0000
  H   H16       1.0  0.92747  0.16988  0.25777  1.0000
  H   H17       1.0  0.88623  0.60303  0.83139  1.0000
  H   H18       1.0  0.38621  0.39694  0.16863  1.0000
  H   H19       1.0  0.01575  0.60169  0.97673  1.0000
  H   H20       1.0  0.51571  0.39830  0.02328  1.0000
  H   H21       1.0  0.25915  0.55186  0.75942  1.0000
  H   H22       1.0  0.75914  0.44813  0.24058  1.0000
  H   H23       1.0  0.37858  0.63478  0.88694  1.0000
  H   H24       1.0  0.87856  0.36524  0.11304  1.0000
  H   H25       1.0  0.13528  0.92060  0.45594  1.0000
  H   H26       1.0  0.63525  0.07943  0.54403  1.0000
  H   H27       1.0  0.20097  0.78025  0.65110  1.0000
  H   H28       1.0  0.70100  0.21973  0.34889  1.0000
  C   C1        1.0  0.18293  0.22405  0.58306  1.0000
  C   C2        1.0  0.68293  0.77597  0.41693  1.0000
  C   C3        1.0  0.97182  0.28938  0.63189  1.0000
  C   C4        1.0  0.47182  0.71063  0.36811  1.0000
  C   C5        1.0  0.84267  0.40777  0.57488  1.0000
  C   C6        1.0  0.34266  0.59225  0.42515  1.0000
  C   C7        1.0  0.65007  0.42568  0.66585  1.0000
  C   C8        1.0  0.15007  0.57432  0.33420  1.0000
  C   C9        1.0  0.69680  0.31817  0.77212  1.0000
  C   C10       1.0  0.19680  0.68181  0.22790  1.0000
  C   C11       1.0  0.82688  0.88493  0.96413  1.0000
  C   C12       1.0  0.32689  0.11504  0.03586  1.0000
  C   C13       1.0  0.98471  0.80567  0.88499  1.0000
  C   C14       1.0  0.48470  0.19432  0.11500  1.0000
  C   C15       1.0  0.02082  0.65048  0.88408  1.0000
  C   C16       1.0  0.52079  0.34951  0.11593  1.0000
  C   C17       1.0  0.24558  0.64230  0.81824  1.0000
  C   C18       1.0  0.74558  0.35770  0.18175  1.0000
  C   C19       1.0  0.26152  0.78426  0.74630  1.0000
  C   C20       1.0  0.76153  0.21573  0.25369  1.0000
  N   N1        1.0  0.89478  0.24241  0.73537  1.0000
  N   N2        1.0  0.39479  0.75758  0.26463  1.0000
  N   N3        1.0  0.11157  0.87694  0.81200  1.0000
  N   N4        1.0  0.61158  0.12305  0.18798  1.0000
  O   O1        1.0  0.27400  0.13369  0.65776  1.0000
  O   O2        1.0  0.77401  0.86633  0.34222  1.0000
  O   O3        1.0  0.25018  0.26433  0.47935  1.0000
  O   O4        1.0  0.75020  0.73571  0.52064  1.0000
  O   O5        1.0  0.80308  0.01389  0.94037  1.0000
  O   O6        1.0  0.30309  0.98609  0.05961  1.0000
  O   O7        1.0  0.73747  0.81226  0.05176  1.0000
  O   O8        1.0  0.23750  0.18772  0.94823  1.0000
