data_image0
_chemical_formula_structural       Zn3H42C46N8O16
_chemical_formula_sum              "Zn3 H42 C46 N8 O16"
_cell_length_a       10.276
_cell_length_b       10.8024
_cell_length_c       12.5466
_cell_angle_alpha    109.321
_cell_angle_beta     106.134
_cell_angle_gamma    95.7434

_space_group_name_H-M_alt    "P 1"
_space_group_IT_number       1

loop_
  _space_group_symop_operation_xyz
  'x, y, z'

loop_
  _atom_site_type_symbol
  _atom_site_label
  _atom_site_symmetry_multiplicity
  _atom_site_fract_x
  _atom_site_fract_y
  _atom_site_fract_z
  _atom_site_occupancy
  Zn  Zn1       1.0  1.00000  0.50000  0.50000  1.0000
  Zn  Zn2       1.0  0.53118  0.25249  0.67744  1.0000
  Zn  Zn3       1.0  0.46882  0.74751  0.32256  1.0000
  H   H1        1.0  0.17999  0.92120  0.61603  1.0000
  H   H2        1.0  0.82000  0.07880  0.38397  1.0000
  H   H3        1.0  0.03730  0.29190  0.67969  1.0000
  H   H4        1.0  0.96271  0.70810  0.32031  1.0000
  H   H5        1.0  0.79106  0.94490  0.67748  1.0000
  H   H6        1.0  0.20894  0.05510  0.32253  1.0000
  H   H7        1.0  0.39215  0.97619  0.21435  1.0000
  H   H8        1.0  0.60784  0.02382  0.78566  1.0000
  H   H9        1.0  0.17885  0.84344  0.04883  1.0000
  H   H10       1.0  0.82115  0.15656  0.95117  1.0000
  H   H11       1.0  0.10656  0.89792  0.86479  1.0000
  H   H12       1.0  0.89344  0.10207  0.13521  1.0000
  H   H13       1.0  0.25407  0.08460  0.85081  1.0000
  H   H14       1.0  0.74593  0.91540  0.14918  1.0000
  H   H15       1.0  0.64208  0.12085  0.25423  1.0000
  H   H16       1.0  0.35792  0.87915  0.74576  1.0000
  H   H17       1.0  0.63031  0.27133  0.22967  1.0000
  H   H18       1.0  0.36968  0.72867  0.77033  1.0000
  H   H19       1.0  0.47004  0.23202  0.91616  1.0000
  H   H20       1.0  0.52996  0.76798  0.08384  1.0000
  H   H21       1.0  0.59467  0.27846  0.05944  1.0000
  H   H22       1.0  0.40533  0.72153  0.94056  1.0000
  H   H23       1.0  0.63056  0.13111  0.44910  1.0000
  H   H24       1.0  0.36944  0.86889  0.55090  1.0000
  H   H25       1.0  0.36194  0.39834  0.51230  1.0000
  H   H26       1.0  0.63806  0.60166  0.48770  1.0000
  H   H27       1.0  0.39321  0.36364  0.29277  1.0000
  H   H28       1.0  0.60679  0.63636  0.70723  1.0000
  H   H29       1.0  0.60294  0.49336  0.21710  1.0000
  H   H30       1.0  0.39706  0.50664  0.78290  1.0000
  H   H31       1.0  0.21777  0.58265  0.07346  1.0000
  H   H32       1.0  0.78223  0.41736  0.92654  1.0000
  H   H33       1.0  0.23219  0.33390  0.91954  1.0000
  H   H34       1.0  0.76781  0.66610  0.08046  1.0000
  H   H35       1.0  0.81463  0.57609  0.34076  1.0000
  H   H36       1.0  0.18537  0.42391  0.65924  1.0000
  H   H37       1.0  0.89989  0.48123  0.27553  1.0000
  H   H38       1.0  0.10011  0.51877  0.72447  1.0000
  H   H39       1.0  0.83603  0.42000  0.61901  1.0000
  H   H40       1.0  0.16397  0.58000  0.38099  1.0000
  H   H41       1.0  0.85548  0.57625  0.63122  1.0000
  H   H42       1.0  0.14453  0.42375  0.36879  1.0000
  C   C1        1.0  0.98411  0.91920  0.64565  1.0000
  C   C2        1.0  0.01589  0.08080  0.35435  1.0000
  C   C3        1.0  0.10417  0.98050  0.63591  1.0000
  C   C4        1.0  0.89583  0.01950  0.36409  1.0000
  C   C5        1.0  0.12740  0.11637  0.65262  1.0000
  C   C6        1.0  0.87260  0.88363  0.34738  1.0000
  C   C7        1.0  0.02476  0.18792  0.67178  1.0000
  C   C8        1.0  0.97524  0.81208  0.32822  1.0000
  C   C9        1.0  0.90296  0.12724  0.67950  1.0000
  C   C10       1.0  0.09705  0.87276  0.32050  1.0000
  C   C11       1.0  0.88401  0.99298  0.66912  1.0000
  C   C12       1.0  0.11600  0.00702  0.33088  1.0000
  C   C13       1.0  0.96450  0.77418  0.63113  1.0000
  C   C14       1.0  0.03550  0.22582  0.36887  1.0000
  C   C15       1.0  0.26126  0.18653  0.65475  1.0000
  C   C16       1.0  0.73875  0.81347  0.34525  1.0000
  C   C17       1.0  0.79541  0.20899  0.69642  1.0000
  C   C18       1.0  0.20458  0.79101  0.30358  1.0000
  C   C19       1.0  0.44492  0.10819  0.12857  1.0000
  C   C20       1.0  0.55508  0.89181  0.87143  1.0000
  C   C21       1.0  0.36291  0.00022  0.13419  1.0000
  C   C22       1.0  0.63709  0.99978  0.86581  1.0000
  C   C23       1.0  0.24209  0.92496  0.04071  1.0000
  C   C24       1.0  0.75790  0.07504  0.95929  1.0000
  C   C25       1.0  0.20165  0.95553  0.93808  1.0000
  C   C26       1.0  0.79835  0.04446  0.06191  1.0000
  C   C27       1.0  0.28391  0.06134  0.93128  1.0000
  C   C28       1.0  0.71609  0.93865  0.06872  1.0000
  C   C29       1.0  0.40502  0.13916  0.02544  1.0000
  C   C30       1.0  0.59497  0.86084  0.97455  1.0000
  C   C31       1.0  0.57078  0.18671  0.23757  1.0000
  C   C32       1.0  0.42922  0.81329  0.76243  1.0000
  C   C33       1.0  0.48320  0.25564  0.01109  1.0000
  C   C34       1.0  0.51680  0.74435  0.98890  1.0000
  C   C35       1.0  0.56510  0.20239  0.44022  1.0000
  C   C36       1.0  0.43490  0.79761  0.55978  1.0000
  C   C37       1.0  0.42436  0.33969  0.46796  1.0000
  C   C38       1.0  0.57564  0.66031  0.53204  1.0000
  C   C39       1.0  0.43972  0.32402  0.35960  1.0000
  C   C40       1.0  0.56028  0.67598  0.64040  1.0000
  C   C41       1.0  0.50012  0.48537  0.15837  1.0000
  C   C42       1.0  0.49988  0.51463  0.84163  1.0000
  C   C43       1.0  0.30031  0.52768  0.07948  1.0000
  C   C44       1.0  0.69969  0.47232  0.92052  1.0000
  C   C45       1.0  0.30587  0.40472  0.00337  1.0000
  C   C46       1.0  0.69413  0.59528  0.99663  1.0000
  N   N1        1.0  0.50319  0.26368  0.51746  1.0000
  N   N2        1.0  0.49681  0.73632  0.48254  1.0000
  N   N3        1.0  0.52963  0.23784  0.34397  1.0000
  N   N4        1.0  0.47037  0.76216  0.65603  1.0000
  N   N5        1.0  0.42227  0.57722  0.17590  1.0000
  N   N6        1.0  0.57773  0.42278  0.82410  1.0000
  N   N7        1.0  0.43301  0.37963  0.05484  1.0000
  N   N8        1.0  0.56699  0.62037  0.94515  1.0000
  O   O1        1.0  0.02027  0.70207  0.55996  1.0000
  O   O2        1.0  0.97973  0.29793  0.44004  1.0000
  O   O3        1.0  0.89764  0.73603  0.68938  1.0000
  O   O4        1.0  0.10236  0.26397  0.31062  1.0000
  O   O5        1.0  0.67874  0.14613  0.69204  1.0000
  O   O6        1.0  0.32126  0.85387  0.30796  1.0000
  O   O7        1.0  0.82073  0.33143  0.71207  1.0000
  O   O8        1.0  0.17926  0.66857  0.28792  1.0000
  O   O9        1.0  0.27198  0.30058  0.64688  1.0000
  O   O10       1.0  0.72802  0.69942  0.35312  1.0000
  O   O11       1.0  0.36475  0.12781  0.66933  1.0000
  O   O12       1.0  0.63526  0.87219  0.33067  1.0000
  O   O13       1.0  0.84000  0.48559  0.32416  1.0000
  O   O14       1.0  0.16001  0.51441  0.67585  1.0000
  O   O15       1.0  0.84123  0.47995  0.57465  1.0000
  O   O16       1.0  0.15878  0.52006  0.42535  1.0000
