data_image0
_chemical_formula_structural       Zn4H56C48S8N16
_chemical_formula_sum              "Zn4 H56 C48 S8 N16"
_cell_length_a       8.10339
_cell_length_b       13.138
_cell_length_c       13.3726
_cell_angle_alpha    89.9997
_cell_angle_beta     90.0003
_cell_angle_gamma    90.0004

_space_group_name_H-M_alt    "P 1"
_space_group_IT_number       1

loop_
  _space_group_symop_operation_xyz
  'x, y, z'

loop_
  _atom_site_type_symbol
  _atom_site_label
  _atom_site_symmetry_multiplicity
  _atom_site_fract_x
  _atom_site_fract_y
  _atom_site_fract_z
  _atom_site_occupancy
  Zn  Zn1       1.0  0.04070  0.87497  0.93325  1.0000
  Zn  Zn2       1.0  0.45930  0.12503  0.43325  1.0000
  Zn  Zn3       1.0  0.54070  0.62502  0.06675  1.0000
  Zn  Zn4       1.0  0.95930  0.37498  0.56675  1.0000
  H   H1        1.0  0.85932  0.84839  0.31550  1.0000
  H   H2        1.0  0.64066  0.15162  0.81549  1.0000
  H   H3        1.0  0.35934  0.65162  0.68450  1.0000
  H   H4        1.0  0.14065  0.34838  0.18450  1.0000
  H   H5        1.0  0.55945  0.18566  0.99794  1.0000
  H   H6        1.0  0.94055  0.81435  0.49794  1.0000
  H   H7        1.0  0.05943  0.31433  0.00207  1.0000
  H   H8        1.0  0.44058  0.68567  0.50204  1.0000
  H   H9        1.0  0.11160  0.99387  0.12443  1.0000
  H   H10       1.0  0.38839  0.00614  0.62443  1.0000
  H   H11       1.0  0.61161  0.50614  0.87557  1.0000
  H   H12       1.0  0.88839  0.49386  0.37557  1.0000
  H   H13       1.0  0.03475  0.00046  0.25052  1.0000
  H   H14       1.0  0.46526  0.99955  0.75052  1.0000
  H   H15       1.0  0.53474  0.49955  0.74948  1.0000
  H   H16       1.0  0.96525  0.50045  0.24949  1.0000
  H   H17       1.0  0.18637  0.90904  0.21659  1.0000
  H   H18       1.0  0.31363  0.09096  0.71659  1.0000
  H   H19       1.0  0.68638  0.59095  0.78340  1.0000
  H   H20       1.0  0.81362  0.40904  0.28341  1.0000
  H   H21       1.0  0.45871  0.90741  0.05011  1.0000
  H   H22       1.0  0.04129  0.09260  0.55011  1.0000
  H   H23       1.0  0.95869  0.59258  0.94989  1.0000
  H   H24       1.0  0.54131  0.40742  0.44988  1.0000
  H   H25       1.0  0.63403  0.97743  0.00587  1.0000
  H   H26       1.0  0.86598  0.02257  0.50587  1.0000
  H   H27       1.0  0.13402  0.52256  0.99414  1.0000
  H   H28       1.0  0.36599  0.47744  0.49413  1.0000
  H   H29       1.0  0.53670  0.01255  0.11945  1.0000
  H   H30       1.0  0.96331  0.98745  0.61945  1.0000
  H   H31       1.0  0.03668  0.48744  0.88056  1.0000
  H   H32       1.0  0.46332  0.51256  0.38055  1.0000
  H   H33       1.0  0.60389  0.62121  0.26057  1.0000
  H   H34       1.0  0.89610  0.37880  0.76057  1.0000
  H   H35       1.0  0.10391  0.87880  0.73943  1.0000
  H   H36       1.0  0.39610  0.12120  0.23943  1.0000
  H   H37       1.0  0.69912  0.69678  0.35608  1.0000
  H   H38       1.0  0.80089  0.30322  0.85608  1.0000
  H   H39       1.0  0.19912  0.80322  0.64392  1.0000
  H   H40       1.0  0.30087  0.19678  0.14392  1.0000
  H   H41       1.0  0.51708  0.74027  0.29790  1.0000
  H   H42       1.0  0.98292  0.25973  0.79790  1.0000
  H   H43       1.0  0.01708  0.75973  0.70210  1.0000
  H   H44       1.0  0.48292  0.24027  0.20210  1.0000
  H   H45       1.0  0.27592  0.35709  0.84424  1.0000
  H   H46       1.0  0.22408  0.64292  0.34423  1.0000
  H   H47       1.0  0.77591  0.14290  0.15577  1.0000
  H   H48       1.0  0.72410  0.85709  0.65576  1.0000
  H   H49       1.0  0.37655  0.36950  0.96304  1.0000
  H   H50       1.0  0.12345  0.63050  0.46303  1.0000
  H   H51       1.0  0.87655  0.13048  0.03696  1.0000
  H   H52       1.0  0.62346  0.86951  0.53696  1.0000
  H   H53       1.0  0.49176  0.33304  0.85671  1.0000
  H   H54       1.0  0.00823  0.66696  0.35670  1.0000
  H   H55       1.0  0.99175  0.16695  0.14330  1.0000
  H   H56       1.0  0.50825  0.83305  0.64330  1.0000
  C   C1        1.0  0.94496  0.87440  0.16468  1.0000
  C   C2        1.0  0.55504  0.12560  0.66468  1.0000
  C   C3        1.0  0.44496  0.62560  0.83531  1.0000
  C   C4        1.0  0.05504  0.37440  0.33532  1.0000
  C   C5        1.0  0.80716  0.77919  0.04078  1.0000
  C   C6        1.0  0.69285  0.22081  0.54078  1.0000
  C   C7        1.0  0.30716  0.72081  0.95922  1.0000
  C   C8        1.0  0.19285  0.27919  0.45922  1.0000
  C   C9        1.0  0.33477  0.21554  0.91487  1.0000
  C   C10       1.0  0.16523  0.78446  0.41487  1.0000
  C   C11       1.0  0.83476  0.28445  0.08513  1.0000
  C   C12       1.0  0.66524  0.71555  0.58513  1.0000
  C   C13       1.0  0.40188  0.05306  0.98683  1.0000
  C   C14       1.0  0.09812  0.94695  0.48683  1.0000
  C   C15       1.0  0.90187  0.44694  0.01318  1.0000
  C   C16       1.0  0.59814  0.55307  0.51317  1.0000
  C   C17       1.0  0.15669  0.07986  0.90155  1.0000
  C   C18       1.0  0.34330  0.92014  0.40155  1.0000
  C   C19       1.0  0.65669  0.42013  0.09846  1.0000
  C   C20       1.0  0.84331  0.57986  0.59846  1.0000
  C   C21       1.0  0.84678  0.82798  0.23711  1.0000
  C   C22       1.0  0.65321  0.17203  0.73710  1.0000
  C   C23       1.0  0.34679  0.67202  0.76289  1.0000
  C   C24       1.0  0.15322  0.32798  0.26289  1.0000
  C   C25       1.0  0.44478  0.15458  0.96858  1.0000
  C   C26       1.0  0.05522  0.84543  0.46858  1.0000
  C   C27       1.0  0.94476  0.34542  0.03142  1.0000
  C   C28       1.0  0.55524  0.65458  0.53141  1.0000
  C   C29       1.0  0.73492  0.75299  0.20832  1.0000
  C   C30       1.0  0.76508  0.24702  0.70833  1.0000
  C   C31       1.0  0.23492  0.74701  0.79167  1.0000
  C   C32       1.0  0.26508  0.25299  0.29167  1.0000
  C   C33       1.0  0.07588  0.94969  0.19033  1.0000
  C   C34       1.0  0.42412  0.05031  0.69033  1.0000
  C   C35       1.0  0.57588  0.55031  0.80966  1.0000
  C   C36       1.0  0.92412  0.44969  0.30967  1.0000
  C   C37       1.0  0.51368  0.98329  0.04359  1.0000
  C   C38       1.0  0.98632  0.01671  0.54359  1.0000
  C   C39       1.0  0.01367  0.51670  0.95642  1.0000
  C   C40       1.0  0.48634  0.48330  0.45641  1.0000
  C   C41       1.0  0.63400  0.69903  0.28430  1.0000
  C   C42       1.0  0.86600  0.30098  0.78431  1.0000
  C   C43       1.0  0.13400  0.80098  0.71569  1.0000
  C   C44       1.0  0.36599  0.19902  0.21569  1.0000
  C   C45       1.0  0.37103  0.32503  0.89321  1.0000
  C   C46       1.0  0.12896  0.67497  0.39320  1.0000
  C   C47       1.0  0.87102  0.17496  0.10679  1.0000
  C   C48       1.0  0.62897  0.82503  0.60679  1.0000
  S   S1        1.0  0.78839  0.76105  0.91520  1.0000
  S   S2        1.0  0.71162  0.23894  0.41521  1.0000
  S   S3        1.0  0.28839  0.73894  0.08479  1.0000
  S   S4        1.0  0.21162  0.26106  0.58480  1.0000
  S   S5        1.0  0.97179  0.02797  0.85965  1.0000
  S   S6        1.0  0.52819  0.97203  0.35964  1.0000
  S   S7        1.0  0.47179  0.47202  0.14037  1.0000
  S   S8        1.0  0.02821  0.52797  0.64037  1.0000
  N   N1        1.0  0.92490  0.84846  0.06843  1.0000
  N   N2        1.0  0.57511  0.15154  0.56843  1.0000
  N   N3        1.0  0.42490  0.65154  0.93157  1.0000
  N   N4        1.0  0.07510  0.34846  0.43157  1.0000
  N   N5        1.0  0.25680  0.01589  0.95381  1.0000
  N   N6        1.0  0.24319  0.98412  0.45381  1.0000
  N   N7        1.0  0.75679  0.48411  0.04620  1.0000
  N   N8        1.0  0.74320  0.51589  0.54620  1.0000
  N   N9        1.0  0.19072  0.17799  0.88081  1.0000
  N   N10       1.0  0.30928  0.82201  0.38081  1.0000
  N   N11       1.0  0.69071  0.32200  0.11919  1.0000
  N   N12       1.0  0.80928  0.67800  0.61919  1.0000
  N   N13       1.0  0.71473  0.72884  0.11030  1.0000
  N   N14       1.0  0.78528  0.27116  0.61031  1.0000
  N   N15       1.0  0.21473  0.77116  0.88969  1.0000
  N   N16       1.0  0.28528  0.22884  0.38969  1.0000
