data_image0
_chemical_formula_structural       Mn2H44C52N8O8
_chemical_formula_sum              "Mn2 H44 C52 N8 O8"
_cell_length_a       8.65534
_cell_length_b       11.1971
_cell_length_c       13.6189
_cell_angle_alpha    81.0441
_cell_angle_beta     71.4537
_cell_angle_gamma    67.2882

_space_group_name_H-M_alt    "P 1"
_space_group_IT_number       1

loop_
  _space_group_symop_operation_xyz
  'x, y, z'

loop_
  _atom_site_type_symbol
  _atom_site_label
  _atom_site_symmetry_multiplicity
  _atom_site_fract_x
  _atom_site_fract_y
  _atom_site_fract_z
  _atom_site_occupancy
  Mn  Mn1       1.0  0.00480  0.49560  0.00854  1.0000
  Mn  Mn2       1.0  0.50880  0.00464  0.49134  1.0000
  H   H1        1.0  0.29701  0.89539  0.25116  1.0000
  H   H2        1.0  0.44410  0.60476  0.24871  1.0000
  H   H3        1.0  0.70304  0.10057  0.74729  1.0000
  H   H4        1.0  0.55064  0.39889  0.75294  1.0000
  H   H5        1.0  0.10298  0.90262  0.35137  1.0000
  H   H6        1.0  0.35708  0.59783  0.14862  1.0000
  H   H7        1.0  0.89827  0.09736  0.64992  1.0000
  H   H8        1.0  0.64587  0.40187  0.85004  1.0000
  H   H9        1.0  0.30723  0.77918  0.35581  1.0000
  H   H10       1.0  0.44314  0.72093  0.14405  1.0000
  H   H11       1.0  0.69424  0.22095  0.64546  1.0000
  H   H12       1.0  0.55974  0.27876  0.85492  1.0000
  H   H13       1.0  0.02214  0.10809  0.41191  1.0000
  H   H14       1.0  0.54238  0.39171  0.08823  1.0000
  H   H15       1.0  0.97835  0.88852  0.59095  1.0000
  H   H16       1.0  0.45850  0.61130  0.90925  1.0000
  H   H17       1.0  0.11744  0.32588  0.62643  1.0000
  H   H18       1.0  0.07029  0.17397  0.87393  1.0000
  H   H19       1.0  0.88351  0.67566  0.37117  1.0000
  H   H20       1.0  0.93146  0.82419  0.12901  1.0000
  H   H21       1.0  0.61489  0.61178  0.61638  1.0000
  H   H22       1.0  0.84371  0.88797  0.88359  1.0000
  H   H23       1.0  0.38328  0.38536  0.38154  1.0000
  H   H24       1.0  0.15087  0.11501  0.11820  1.0000
  H   H25       1.0  0.63179  0.50645  0.46437  1.0000
  H   H26       1.0  0.60315  0.99307  0.03562  1.0000
  H   H27       1.0  0.36880  0.48971  0.53316  1.0000
  H   H28       1.0  0.39210  0.01089  0.96644  1.0000
  H   H29       1.0  0.88218  0.30615  0.39884  1.0000
  H   H30       1.0  0.58734  0.19347  0.10124  1.0000
  H   H31       1.0  0.12103  0.69141  0.59882  1.0000
  H   H32       1.0  0.41214  0.80882  0.90101  1.0000
  H   H33       1.0  0.04924  0.38285  0.78316  1.0000
  H   H34       1.0  0.21628  0.11701  0.71692  1.0000
  H   H35       1.0  0.94505  0.61831  0.21726  1.0000
  H   H36       1.0  0.78148  0.88149  0.28303  1.0000
  H   H37       1.0  0.71794  0.75224  0.89356  1.0000
  H   H38       1.0  0.36359  0.74812  0.60605  1.0000
  H   H39       1.0  0.27986  0.25112  0.10125  1.0000
  H   H40       1.0  0.63190  0.24926  0.39835  1.0000
  H   H41       1.0  0.65664  0.72483  0.71149  1.0000
  H   H42       1.0  0.09344  0.77501  0.78853  1.0000
  H   H43       1.0  0.34172  0.27519  0.28374  1.0000
  H   H44       1.0  0.90089  0.22512  0.21607  1.0000
  C   C1        1.0  0.24321  0.88112  0.33506  1.0000
  C   C2        1.0  0.45981  0.61906  0.16483  1.0000
  C   C3        1.0  0.75857  0.11834  0.66412  1.0000
  C   C4        1.0  0.54087  0.38127  0.83609  1.0000
  C   C5        1.0  0.27756  0.96711  0.39333  1.0000
  C   C6        1.0  0.63823  0.53293  0.10653  1.0000
  C   C7        1.0  0.72875  0.03498  0.60095  1.0000
  C   C8        1.0  0.36485  0.46501  0.89925  1.0000
  C   C9        1.0  0.14719  0.08736  0.42566  1.0000
  C   C10       1.0  0.66039  0.41264  0.07427  1.0000
  C   C11       1.0  0.85678  0.91268  0.57177  1.0000
  C   C12       1.0  0.34180  0.58722  0.92846  1.0000
  C   C13       1.0  0.16389  0.17928  0.47713  1.0000
  C   C14       1.0  0.82046  0.32074  0.02286  1.0000
  C   C15       1.0  0.84143  0.82260  0.51773  1.0000
  C   C16       1.0  0.18244  0.67743  0.98240  1.0000
  C   C17       1.0  0.01197  0.29914  0.51271  1.0000
  C   C18       1.0  0.82413  0.20068  0.98743  1.0000
  C   C19       1.0  0.99035  0.70028  0.48482  1.0000
  C   C20       1.0  0.17640  0.79978  0.01523  1.0000
  C   C21       1.0  0.00554  0.36323  0.59543  1.0000
  C   C22       1.0  0.96471  0.13656  0.90484  1.0000
  C   C23       1.0  0.99512  0.63656  0.40238  1.0000
  C   C24       1.0  0.03511  0.86343  0.09772  1.0000
  C   C25       1.0  0.86241  0.47392  0.63355  1.0000
  C   C26       1.0  0.97054  0.02585  0.86666  1.0000
  C   C27       1.0  0.13641  0.52467  0.36444  1.0000
  C   C28       1.0  0.02638  0.97542  0.13560  1.0000
  C   C29       1.0  0.72533  0.52444  0.58780  1.0000
  C   C30       1.0  0.83814  0.97529  0.91229  1.0000
  C   C31       1.0  0.27362  0.47309  0.41012  1.0000
  C   C32       1.0  0.15762  0.02715  0.08974  1.0000
  C   C33       1.0  0.73467  0.46368  0.50297  1.0000
  C   C34       1.0  0.70182  0.03596  0.99708  1.0000
  C   C35       1.0  0.26565  0.53339  0.49481  1.0000
  C   C36       1.0  0.29453  0.96697  0.00497  1.0000
  C   C37       1.0  0.87519  0.35142  0.46605  1.0000
  C   C38       1.0  0.69294  0.14828  0.03406  1.0000
  C   C39       1.0  0.12658  0.64650  0.53182  1.0000
  C   C40       1.0  0.30579  0.85370  0.96804  1.0000
  C   C41       1.0  0.95300  0.47998  0.78806  1.0000
  C   C42       1.0  0.22178  0.01992  0.71208  1.0000
  C   C43       1.0  0.04188  0.52160  0.21126  1.0000
  C   C44       1.0  0.77524  0.97842  0.28874  1.0000
  C   C45       1.0  0.77957  0.67191  0.84204  1.0000
  C   C46       1.0  0.29366  0.82822  0.65781  1.0000
  C   C47       1.0  0.21787  0.33010  0.15400  1.0000
  C   C48       1.0  0.70194  0.17018  0.34570  1.0000
  C   C49       1.0  0.74501  0.65839  0.75347  1.0000
  C   C50       1.0  0.15723  0.84157  0.74654  1.0000
  C   C51       1.0  0.25239  0.34242  0.24270  1.0000
  C   C52       1.0  0.83781  0.15779  0.25713  1.0000
  N   N1        1.0  0.90903  0.56031  0.86251  1.0000
  N   N2        1.0  0.33207  0.93981  0.63744  1.0000
  N   N3        1.0  0.08691  0.44277  0.13432  1.0000
  N   N4        1.0  0.66418  0.05737  0.36552  1.0000
  N   N5        1.0  0.85581  0.53520  0.71952  1.0000
  N   N6        1.0  0.11123  0.96462  0.78066  1.0000
  N   N7        1.0  0.14119  0.46463  0.27850  1.0000
  N   N8        1.0  0.88503  0.03542  0.22151  1.0000
  O   O1        1.0  0.42987  0.92234  0.40930  1.0000
  O   O2        1.0  0.76184  0.57770  0.09054  1.0000
  O   O3        1.0  0.58180  0.08349  0.57804  1.0000
  O   O4        1.0  0.24312  0.41682  0.92206  1.0000
  O   O5        1.0  0.30497  0.16568  0.49999  1.0000
  O   O6        1.0  0.97077  0.33446  0.99992  1.0000
  O   O7        1.0  0.70363  0.84026  0.48942  1.0000
  O   O8        1.0  0.03376  0.66006  0.01059  1.0000
