data_image0
_chemical_formula_structural       Cu2H8C20N12O4
_chemical_formula_sum              "Cu2 H8 C20 N12 O4"
_cell_length_a       7.05775
_cell_length_b       7.05771
_cell_length_c       12.146
_cell_angle_alpha    92.9454
_cell_angle_beta     92.9466
_cell_angle_gamma    109.117

_space_group_name_H-M_alt    "P 1"
_space_group_IT_number       1

loop_
  _space_group_symop_operation_xyz
  'x, y, z'

loop_
  _atom_site_type_symbol
  _atom_site_label
  _atom_site_symmetry_multiplicity
  _atom_site_fract_x
  _atom_site_fract_y
  _atom_site_fract_z
  _atom_site_occupancy
  Cu  Cu1       1.0  0.00001  0.00000  1.00000  1.0000
  Cu  Cu2       1.0  1.00000  0.00000  0.50000  1.0000
  H   H1        1.0  0.95325  0.35857  0.08285  1.0000
  H   H2        1.0  0.64141  0.04674  0.41715  1.0000
  H   H3        1.0  0.04676  0.64143  0.91715  1.0000
  H   H4        1.0  0.35858  0.95325  0.58285  1.0000
  H   H5        1.0  0.15511  0.42368  0.02524  1.0000
  H   H6        1.0  0.57631  0.84489  0.47477  1.0000
  H   H7        1.0  0.84490  0.57632  0.97477  1.0000
  H   H8        1.0  0.42368  0.15509  0.52524  1.0000
  C   C1        1.0  0.60632  0.39370  0.75001  1.0000
  C   C2        1.0  0.39368  0.60631  0.24999  1.0000
  C   C3        1.0  0.48232  0.51768  0.75001  1.0000
  C   C4        1.0  0.51767  0.48232  0.24999  1.0000
  C   C5        1.0  0.76664  0.43108  0.67793  1.0000
  C   C6        1.0  0.56892  0.23338  0.82208  1.0000
  C   C7        1.0  0.23337  0.56893  0.32207  1.0000
  C   C8        1.0  0.43108  0.76663  0.17792  1.0000
  C   C9        1.0  0.84686  0.61683  0.63218  1.0000
  C   C10       1.0  0.38320  0.15311  0.86782  1.0000
  C   C11       1.0  0.15313  0.38317  0.36782  1.0000
  C   C12       1.0  0.61680  0.84688  0.13218  1.0000
  C   C13       1.0  0.71051  0.14332  0.85391  1.0000
  C   C14       1.0  0.85666  0.28949  0.64607  1.0000
  C   C15       1.0  0.28951  0.85670  0.14608  1.0000
  C   C16       1.0  0.14333  0.71052  0.35392  1.0000
  C   C17       1.0  0.37779  0.54616  0.84103  1.0000
  C   C18       1.0  0.45382  0.62220  0.65899  1.0000
  C   C19       1.0  0.62222  0.45383  0.15897  1.0000
  C   C20       1.0  0.54616  0.37779  0.34101  1.0000
  N   N1        1.0  0.92133  0.77034  0.59425  1.0000
  N   N2        1.0  0.22967  0.07867  0.90576  1.0000
  N   N3        1.0  0.07867  0.22967  0.40575  1.0000
  N   N4        1.0  0.77033  0.92133  0.09424  1.0000
  N   N5        1.0  0.81878  0.05689  0.88228  1.0000
  N   N6        1.0  0.94310  0.18121  0.61770  1.0000
  N   N7        1.0  0.18122  0.94311  0.11772  1.0000
  N   N8        1.0  0.05690  0.81879  0.38229  1.0000
  N   N9        1.0  0.29139  0.57982  0.91554  1.0000
  N   N10       1.0  0.42017  0.70860  0.58448  1.0000
  N   N11       1.0  0.70862  0.42019  0.08446  1.0000
  N   N12       1.0  0.57981  0.29139  0.41552  1.0000
  O   O1        1.0  0.08148  0.33262  0.07908  1.0000
  O   O2        1.0  0.66736  0.91852  0.42092  1.0000
  O   O3        1.0  0.91853  0.66737  0.92092  1.0000
  O   O4        1.0  0.33263  0.08147  0.57909  1.0000
