data_image0
_chemical_formula_structural       Cd2H52C68N8O8
_chemical_formula_sum              "Cd2 H52 C68 N8 O8"
_cell_length_a       9.73296
_cell_length_b       9.73296
_cell_length_c       16.733
_cell_angle_alpha    89.2119
_cell_angle_beta     89.2119
_cell_angle_gamma    76.0113

_space_group_name_H-M_alt    "P 1"
_space_group_IT_number       1

loop_
  _space_group_symop_operation_xyz
  'x, y, z'

loop_
  _atom_site_type_symbol
  _atom_site_label
  _atom_site_symmetry_multiplicity
  _atom_site_fract_x
  _atom_site_fract_y
  _atom_site_fract_z
  _atom_site_occupancy
  Cd  Cd1       1.0  0.50000  0.50000  0.50000  1.0000
  Cd  Cd2       1.0  0.50000  0.50000  1.00000  1.0000
  H   H1        1.0  0.31220  0.82726  0.20755  1.0000
  H   H2        1.0  0.17274  0.68780  0.29245  1.0000
  H   H3        1.0  0.68780  0.17274  0.79245  1.0000
  H   H4        1.0  0.82726  0.31220  0.70755  1.0000
  H   H5        1.0  0.30065  0.98962  0.15315  1.0000
  H   H6        1.0  0.01038  0.69935  0.34685  1.0000
  H   H7        1.0  0.69935  0.01038  0.84685  1.0000
  H   H8        1.0  0.98962  0.30065  0.65315  1.0000
  H   H9        1.0  0.16033  0.90189  0.14938  1.0000
  H   H10       1.0  0.09811  0.83967  0.35061  1.0000
  H   H11       1.0  0.83967  0.09811  0.85061  1.0000
  H   H12       1.0  0.90189  0.16033  0.64939  1.0000
  H   H13       1.0  0.31508  0.98833  0.01274  1.0000
  H   H14       1.0  0.01167  0.68492  0.48726  1.0000
  H   H15       1.0  0.68491  0.01167  0.98726  1.0000
  H   H16       1.0  0.98833  0.31509  0.51274  1.0000
  H   H17       1.0  0.49795  0.74656  0.78901  1.0000
  H   H18       1.0  0.25344  0.50205  0.71099  1.0000
  H   H19       1.0  0.50205  0.25344  0.21099  1.0000
  H   H20       1.0  0.74656  0.49795  0.28901  1.0000
  H   H21       1.0  0.42122  0.15933  0.67607  1.0000
  H   H22       1.0  0.84067  0.57878  0.82394  1.0000
  H   H23       1.0  0.57878  0.84067  0.32394  1.0000
  H   H24       1.0  0.15933  0.42122  0.17606  1.0000
  H   H25       1.0  0.34050  0.26907  0.80734  1.0000
  H   H26       1.0  0.73093  0.65950  0.69266  1.0000
  H   H27       1.0  0.65950  0.73093  0.19266  1.0000
  H   H28       1.0  0.26907  0.34050  0.30734  1.0000
  H   H29       1.0  0.33070  0.12082  0.92660  1.0000
  H   H30       1.0  0.87918  0.66930  0.57340  1.0000
  H   H31       1.0  0.66930  0.87918  0.07340  1.0000
  H   H32       1.0  0.12082  0.33070  0.42660  1.0000
  H   H33       1.0  0.70926  0.71987  0.42216  1.0000
  H   H34       1.0  0.28013  0.29074  0.07784  1.0000
  H   H35       1.0  0.29074  0.28013  0.57784  1.0000
  H   H36       1.0  0.71987  0.70926  0.92216  1.0000
  H   H37       1.0  0.83744  0.91484  0.40716  1.0000
  H   H38       1.0  0.08516  0.16256  0.09284  1.0000
  H   H39       1.0  0.16256  0.08516  0.59284  1.0000
  H   H40       1.0  0.91484  0.83744  0.90716  1.0000
  H   H41       1.0  0.81312  0.09923  0.50970  1.0000
  H   H42       1.0  0.90077  0.18688  0.99030  1.0000
  H   H43       1.0  0.18688  0.90077  0.49030  1.0000
  H   H44       1.0  0.09923  0.81312  0.00970  1.0000
  H   H45       1.0  0.65900  0.10164  0.62952  1.0000
  H   H46       1.0  0.89836  0.34100  0.87048  1.0000
  H   H47       1.0  0.34100  0.89836  0.37048  1.0000
  H   H48       1.0  0.10164  0.65900  0.12952  1.0000
  H   H49       1.0  0.39451  0.71116  0.65779  1.0000
  H   H50       1.0  0.28884  0.60549  0.84221  1.0000
  H   H51       1.0  0.60549  0.28884  0.34221  1.0000
  H   H52       1.0  0.71116  0.39451  0.15779  1.0000
  C   C1        1.0  0.27624  0.88533  0.15215  1.0000
  C   C2        1.0  0.11467  0.72376  0.34785  1.0000
  C   C3        1.0  0.72376  0.11467  0.84785  1.0000
  C   C4        1.0  0.88533  0.27624  0.65215  1.0000
  C   C5        1.0  0.34493  0.79841  0.08115  1.0000
  C   C6        1.0  0.20159  0.65507  0.41885  1.0000
  C   C7        1.0  0.65507  0.20160  0.91885  1.0000
  C   C8        1.0  0.79840  0.34493  0.58115  1.0000
  C   C9        1.0  0.35731  0.87440  0.00917  1.0000
  C   C10       1.0  0.12560  0.64269  0.49083  1.0000
  C   C11       1.0  0.64269  0.12560  0.99083  1.0000
  C   C12       1.0  0.87440  0.35731  0.50917  1.0000
  C   C13       1.0  0.41557  0.82153  0.93521  1.0000
  C   C14       1.0  0.17847  0.58443  0.56479  1.0000
  C   C15       1.0  0.58443  0.17847  0.06479  1.0000
  C   C16       1.0  0.82153  0.41557  0.43521  1.0000
  C   C17       1.0  0.41195  0.92205  0.86556  1.0000
  C   C18       1.0  0.07795  0.58805  0.63444  1.0000
  C   C19       1.0  0.58805  0.07795  0.13444  1.0000
  C   C20       1.0  0.92205  0.41195  0.36556  1.0000
  C   C21       1.0  0.46012  0.86142  0.79169  1.0000
  C   C22       1.0  0.13858  0.53988  0.70831  1.0000
  C   C23       1.0  0.53988  0.13858  0.20831  1.0000
  C   C24       1.0  0.86142  0.46012  0.29169  1.0000
  C   C25       1.0  0.46168  0.94618  0.72398  1.0000
  C   C26       1.0  0.05382  0.53832  0.77602  1.0000
  C   C27       1.0  0.53832  0.05382  0.27602  1.0000
  C   C28       1.0  0.94618  0.46168  0.22398  1.0000
  C   C29       1.0  0.41915  0.09369  0.72896  1.0000
  C   C30       1.0  0.90631  0.58085  0.77104  1.0000
  C   C31       1.0  0.58085  0.90631  0.27104  1.0000
  C   C32       1.0  0.09369  0.41915  0.22896  1.0000
  C   C33       1.0  0.37240  0.15420  0.80259  1.0000
  C   C34       1.0  0.84580  0.62760  0.69741  1.0000
  C   C35       1.0  0.62760  0.84580  0.19741  1.0000
  C   C36       1.0  0.15421  0.37240  0.30259  1.0000
  C   C37       1.0  0.36739  0.06999  0.87018  1.0000
  C   C38       1.0  0.93001  0.63261  0.62982  1.0000
  C   C39       1.0  0.63261  0.93001  0.12982  1.0000
  C   C40       1.0  0.06999  0.36739  0.37018  1.0000
  C   C41       1.0  0.59698  0.91171  0.59173  1.0000
  C   C42       1.0  0.08829  0.40302  0.90827  1.0000
  C   C43       1.0  0.40302  0.08829  0.40827  1.0000
  C   C44       1.0  0.91171  0.59698  0.09173  1.0000
  C   C45       1.0  0.61041  0.80505  0.53316  1.0000
  C   C46       1.0  0.19495  0.38959  0.96684  1.0000
  C   C47       1.0  0.38959  0.19495  0.46684  1.0000
  C   C48       1.0  0.80505  0.61041  0.03316  1.0000
  C   C49       1.0  0.69803  0.80379  0.46603  1.0000
  C   C50       1.0  0.19621  0.30197  0.03397  1.0000
  C   C51       1.0  0.30197  0.19621  0.53397  1.0000
  C   C52       1.0  0.80379  0.69803  0.96603  1.0000
  C   C53       1.0  0.76955  0.91129  0.45915  1.0000
  C   C54       1.0  0.08871  0.23045  0.04085  1.0000
  C   C55       1.0  0.23045  0.08871  0.54085  1.0000
  C   C56       1.0  0.91129  0.76955  0.95915  1.0000
  C   C57       1.0  0.75608  0.01637  0.51785  1.0000
  C   C58       1.0  0.98363  0.24392  0.98215  1.0000
  C   C59       1.0  0.24392  0.98363  0.48215  1.0000
  C   C60       1.0  0.01637  0.75608  0.01785  1.0000
  C   C61       1.0  0.66997  0.01855  0.58532  1.0000
  C   C62       1.0  0.98145  0.33003  0.91468  1.0000
  C   C63       1.0  0.33003  0.98145  0.41468  1.0000
  C   C64       1.0  0.01855  0.66997  0.08532  1.0000
  C   C65       1.0  0.46782  0.75909  0.62455  1.0000
  C   C66       1.0  0.24091  0.53218  0.87545  1.0000
  C   C67       1.0  0.53218  0.24091  0.37545  1.0000
  C   C68       1.0  0.75909  0.46782  0.12455  1.0000
  N   N1        1.0  0.52802  0.71258  0.55575  1.0000
  N   N2        1.0  0.28742  0.47198  0.94425  1.0000
  N   N3        1.0  0.47198  0.28742  0.44425  1.0000
  N   N4        1.0  0.71258  0.52802  0.05575  1.0000
  N   N5        1.0  0.50533  0.87859  0.64984  1.0000
  N   N6        1.0  0.12141  0.49467  0.85016  1.0000
  N   N7        1.0  0.49467  0.12141  0.35016  1.0000
  N   N8        1.0  0.87859  0.50533  0.14984  1.0000
  O   O1        1.0  0.38140  0.66513  0.09199  1.0000
  O   O2        1.0  0.33487  0.61860  0.40801  1.0000
  O   O3        1.0  0.61860  0.33487  0.90801  1.0000
  O   O4        1.0  0.66513  0.38140  0.59199  1.0000
  O   O5        1.0  0.47455  0.69194  0.91894  1.0000
  O   O6        1.0  0.30806  0.52545  0.58106  1.0000
  O   O7        1.0  0.52545  0.30806  0.08106  1.0000
  O   O8        1.0  0.69194  0.47455  0.41894  1.0000
