data_image0
_chemical_formula_structural       Rb8H28C24N4O24
_chemical_formula_sum              "Rb8 H28 C24 N4 O24"
_cell_length_a       5.22447
_cell_length_b       12.9974
_cell_length_c       16.8546
_cell_angle_alpha    90.0005
_cell_angle_beta     90.0009
_cell_angle_gamma    97.0356

_space_group_name_H-M_alt    "P 1"
_space_group_IT_number       1

loop_
  _space_group_symop_operation_xyz
  'x, y, z'

loop_
  _atom_site_type_symbol
  _atom_site_label
  _atom_site_symmetry_multiplicity
  _atom_site_fract_x
  _atom_site_fract_y
  _atom_site_fract_z
  _atom_site_occupancy
  Rb  Rb1       1.0  0.30421  0.09695  0.57002  1.0000
  Rb  Rb2       1.0  0.19578  0.40305  0.07003  1.0000
  Rb  Rb3       1.0  0.69578  0.90304  0.42997  1.0000
  Rb  Rb4       1.0  0.80421  0.59696  0.92998  1.0000
  Rb  Rb5       1.0  0.75184  0.92079  0.73970  1.0000
  Rb  Rb6       1.0  0.74817  0.57922  0.23970  1.0000
  Rb  Rb7       1.0  0.24817  0.07922  0.26030  1.0000
  Rb  Rb8       1.0  0.25183  0.42078  0.76030  1.0000
  H   H1        1.0  0.32445  0.23417  0.92409  1.0000
  H   H2        1.0  0.17555  0.26583  0.42409  1.0000
  H   H3        1.0  0.67555  0.76583  0.07591  1.0000
  H   H4        1.0  0.82447  0.73417  0.57590  1.0000
  H   H5        1.0  0.48657  0.03415  0.87162  1.0000
  H   H6        1.0  0.01343  0.46585  0.37162  1.0000
  H   H7        1.0  0.51343  0.96586  0.12838  1.0000
  H   H8        1.0  0.98656  0.53414  0.62839  1.0000
  H   H9        1.0  0.16742  0.05467  0.89646  1.0000
  H   H10       1.0  0.33259  0.44533  0.39646  1.0000
  H   H11       1.0  0.83259  0.94534  0.10354  1.0000
  H   H12       1.0  0.66741  0.55467  0.60354  1.0000
  H   H13       1.0  0.85279  0.18342  0.89517  1.0000
  H   H14       1.0  0.64721  0.31658  0.39516  1.0000
  H   H15       1.0  0.14720  0.81659  0.10483  1.0000
  H   H16       1.0  0.35281  0.68342  0.60483  1.0000
  H   H17       1.0  0.67625  0.24629  0.82256  1.0000
  H   H18       1.0  0.82376  0.25371  0.32255  1.0000
  H   H19       1.0  0.32375  0.75372  0.17745  1.0000
  H   H20       1.0  0.17627  0.74629  0.67745  1.0000
  H   H21       1.0  0.62351  0.19961  0.03337  1.0000
  H   H22       1.0  0.87649  0.30039  0.53336  1.0000
  H   H23       1.0  0.37646  0.80041  0.96664  1.0000
  H   H24       1.0  0.12355  0.69958  0.46664  1.0000
  H   H25       1.0  0.58759  0.07190  0.99657  1.0000
  H   H26       1.0  0.91238  0.42810  0.49656  1.0000
  H   H27       1.0  0.41242  0.92812  0.00344  1.0000
  H   H28       1.0  0.08760  0.57187  0.50344  1.0000
  C   C1        1.0  0.34708  0.09077  0.86847  1.0000
  C   C2        1.0  0.15291  0.40923  0.36847  1.0000
  C   C3        1.0  0.65292  0.90923  0.13153  1.0000
  C   C4        1.0  0.84709  0.59077  0.63153  1.0000
  C   C5        1.0  0.70390  0.23467  0.88624  1.0000
  C   C6        1.0  0.79609  0.26532  0.38624  1.0000
  C   C7        1.0  0.29609  0.76533  0.11376  1.0000
  C   C8        1.0  0.20392  0.73467  0.61376  1.0000
  C   C9        1.0  0.49179  0.14175  0.00162  1.0000
  C   C10       1.0  0.00820  0.35826  0.50161  1.0000
  C   C11       1.0  0.50821  0.85827  0.99838  1.0000
  C   C12       1.0  0.99181  0.64172  0.49839  1.0000
  C   C13       1.0  0.28582  0.11652  0.78242  1.0000
  C   C14       1.0  0.21416  0.38348  0.28241  1.0000
  C   C15       1.0  0.71417  0.88348  0.21759  1.0000
  C   C16       1.0  0.78583  0.61652  0.71759  1.0000
  C   C17       1.0  0.78676  0.33963  0.92600  1.0000
  C   C18       1.0  0.71327  0.16036  0.42599  1.0000
  C   C19       1.0  0.21325  0.66037  0.07400  1.0000
  C   C20       1.0  0.28673  0.83963  0.57400  1.0000
  C   C21       1.0  0.23250  0.12583  0.04536  1.0000
  C   C22       1.0  0.26748  0.37418  0.54536  1.0000
  C   C23       1.0  0.76750  0.87418  0.95464  1.0000
  C   C24       1.0  0.73253  0.62581  0.45464  1.0000
  N   N1        1.0  0.45677  0.18092  0.91901  1.0000
  N   N2        1.0  0.04322  0.31908  0.41901  1.0000
  N   N3        1.0  0.54322  0.81908  0.08099  1.0000
  N   N4        1.0  0.95680  0.68091  0.58099  1.0000
  O   O1        1.0  0.25903  0.03786  0.73668  1.0000
  O   O2        1.0  0.24093  0.46216  0.23669  1.0000
  O   O3        1.0  0.74097  0.96215  0.26332  1.0000
  O   O4        1.0  0.75900  0.53786  0.76332  1.0000
  O   O5        1.0  0.26060  0.20887  0.76399  1.0000
  O   O6        1.0  0.23939  0.29114  0.26399  1.0000
  O   O7        1.0  0.73939  0.79113  0.23601  1.0000
  O   O8        1.0  0.76064  0.70888  0.73601  1.0000
  O   O9        1.0  0.63355  0.37412  0.97485  1.0000
  O   O10       1.0  0.86648  0.12588  0.47484  1.0000
  O   O11       1.0  0.36649  0.62589  0.02515  1.0000
  O   O12       1.0  0.13351  0.87411  0.52514  1.0000
  O   O13       1.0  0.00603  0.38400  0.90538  1.0000
  O   O14       1.0  0.49397  0.11600  0.40538  1.0000
  O   O15       1.0  0.99399  0.61600  0.09462  1.0000
  O   O16       1.0  0.50600  0.88401  0.59462  1.0000
  O   O17       1.0  0.07604  0.18929  0.02803  1.0000
  O   O18       1.0  0.42396  0.31072  0.52803  1.0000
  O   O19       1.0  0.92395  0.81071  0.97196  1.0000
  O   O20       1.0  0.57606  0.68928  0.47196  1.0000
  O   O21       1.0  0.20466  0.05403  0.09662  1.0000
  O   O22       1.0  0.29532  0.44596  0.59661  1.0000
  O   O23       1.0  0.79532  0.94597  0.90338  1.0000
  O   O24       1.0  0.70470  0.55402  0.40338  1.0000
