data_image0
_chemical_formula_structural       Cu2H24C30S2N8O2
_chemical_formula_sum              "Cu2 H24 C30 S2 N8 O2"
_cell_length_a       7.96029
_cell_length_b       7.96024
_cell_length_c       11.1323
_cell_angle_alpha    87.9414
_cell_angle_beta     87.9419
_cell_angle_gamma    88.7674

_space_group_name_H-M_alt    "P 1"
_space_group_IT_number       1

loop_
  _space_group_symop_operation_xyz
  'x, y, z'

loop_
  _atom_site_type_symbol
  _atom_site_label
  _atom_site_symmetry_multiplicity
  _atom_site_fract_x
  _atom_site_fract_y
  _atom_site_fract_z
  _atom_site_occupancy
  Cu  Cu1       1.0  0.03859  0.90639  0.93769  1.0000
  Cu  Cu2       1.0  0.90638  0.03860  0.43770  1.0000
  H   H1        1.0  0.54629  0.75261  0.09972  1.0000
  H   H2        1.0  0.75261  0.54629  0.59972  1.0000
  H   H3        1.0  0.26666  0.62146  0.13523  1.0000
  H   H4        1.0  0.62147  0.26666  0.63524  1.0000
  H   H5        1.0  0.16257  0.42091  0.98903  1.0000
  H   H6        1.0  0.42091  0.16257  0.48904  1.0000
  H   H7        1.0  0.33853  0.35265  0.80798  1.0000
  H   H8        1.0  0.35265  0.33852  0.30798  1.0000
  H   H9        1.0  0.62060  0.48140  0.77481  1.0000
  H   H10       1.0  0.48139  0.62059  0.27481  1.0000
  H   H11       1.0  0.04735  0.49015  0.66974  1.0000
  H   H12       1.0  0.49016  0.04735  0.16974  1.0000
  H   H13       1.0  0.23382  0.56877  0.59454  1.0000
  H   H14       1.0  0.56878  0.23382  0.09453  1.0000
  H   H15       1.0  0.03122  0.65844  0.56146  1.0000
  H   H16       1.0  0.65845  0.03122  0.06145  1.0000
  H   H17       1.0  0.41412  0.76253  0.58685  1.0000
  H   H18       1.0  0.76254  0.41412  0.08684  1.0000
  H   H19       1.0  0.65924  0.93079  0.63910  1.0000
  H   H20       1.0  0.93080  0.65924  0.13910  1.0000
  H   H21       1.0  0.64230  0.09583  0.82838  1.0000
  H   H22       1.0  0.09583  0.64230  0.32838  1.0000
  H   H23       1.0  0.37515  0.08285  0.95687  1.0000
  H   H24       1.0  0.08284  0.37515  0.45687  1.0000
  C   C1        1.0  0.97126  0.14189  0.69333  1.0000
  C   C2        1.0  0.14187  0.97127  0.19331  1.0000
  C   C3        1.0  0.76341  0.70873  0.91189  1.0000
  C   C4        1.0  0.70873  0.76341  0.41189  1.0000
  C   C5        1.0  0.59981  0.62628  0.93398  1.0000
  C   C6        1.0  0.62629  0.59981  0.43398  1.0000
  C   C7        1.0  0.49989  0.66469  0.03630  1.0000
  C   C8        1.0  0.66469  0.49988  0.53630  1.0000
  C   C9        1.0  0.34391  0.59020  0.05606  1.0000
  C   C10       1.0  0.59021  0.34391  0.55607  1.0000
  C   C11       1.0  0.28540  0.47773  0.97436  1.0000
  C   C12       1.0  0.47773  0.28539  0.47437  1.0000
  C   C13       1.0  0.38481  0.43867  0.87262  1.0000
  C   C14       1.0  0.43867  0.38480  0.37263  1.0000
  C   C15       1.0  0.54155  0.51099  0.85308  1.0000
  C   C16       1.0  0.51099  0.54155  0.35308  1.0000
  C   C17       1.0  0.10974  0.60347  0.63290  1.0000
  C   C18       1.0  0.60348  0.10974  0.13289  1.0000
  C   C19       1.0  0.12167  0.72571  0.72980  1.0000
  C   C20       1.0  0.72572  0.12167  0.22979  1.0000
  C   C21       1.0  0.26862  0.82793  0.74650  1.0000
  C   C22       1.0  0.82794  0.26862  0.24649  1.0000
  C   C23       1.0  0.41006  0.83423  0.66833  1.0000
  C   C24       1.0  0.83424  0.41006  0.16832  1.0000
  C   C25       1.0  0.54616  0.93037  0.69723  1.0000
  C   C26       1.0  0.93038  0.54616  0.19722  1.0000
  C   C27       1.0  0.53703  0.02165  0.80199  1.0000
  C   C28       1.0  0.02165  0.53703  0.30199  1.0000
  C   C29       1.0  0.39100  0.01352  0.87455  1.0000
  C   C30       1.0  0.01352  0.39100  0.37455  1.0000
  S   S1        1.0  0.95649  0.20209  0.83114  1.0000
  S   S2        1.0  0.20208  0.95649  0.33112  1.0000
  N   N1        1.0  0.98381  0.09695  0.59286  1.0000
  N   N2        1.0  0.09692  0.98383  0.09285  1.0000
  N   N3        1.0  0.85569  0.66671  0.81399  1.0000
  N   N4        1.0  0.66671  0.85569  0.31399  1.0000
  N   N5        1.0  0.00116  0.74977  0.81097  1.0000
  N   N6        1.0  0.74978  0.00116  0.31097  1.0000
  N   N7        1.0  0.26206  0.91892  0.84799  1.0000
  N   N8        1.0  0.91892  0.26206  0.34798  1.0000
  O   O1        1.0  0.81007  0.81691  0.98793  1.0000
  O   O2        1.0  0.81692  0.81007  0.48792  1.0000
