data_image0
_chemical_formula_structural       Ag2P2H42C44S2N2O6
_chemical_formula_sum              "Ag2 P2 H42 C44 S2 N2 O6"
_cell_length_a       8.98261
_cell_length_b       11.1705
_cell_length_c       11.1705
_cell_angle_alpha    102.765
_cell_angle_beta     94.8891
_cell_angle_gamma    94.8891

_space_group_name_H-M_alt    "P 1"
_space_group_IT_number       1

loop_
  _space_group_symop_operation_xyz
  'x, y, z'

loop_
  _atom_site_type_symbol
  _atom_site_label
  _atom_site_symmetry_multiplicity
  _atom_site_fract_x
  _atom_site_fract_y
  _atom_site_fract_z
  _atom_site_occupancy
  Ag  Ag1       1.0  0.49383  0.90066  0.10146  1.0000
  Ag  Ag2       1.0  0.99383  0.10146  0.90066  1.0000
  P   P1        1.0  0.45517  0.95877  0.31352  1.0000
  P   P2        1.0  0.95517  0.31352  0.95877  1.0000
  H   H1        1.0  0.60954  0.56677  0.14665  1.0000
  H   H2        1.0  0.10954  0.14665  0.56678  1.0000
  H   H3        1.0  0.41688  0.55935  0.08670  1.0000
  H   H4        1.0  0.91688  0.08670  0.55935  1.0000
  H   H5        1.0  0.46179  0.50582  0.22345  1.0000
  H   H6        1.0  0.96179  0.22345  0.50582  1.0000
  H   H7        1.0  0.66893  0.57787  0.35931  1.0000
  H   H8        1.0  0.16892  0.35932  0.57787  1.0000
  H   H9        1.0  0.95869  0.77674  0.71018  1.0000
  H   H10       1.0  0.45869  0.71018  0.77674  1.0000
  H   H11       1.0  0.94968  0.61601  0.71163  1.0000
  H   H12       1.0  0.44968  0.71163  0.61601  1.0000
  H   H13       1.0  0.79580  0.70212  0.75732  1.0000
  H   H14       1.0  0.29579  0.75731  0.70212  1.0000
  H   H15       1.0  0.75273  0.87679  0.68338  1.0000
  H   H16       1.0  0.25274  0.68337  0.87679  1.0000
  H   H17       1.0  0.58969  0.00706  0.77600  1.0000
  H   H18       1.0  0.08969  0.77599  0.00706  1.0000
  H   H19       1.0  0.57837  0.15667  0.74414  1.0000
  H   H20       1.0  0.07838  0.74414  0.15667  1.0000
  H   H21       1.0  0.75009  0.08671  0.72987  1.0000
  H   H22       1.0  0.25010  0.72988  0.08671  1.0000
  H   H23       1.0  0.20793  0.05560  0.19843  1.0000
  H   H24       1.0  0.70793  0.19843  0.05560  1.0000
  H   H25       1.0  0.93313  0.03096  0.20709  1.0000
  H   H26       1.0  0.43313  0.20708  0.03096  1.0000
  H   H27       1.0  0.82373  0.90508  0.34407  1.0000
  H   H28       1.0  0.32373  0.34406  0.90508  1.0000
  H   H29       1.0  0.99376  0.81232  0.47769  1.0000
  H   H30       1.0  0.49376  0.47769  0.81232  1.0000
  H   H31       1.0  0.26976  0.83868  0.47017  1.0000
  H   H32       1.0  0.76976  0.47017  0.83868  1.0000
  H   H33       1.0  0.70296  0.10517  0.25571  1.0000
  H   H34       1.0  0.20296  0.25571  0.10517  1.0000
  H   H35       1.0  0.81730  0.32204  0.33914  1.0000
  H   H36       1.0  0.31730  0.33914  0.32204  1.0000
  H   H37       1.0  0.70515  0.45837  0.50745  1.0000
  H   H38       1.0  0.20515  0.50745  0.45837  1.0000
  H   H39       1.0  0.47355  0.38076  0.58629  1.0000
  H   H40       1.0  0.97355  0.58629  0.38076  1.0000
  H   H41       1.0  0.36291  0.16315  0.50614  1.0000
  H   H42       1.0  0.86291  0.50614  0.16315  1.0000
  C   C1        1.0  0.79578  0.86564  0.96939  1.0000
  C   C2        1.0  0.29578  0.96940  0.86564  1.0000
  C   C3        1.0  0.54210  0.86569  0.40777  1.0000
  C   C4        1.0  0.04210  0.40777  0.86569  1.0000
  C   C5        1.0  0.55973  0.74196  0.34962  1.0000
  C   C6        1.0  0.05973  0.34963  0.74196  1.0000
  C   C7        1.0  0.49409  0.57461  0.17104  1.0000
  C   C8        1.0  0.99408  0.17104  0.57461  1.0000
  C   C9        1.0  0.65330  0.67177  0.40472  1.0000
  C   C10       1.0  0.15330  0.40471  0.67177  1.0000
  C   C11       1.0  0.72662  0.72337  0.52315  1.0000
  C   C12       1.0  0.22662  0.52315  0.72337  1.0000
  C   C13       1.0  0.88432  0.68998  0.69485  1.0000
  C   C14       1.0  0.38432  0.69485  0.68998  1.0000
  C   C15       1.0  0.70164  0.84040  0.58916  1.0000
  C   C16       1.0  0.20165  0.58916  0.84040  1.0000
  C   C17       1.0  0.60677  0.90937  0.53164  1.0000
  C   C18       1.0  0.10677  0.53164  0.90937  1.0000
  C   C19       1.0  0.62655  0.06922  0.71794  1.0000
  C   C20       1.0  0.12656  0.71795  0.06922  1.0000
  C   C21       1.0  0.25668  0.94966  0.33485  1.0000
  C   C22       1.0  0.75668  0.33485  0.94966  1.0000
  C   C23       1.0  0.16086  0.00457  0.26177  1.0000
  C   C24       1.0  0.66087  0.26177  0.00456  1.0000
  C   C25       1.0  0.00611  0.99013  0.26639  1.0000
  C   C26       1.0  0.50610  0.26638  0.99012  1.0000
  C   C27       1.0  0.94512  0.91929  0.34276  1.0000
  C   C28       1.0  0.44511  0.34275  0.91928  1.0000
  C   C29       1.0  0.04033  0.86593  0.41660  1.0000
  C   C30       1.0  0.54033  0.41659  0.86592  1.0000
  C   C31       1.0  0.19567  0.88112  0.41313  1.0000
  C   C32       1.0  0.69567  0.41313  0.88112  1.0000
  C   C33       1.0  0.52741  0.11976  0.37694  1.0000
  C   C34       1.0  0.02741  0.37694  0.11976  1.0000
  C   C35       1.0  0.65416  0.16572  0.32944  1.0000
  C   C36       1.0  0.15416  0.32944  0.16572  1.0000
  C   C37       1.0  0.71812  0.28723  0.37613  1.0000
  C   C38       1.0  0.21812  0.37613  0.28723  1.0000
  C   C39       1.0  0.65413  0.36407  0.46970  1.0000
  C   C40       1.0  0.15413  0.46970  0.36407  1.0000
  C   C41       1.0  0.52473  0.31994  0.51471  1.0000
  C   C42       1.0  0.02473  0.51471  0.31994  1.0000
  C   C43       1.0  0.46149  0.19837  0.46880  1.0000
  C   C44       1.0  0.96149  0.46880  0.19837  1.0000
  S   S1        1.0  0.69245  0.75996  0.01416  1.0000
  S   S2        1.0  0.19245  0.01416  0.75995  1.0000
  N   N1        1.0  0.87396  0.93966  0.93575  1.0000
  N   N2        1.0  0.37397  0.93576  0.93966  1.0000
  O   O1        1.0  0.47759  0.69702  0.23828  1.0000
  O   O2        1.0  0.97758  0.23828  0.69701  1.0000
  O   O3        1.0  0.81993  0.65008  0.56850  1.0000
  O   O4        1.0  0.31994  0.56849  0.65007  1.0000
  O   O5        1.0  0.57036  0.02044  0.59092  1.0000
  O   O6        1.0  0.07037  0.59092  0.02044  1.0000
