data_image0
_chemical_formula_structural       Cd2H28C40N4O12
_chemical_formula_sum              "Cd2 H28 C40 N4 O12"
_cell_length_a       10.3867
_cell_length_b       9.99686
_cell_length_c       9.99686
_cell_angle_alpha    72.3454
_cell_angle_beta     74.5881
_cell_angle_gamma    74.5881

_space_group_name_H-M_alt    "P 1"
_space_group_IT_number       1

loop_
  _space_group_symop_operation_xyz
  'x, y, z'

loop_
  _atom_site_type_symbol
  _atom_site_label
  _atom_site_symmetry_multiplicity
  _atom_site_fract_x
  _atom_site_fract_y
  _atom_site_fract_z
  _atom_site_occupancy
  Cd  Cd1       1.0  0.25000  0.96059  0.03941  1.0000
  Cd  Cd2       1.0  0.75000  0.03941  0.96059  1.0000
  H   H1        1.0  0.37986  0.85503  0.73463  1.0000
  H   H2        1.0  0.12014  0.26536  0.14496  1.0000
  H   H3        1.0  0.62014  0.14496  0.26537  1.0000
  H   H4        1.0  0.87985  0.73463  0.85504  1.0000
  H   H5        1.0  0.44955  0.94508  0.44006  1.0000
  H   H6        1.0  0.05045  0.55993  0.05492  1.0000
  H   H7        1.0  0.55044  0.05491  0.55994  1.0000
  H   H8        1.0  0.94955  0.44006  0.94509  1.0000
  H   H9        1.0  0.20361  0.04800  0.35282  1.0000
  H   H10       1.0  0.29639  0.64717  0.95200  1.0000
  H   H11       1.0  0.79638  0.95199  0.64718  1.0000
  H   H12       1.0  0.70361  0.35283  0.04800  1.0000
  H   H13       1.0  0.03862  0.20864  0.87857  1.0000
  H   H14       1.0  0.46138  0.12144  0.79137  1.0000
  H   H15       1.0  0.96138  0.79137  0.12143  1.0000
  H   H16       1.0  0.53862  0.87857  0.20864  1.0000
  H   H17       1.0  0.02935  0.42160  0.66784  1.0000
  H   H18       1.0  0.47065  0.33216  0.57841  1.0000
  H   H19       1.0  0.97065  0.57841  0.33215  1.0000
  H   H20       1.0  0.52936  0.66784  0.42160  1.0000
  H   H21       1.0  0.07259  0.65734  0.57763  1.0000
  H   H22       1.0  0.42741  0.42237  0.34266  1.0000
  H   H23       1.0  0.92741  0.34266  0.42237  1.0000
  H   H24       1.0  0.57260  0.57763  0.65734  1.0000
  H   H25       1.0  0.07871  0.86169  0.36049  1.0000
  H   H26       1.0  0.42130  0.63951  0.13831  1.0000
  H   H27       1.0  0.92130  0.13831  0.63950  1.0000
  H   H28       1.0  0.57871  0.36049  0.86169  1.0000
  C   C1        1.0  0.07267  0.90787  0.83141  1.0000
  C   C2        1.0  0.42733  0.16859  0.09213  1.0000
  C   C3        1.0  0.92733  0.09212  0.16860  1.0000
  C   C4        1.0  0.57267  0.83141  0.90787  1.0000
  C   C5        1.0  0.17215  0.92652  0.69432  1.0000
  C   C6        1.0  0.32785  0.30568  0.07348  1.0000
  C   C7        1.0  0.82784  0.07348  0.30568  1.0000
  C   C8        1.0  0.67215  0.69432  0.92652  1.0000
  C   C9        1.0  0.31242  0.90025  0.65850  1.0000
  C   C10       1.0  0.18758  0.34149  0.09975  1.0000
  C   C11       1.0  0.68758  0.09975  0.34150  1.0000
  C   C12       1.0  0.81242  0.65851  0.90025  1.0000
  C   C13       1.0  0.34816  0.94832  0.50638  1.0000
  C   C14       1.0  0.15184  0.49361  0.05168  1.0000
  C   C15       1.0  0.65184  0.05167  0.49362  1.0000
  C   C16       1.0  0.84816  0.50638  0.94833  1.0000
  C   C17       1.0  0.22805  0.00140  0.45834  1.0000
  C   C18       1.0  0.27195  0.54165  0.99860  1.0000
  C   C19       1.0  0.77194  0.99860  0.54166  1.0000
  C   C20       1.0  0.72805  0.45835  0.00140  1.0000
  C   C21       1.0  0.13182  0.24037  0.80794  1.0000
  C   C22       1.0  0.36818  0.19206  0.75963  1.0000
  C   C23       1.0  0.86818  0.75963  0.19206  1.0000
  C   C24       1.0  0.63182  0.80794  0.24037  1.0000
  C   C25       1.0  0.12772  0.35928  0.69128  1.0000
  C   C26       1.0  0.37228  0.30872  0.64072  1.0000
  C   C27       1.0  0.87228  0.64072  0.30872  1.0000
  C   C28       1.0  0.62772  0.69128  0.35928  1.0000
  C   C29       1.0  0.25000  0.39563  0.60437  1.0000
  C   C30       1.0  0.75000  0.60437  0.39562  1.0000
  C   C31       1.0  0.25000  0.52068  0.47932  1.0000
  C   C32       1.0  0.75000  0.47932  0.52068  1.0000
  C   C33       1.0  0.15078  0.64690  0.48190  1.0000
  C   C34       1.0  0.34923  0.51810  0.35310  1.0000
  C   C35       1.0  0.84923  0.35310  0.51810  1.0000
  C   C36       1.0  0.65078  0.48190  0.64690  1.0000
  C   C37       1.0  0.15420  0.76237  0.36166  1.0000
  C   C38       1.0  0.34581  0.63834  0.23763  1.0000
  C   C39       1.0  0.84581  0.23763  0.63834  1.0000
  C   C40       1.0  0.65420  0.36166  0.76237  1.0000
  N   N1        1.0  0.25000  0.15846  0.84154  1.0000
  N   N2        1.0  0.75000  0.84154  0.15846  1.0000
  N   N3        1.0  0.25000  0.75891  0.24109  1.0000
  N   N4        1.0  0.75000  0.24109  0.75891  1.0000
  O   O1        1.0  0.11734  0.86594  0.94739  1.0000
  O   O2        1.0  0.38266  0.05261  0.13406  1.0000
  O   O3        1.0  0.88266  0.13406  0.05261  1.0000
  O   O4        1.0  0.61734  0.94739  0.86594  1.0000
  O   O5        1.0  0.94717  0.93354  0.82355  1.0000
  O   O6        1.0  0.55283  0.17645  0.06646  1.0000
  O   O7        1.0  0.05283  0.06646  0.17645  1.0000
  O   O8        1.0  0.44717  0.82355  0.93354  1.0000
  O   O9        1.0  0.12015  0.98837  0.57082  1.0000
  O   O10       1.0  0.37986  0.42917  0.01163  1.0000
  O   O11       1.0  0.87985  0.01162  0.42918  1.0000
  O   O12       1.0  0.62014  0.57083  0.98837  1.0000
