data_image0
_chemical_formula_structural       U4H48C56N8O32
_chemical_formula_sum              "U4 H48 C56 N8 O32"
_cell_length_a       8.83134
_cell_length_b       11.994
_cell_length_c       16.2528
_cell_angle_alpha    89.9996
_cell_angle_beta     89.9999
_cell_angle_gamma    90.0015

_space_group_name_H-M_alt    "P 1"
_space_group_IT_number       1

loop_
  _space_group_symop_operation_xyz
  'x, y, z'

loop_
  _atom_site_type_symbol
  _atom_site_label
  _atom_site_symmetry_multiplicity
  _atom_site_fract_x
  _atom_site_fract_y
  _atom_site_fract_z
  _atom_site_occupancy
  U   U1        1.0  0.34636  0.24999  0.25000  1.0000
  U   U2        1.0  0.15364  0.75002  0.75000  1.0000
  U   U3        1.0  0.65364  0.75000  0.75000  1.0000
  U   U4        1.0  0.84636  0.24999  0.24999  1.0000
  H   H1        1.0  0.80107  0.06954  0.93070  1.0000
  H   H2        1.0  0.80109  0.43046  0.56930  1.0000
  H   H3        1.0  0.69892  0.56952  0.06931  1.0000
  H   H4        1.0  0.69892  0.93046  0.43070  1.0000
  H   H5        1.0  0.19892  0.93046  0.06930  1.0000
  H   H6        1.0  0.19892  0.56953  0.43069  1.0000
  H   H7        1.0  0.30109  0.43047  0.93069  1.0000
  H   H8        1.0  0.30107  0.06954  0.56930  1.0000
  H   H9        1.0  0.70013  0.17648  0.07488  1.0000
  H   H10       1.0  0.70014  0.32353  0.42511  1.0000
  H   H11       1.0  0.79986  0.67647  0.92511  1.0000
  H   H12       1.0  0.79987  0.82352  0.57489  1.0000
  H   H13       1.0  0.29986  0.82352  0.92511  1.0000
  H   H14       1.0  0.29986  0.67647  0.57489  1.0000
  H   H15       1.0  0.20015  0.32353  0.07489  1.0000
  H   H16       1.0  0.20013  0.17648  0.42511  1.0000
  H   H17       1.0  0.67121  0.04761  0.81378  1.0000
  H   H18       1.0  0.67123  0.45238  0.68623  1.0000
  H   H19       1.0  0.82878  0.54762  0.18624  1.0000
  H   H20       1.0  0.82878  0.95239  0.31377  1.0000
  H   H21       1.0  0.32878  0.95239  0.18623  1.0000
  H   H22       1.0  0.32878  0.54763  0.31377  1.0000
  H   H23       1.0  0.17123  0.45238  0.81376  1.0000
  H   H24       1.0  0.17123  0.04761  0.68622  1.0000
  H   H25       1.0  0.42362  0.05884  0.74547  1.0000
  H   H26       1.0  0.42364  0.44116  0.75453  1.0000
  H   H27       1.0  0.07637  0.55885  0.25453  1.0000
  H   H28       1.0  0.07636  0.94117  0.24547  1.0000
  H   H29       1.0  0.57636  0.94116  0.25453  1.0000
  H   H30       1.0  0.57637  0.55885  0.24547  1.0000
  H   H31       1.0  0.92365  0.44116  0.74547  1.0000
  H   H32       1.0  0.92364  0.05883  0.75453  1.0000
  H   H33       1.0  0.19472  0.12162  0.82465  1.0000
  H   H34       1.0  0.19473  0.37839  0.67535  1.0000
  H   H35       1.0  0.30527  0.62162  0.17535  1.0000
  H   H36       1.0  0.30527  0.87839  0.32464  1.0000
  H   H37       1.0  0.80526  0.87838  0.17536  1.0000
  H   H38       1.0  0.80527  0.62162  0.32465  1.0000
  H   H39       1.0  0.69474  0.37838  0.82464  1.0000
  H   H40       1.0  0.69473  0.12160  0.67536  1.0000
  H   H41       1.0  0.22187  0.16771  0.97342  1.0000
  H   H42       1.0  0.22188  0.33229  0.52659  1.0000
  H   H43       1.0  0.27812  0.66770  0.02658  1.0000
  H   H44       1.0  0.27812  0.83230  0.47341  1.0000
  H   H45       1.0  0.77812  0.83228  0.02659  1.0000
  H   H46       1.0  0.77812  0.66771  0.47341  1.0000
  H   H47       1.0  0.72189  0.33229  0.97341  1.0000
  H   H48       1.0  0.72187  0.16770  0.52659  1.0000
  C   C1        1.0  0.46588  0.17005  0.06494  1.0000
  C   C2        1.0  0.46589  0.32996  0.43506  1.0000
  C   C3        1.0  0.03411  0.67004  0.93506  1.0000
  C   C4        1.0  0.03411  0.82995  0.56494  1.0000
  C   C5        1.0  0.53411  0.82995  0.93507  1.0000
  C   C6        1.0  0.53411  0.67005  0.56494  1.0000
  C   C7        1.0  0.96590  0.32996  0.06493  1.0000
  C   C8        1.0  0.96589  0.17004  0.43506  1.0000
  C   C9        1.0  0.46107  0.13898  0.97730  1.0000
  C   C10       1.0  0.46109  0.36102  0.52270  1.0000
  C   C11       1.0  0.03891  0.63898  0.02270  1.0000
  C   C12       1.0  0.03892  0.86102  0.47730  1.0000
  C   C13       1.0  0.53891  0.86102  0.02270  1.0000
  C   C14       1.0  0.53892  0.63899  0.47730  1.0000
  C   C15       1.0  0.96110  0.36102  0.97729  1.0000
  C   C16       1.0  0.96108  0.13898  0.52270  1.0000
  C   C17       1.0  0.58857  0.10585  0.93086  1.0000
  C   C18       1.0  0.58859  0.39415  0.56914  1.0000
  C   C19       1.0  0.91142  0.60584  0.06914  1.0000
  C   C20       1.0  0.91142  0.89415  0.43086  1.0000
  C   C21       1.0  0.41142  0.89415  0.06914  1.0000
  C   C22       1.0  0.41142  0.60585  0.43086  1.0000
  C   C23       1.0  0.08859  0.39415  0.93085  1.0000
  C   C24       1.0  0.08858  0.10585  0.56914  1.0000
  C   C25       1.0  0.57343  0.07845  0.84789  1.0000
  C   C26       1.0  0.57345  0.42155  0.65212  1.0000
  C   C27       1.0  0.92656  0.57845  0.15212  1.0000
  C   C28       1.0  0.92656  0.92156  0.34788  1.0000
  C   C29       1.0  0.42655  0.92155  0.15212  1.0000
  C   C30       1.0  0.42656  0.57845  0.34788  1.0000
  C   C31       1.0  0.07345  0.42155  0.84788  1.0000
  C   C32       1.0  0.07344  0.07844  0.65211  1.0000
  C   C33       1.0  0.43273  0.08437  0.80963  1.0000
  C   C34       1.0  0.43274  0.41563  0.69037  1.0000
  C   C35       1.0  0.06726  0.58437  0.19037  1.0000
  C   C36       1.0  0.06726  0.91564  0.30963  1.0000
  C   C37       1.0  0.56725  0.91564  0.19037  1.0000
  C   C38       1.0  0.56726  0.58437  0.30963  1.0000
  C   C39       1.0  0.93276  0.41564  0.80963  1.0000
  C   C40       1.0  0.93275  0.08436  0.69037  1.0000
  C   C41       1.0  0.30528  0.11805  0.85410  1.0000
  C   C42       1.0  0.30529  0.38195  0.64590  1.0000
  C   C43       1.0  0.19472  0.61805  0.14590  1.0000
  C   C44       1.0  0.19471  0.88196  0.35409  1.0000
  C   C45       1.0  0.69471  0.88195  0.14591  1.0000
  C   C46       1.0  0.69472  0.61805  0.35410  1.0000
  C   C47       1.0  0.80529  0.38195  0.85409  1.0000
  C   C48       1.0  0.80529  0.11804  0.64591  1.0000
  C   C49       1.0  0.32002  0.14363  0.93704  1.0000
  C   C50       1.0  0.32004  0.35637  0.56296  1.0000
  C   C51       1.0  0.17996  0.64363  0.06296  1.0000
  C   C52       1.0  0.17997  0.85637  0.43704  1.0000
  C   C53       1.0  0.67996  0.85636  0.06296  1.0000
  C   C54       1.0  0.67997  0.64364  0.43704  1.0000
  C   C55       1.0  0.82005  0.35637  0.93704  1.0000
  C   C56       1.0  0.82003  0.14363  0.56296  1.0000
  N   N1        1.0  0.59707  0.18482  0.10274  1.0000
  N   N2        1.0  0.59708  0.31519  0.39725  1.0000
  N   N3        1.0  0.90292  0.68481  0.89725  1.0000
  N   N4        1.0  0.90292  0.81518  0.60275  1.0000
  N   N5        1.0  0.40292  0.81518  0.89726  1.0000
  N   N6        1.0  0.40292  0.68482  0.60275  1.0000
  N   N7        1.0  0.09708  0.31519  0.10275  1.0000
  N   N8        1.0  0.09707  0.18482  0.39725  1.0000
  O   O1        1.0  0.59643  0.22837  0.17952  1.0000
  O   O2        1.0  0.59642  0.27163  0.32048  1.0000
  O   O3        1.0  0.90357  0.72838  0.82048  1.0000
  O   O4        1.0  0.90358  0.77163  0.67952  1.0000
  O   O5        1.0  0.40358  0.77163  0.82048  1.0000
  O   O6        1.0  0.40357  0.72837  0.67952  1.0000
  O   O7        1.0  0.09642  0.27163  0.17952  1.0000
  O   O8        1.0  0.09642  0.22837  0.32048  1.0000
  O   O9        1.0  0.34426  0.18850  0.10620  1.0000
  O   O10       1.0  0.34426  0.31150  0.39381  1.0000
  O   O11       1.0  0.15574  0.68849  0.89381  1.0000
  O   O12       1.0  0.15574  0.81150  0.60619  1.0000
  O   O13       1.0  0.65574  0.81149  0.89381  1.0000
  O   O14       1.0  0.65574  0.68851  0.60619  1.0000
  O   O15       1.0  0.84426  0.31150  0.10619  1.0000
  O   O16       1.0  0.84425  0.18850  0.39380  1.0000
  O   O17       1.0  0.72666  0.09877  0.96932  1.0000
  O   O18       1.0  0.72668  0.40123  0.53069  1.0000
  O   O19       1.0  0.77333  0.59876  0.03069  1.0000
  O   O20       1.0  0.77333  0.90123  0.46932  1.0000
  O   O21       1.0  0.27333  0.90123  0.03068  1.0000
  O   O22       1.0  0.27333  0.59877  0.46931  1.0000
  O   O23       1.0  0.22669  0.40123  0.96931  1.0000
  O   O24       1.0  0.22667  0.09877  0.53068  1.0000
  O   O25       1.0  0.35381  0.10462  0.28079  1.0000
  O   O26       1.0  0.35382  0.39537  0.21922  1.0000
  O   O27       1.0  0.14617  0.60462  0.71922  1.0000
  O   O28       1.0  0.14619  0.89537  0.78079  1.0000
  O   O29       1.0  0.64619  0.89538  0.71921  1.0000
  O   O30       1.0  0.64618  0.60463  0.78078  1.0000
  O   O31       1.0  0.85382  0.39537  0.28078  1.0000
  O   O32       1.0  0.85381  0.10462  0.21921  1.0000
