data_image0
_chemical_formula_structural       Ag4H12C16S2N8O8
_chemical_formula_sum              "Ag4 H12 C16 S2 N8 O8"
_cell_length_a       7.98685
_cell_length_b       8.3161
_cell_length_c       9.74952
_cell_angle_alpha    58.5324
_cell_angle_beta     79.4064
_cell_angle_gamma    70.575

_space_group_name_H-M_alt    "P 1"
_space_group_IT_number       1

loop_
  _space_group_symop_operation_xyz
  'x, y, z'

loop_
  _atom_site_type_symbol
  _atom_site_label
  _atom_site_symmetry_multiplicity
  _atom_site_fract_x
  _atom_site_fract_y
  _atom_site_fract_z
  _atom_site_occupancy
  Ag  Ag1       1.0  0.30548  0.12520  0.39068  1.0000
  Ag  Ag2       1.0  0.69456  0.87480  0.60932  1.0000
  Ag  Ag3       1.0  0.57732  0.68464  0.42552  1.0000
  Ag  Ag4       1.0  0.42267  0.31535  0.57449  1.0000
  H   H1        1.0  0.09045  0.28091  0.08342  1.0000
  H   H2        1.0  0.90956  0.71910  0.91659  1.0000
  H   H3        1.0  0.30671  0.88425  0.89085  1.0000
  H   H4        1.0  0.69328  0.11574  0.10917  1.0000
  H   H5        1.0  0.50256  0.67647  0.13144  1.0000
  H   H6        1.0  0.49742  0.32352  0.86856  1.0000
  H   H7        1.0  0.98728  0.50134  0.85358  1.0000
  H   H8        1.0  0.01272  0.49866  0.14643  1.0000
  H   H9        1.0  0.08609  0.04102  0.73619  1.0000
  H   H10       1.0  0.91393  0.95899  0.26380  1.0000
  H   H11       1.0  0.86044  0.27588  0.52571  1.0000
  H   H12       1.0  0.13956  0.72413  0.47429  1.0000
  C   C1        1.0  0.18469  0.15449  0.07945  1.0000
  C   C2        1.0  0.81532  0.84551  0.92055  1.0000
  C   C3        1.0  0.17982  0.11112  0.95889  1.0000
  C   C4        1.0  0.82018  0.88886  0.04111  1.0000
  C   C5        1.0  0.29718  0.93438  0.97631  1.0000
  C   C6        1.0  0.70281  0.06561  0.02368  1.0000
  C   C7        1.0  0.40989  0.81847  0.10776  1.0000
  C   C8        1.0  0.59011  0.18152  0.89225  1.0000
  C   C9        1.0  0.96105  0.43633  0.79086  1.0000
  C   C10       1.0  0.03895  0.56367  0.20915  1.0000
  C   C11       1.0  0.05434  0.24294  0.82526  1.0000
  C   C12       1.0  0.94566  0.75705  0.17474  1.0000
  C   C13       1.0  0.01920  0.18413  0.72595  1.0000
  C   C14       1.0  0.98081  0.81587  0.27406  1.0000
  C   C15       1.0  0.89145  0.31455  0.60749  1.0000
  C   C16       1.0  0.10856  0.68545  0.39251  1.0000
  S   S1        1.0  0.26655  0.72096  0.72048  1.0000
  S   S2        1.0  0.73343  0.27904  0.27951  1.0000
  N   N1        1.0  0.29905  0.04161  0.20056  1.0000
  N   N2        1.0  0.70097  0.95839  0.79945  1.0000
  N   N3        1.0  0.41327  0.87391  0.21402  1.0000
  N   N4        1.0  0.58673  0.12608  0.78599  1.0000
  N   N5        1.0  0.83980  0.55592  0.67618  1.0000
  N   N6        1.0  0.16019  0.44409  0.32382  1.0000
  N   N7        1.0  0.80240  0.49371  0.58585  1.0000
  N   N8        1.0  0.19760  0.50629  0.41416  1.0000
  O   O1        1.0  0.35798  0.88210  0.66182  1.0000
  O   O2        1.0  0.64203  0.11789  0.33818  1.0000
  O   O3        1.0  0.37293  0.58468  0.65813  1.0000
  O   O4        1.0  0.62707  0.41530  0.34187  1.0000
  O   O5        1.0  0.08508  0.81517  0.65425  1.0000
  O   O6        1.0  0.91491  0.18487  0.34570  1.0000
  O   O7        1.0  0.26295  0.61214  0.89834  1.0000
  O   O8        1.0  0.73699  0.38787  0.10166  1.0000
