data_image0
_chemical_formula_structural       Ag4H12C12S2N8O10
_chemical_formula_sum              "Ag4 H12 C12 S2 N8 O10"
_cell_length_a       8.38935
_cell_length_b       8.56128
_cell_length_c       8.86114
_cell_angle_alpha    88.2872
_cell_angle_beta     74.2966
_cell_angle_gamma    67.3172

_space_group_name_H-M_alt    "P 1"
_space_group_IT_number       1

loop_
  _space_group_symop_operation_xyz
  'x, y, z'

loop_
  _atom_site_type_symbol
  _atom_site_label
  _atom_site_symmetry_multiplicity
  _atom_site_fract_x
  _atom_site_fract_y
  _atom_site_fract_z
  _atom_site_occupancy
  Ag  Ag1       1.0  0.07572  0.20268  0.92080  1.0000
  Ag  Ag2       1.0  0.92428  0.79733  0.07921  1.0000
  Ag  Ag3       1.0  0.68264  0.57332  0.14822  1.0000
  Ag  Ag4       1.0  0.31736  0.42669  0.85178  1.0000
  H   H1        1.0  0.50830  0.94231  0.17267  1.0000
  H   H2        1.0  0.49170  0.05769  0.82733  1.0000
  H   H3        1.0  0.42919  0.86446  0.06890  1.0000
  H   H4        1.0  0.57081  0.13554  0.93110  1.0000
  H   H5        1.0  0.11193  0.08153  0.56589  1.0000
  H   H6        1.0  0.88806  0.91847  0.43412  1.0000
  H   H7        1.0  0.30180  0.55747  0.49911  1.0000
  H   H8        1.0  0.69820  0.44253  0.50089  1.0000
  H   H9        1.0  0.08470  0.09609  0.26657  1.0000
  H   H10       1.0  0.91530  0.90390  0.73343  1.0000
  H   H11       1.0  0.28384  0.56666  0.19730  1.0000
  H   H12       1.0  0.71617  0.43334  0.80270  1.0000
  C   C1        1.0  0.14780  0.19120  0.54055  1.0000
  C   C2        1.0  0.85220  0.80880  0.45945  1.0000
  C   C3        1.0  0.16973  0.25611  0.39098  1.0000
  C   C4        1.0  0.83027  0.74389  0.60902  1.0000
  C   C5        1.0  0.22320  0.39391  0.37251  1.0000
  C   C6        1.0  0.77679  0.60609  0.62750  1.0000
  C   C7        1.0  0.25388  0.45509  0.50394  1.0000
  C   C8        1.0  0.74612  0.54491  0.49606  1.0000
  C   C9        1.0  0.13396  0.19735  0.26105  1.0000
  C   C10       1.0  0.86604  0.80264  0.73895  1.0000
  C   C11       1.0  0.24131  0.46105  0.22388  1.0000
  C   C12       1.0  0.75869  0.53895  0.77613  1.0000
  S   S1        1.0  0.69493  0.19967  0.15994  1.0000
  S   S2        1.0  0.30507  0.80033  0.84006  1.0000
  N   N1        1.0  0.16800  0.26089  0.66132  1.0000
  N   N2        1.0  0.83200  0.73911  0.33868  1.0000
  N   N3        1.0  0.22322  0.39313  0.64235  1.0000
  N   N4        1.0  0.77678  0.60687  0.35765  1.0000
  N   N5        1.0  0.14876  0.26914  0.12696  1.0000
  N   N6        1.0  0.85124  0.73086  0.87304  1.0000
  N   N7        1.0  0.20558  0.40044  0.10750  1.0000
  N   N8        1.0  0.79443  0.59956  0.89250  1.0000
  O   O1        1.0  0.59757  0.35100  0.27831  1.0000
  O   O2        1.0  0.40243  0.64900  0.72169  1.0000
  O   O3        1.0  0.76262  0.25654  0.00207  1.0000
  O   O4        1.0  0.23738  0.74346  0.99793  1.0000
  O   O5        1.0  0.56780  0.12152  0.14366  1.0000
  O   O6        1.0  0.43220  0.87848  0.85634  1.0000
  O   O7        1.0  0.84790  0.07421  0.21082  1.0000
  O   O8        1.0  0.15210  0.92579  0.78918  1.0000
  O   O9        1.0  0.45201  0.85946  0.17332  1.0000
  O   O10       1.0  0.54799  0.14054  0.82667  1.0000
