data_image0
_chemical_formula_structural       CuH10Au2C12N8Cl4
_chemical_formula_sum              "Cu1 H10 Au2 C12 N8 Cl4"
_cell_length_a       6.85094
_cell_length_b       10.1704
_cell_length_c       10.6706
_cell_angle_alpha    82.4436
_cell_angle_beta     71.2437
_cell_angle_gamma    70.2478

_space_group_name_H-M_alt    "P 1"
_space_group_IT_number       1

loop_
  _space_group_symop_operation_xyz
  'x, y, z'

loop_
  _atom_site_type_symbol
  _atom_site_label
  _atom_site_symmetry_multiplicity
  _atom_site_fract_x
  _atom_site_fract_y
  _atom_site_fract_z
  _atom_site_occupancy
  Cu  Cu1       1.0  0.50000  1.00000  0.00000  1.0000
  H   H1        1.0  0.66819  0.15735  0.13822  1.0000
  H   H2        1.0  0.96445  0.84269  0.86176  1.0000
  H   H3        1.0  0.33182  0.84265  0.86177  1.0000
  H   H4        1.0  0.03556  0.15730  0.13823  1.0000
  H   H5        1.0  0.19284  0.59275  0.02038  1.0000
  H   H6        1.0  0.80717  0.40725  0.97962  1.0000
  H   H7        1.0  0.02680  0.52623  0.16120  1.0000
  H   H8        1.0  0.71539  0.47377  0.83885  1.0000
  H   H9        1.0  0.97319  0.47378  0.83880  1.0000
  H   H10       1.0  0.28460  0.52624  0.16114  1.0000
  Au  Au1       1.0  0.79757  0.89242  0.51237  1.0000
  Au  Au2       1.0  0.20242  0.10758  0.48764  1.0000
  C   C1        1.0  0.92226  0.82752  0.32801  1.0000
  C   C2        1.0  0.07772  0.17249  0.67199  1.0000
  C   C3        1.0  0.67241  0.95667  0.69856  1.0000
  C   C4        1.0  0.32760  0.04333  0.30144  1.0000
  C   C5        1.0  0.81658  0.08760  0.07571  1.0000
  C   C6        1.0  0.98041  0.91237  0.92426  1.0000
  C   C7        1.0  0.18342  0.91240  0.92429  1.0000
  C   C8        1.0  0.01960  0.08763  0.07573  1.0000
  C   C9        1.0  0.29130  0.37334  0.04347  1.0000
  C   C10       1.0  0.70870  0.62666  0.95653  1.0000
  C   C11       1.0  0.19444  0.51135  0.09867  1.0000
  C   C12       1.0  0.80555  0.48865  0.90133  1.0000
  N   N1        1.0  0.99479  0.79253  0.21810  1.0000
  N   N2        1.0  0.00520  0.20747  0.78190  1.0000
  N   N3        1.0  0.60151  0.98807  0.80910  1.0000
  N   N4        1.0  0.39850  0.01193  0.19090  1.0000
  N   N5        1.0  0.79880  0.99997  0.99998  1.0000
  N   N6        1.0  0.20122  0.00003  0.00001  1.0000
  N   N7        1.0  0.36916  0.26217  0.99919  1.0000
  N   N8        1.0  0.63084  0.73784  0.00082  1.0000
  Cl  Cl1       1.0  0.72169  0.12296  0.43381  1.0000
  Cl  Cl2       1.0  0.27832  0.87703  0.56619  1.0000
  Cl  Cl3       1.0  0.87336  0.66310  0.59037  1.0000
  Cl  Cl4       1.0  0.12664  0.33689  0.40962  1.0000
