data_image0
_chemical_formula_structural       Cu2H18C16N4O8
_chemical_formula_sum              "Cu2 H18 C16 N4 O8"
_cell_length_a       7.2601
_cell_length_b       8.04876
_cell_length_c       10.9106
_cell_angle_alpha    77.1043
_cell_angle_beta     81.9651
_cell_angle_gamma    64.2535

_space_group_name_H-M_alt    "P 1"
_space_group_IT_number       1

loop_
  _space_group_symop_operation_xyz
  'x, y, z'

loop_
  _atom_site_type_symbol
  _atom_site_label
  _atom_site_symmetry_multiplicity
  _atom_site_fract_x
  _atom_site_fract_y
  _atom_site_fract_z
  _atom_site_occupancy
  Cu  Cu1       1.0  0.08227  0.49547  0.10024  1.0000
  Cu  Cu2       1.0  0.91773  0.50455  0.89976  1.0000
  H   H1        1.0  0.51411  0.41373  0.14864  1.0000
  H   H2        1.0  0.48589  0.58622  0.85137  1.0000
  H   H3        1.0  0.71646  0.41720  0.31524  1.0000
  H   H4        1.0  0.28355  0.58272  0.68478  1.0000
  H   H5        1.0  0.15011  0.54140  0.54690  1.0000
  H   H6        1.0  0.84982  0.45873  0.45308  1.0000
  H   H7        1.0  0.97278  0.92940  0.13269  1.0000
  H   H8        1.0  0.02726  0.07058  0.86733  1.0000
  H   H9        1.0  0.72674  0.08021  0.18145  1.0000
  H   H10       1.0  0.27330  0.91975  0.81856  1.0000
  H   H11       1.0  0.93595  0.00237  0.28146  1.0000
  H   H12       1.0  0.06408  0.99767  0.71854  1.0000
  H   H13       1.0  0.32296  0.85613  0.08638  1.0000
  H   H14       1.0  0.67706  0.14387  0.91364  1.0000
  H   H15       1.0  0.43935  0.00016  0.11154  1.0000
  H   H16       1.0  0.56064  0.99984  0.88846  1.0000
  H   H17       1.0  0.42567  0.82223  0.23535  1.0000
  H   H18       1.0  0.57435  0.17773  0.76468  1.0000
  C   C1        1.0  0.44519  0.44211  0.24132  1.0000
  C   C2        1.0  0.55482  0.55785  0.75869  1.0000
  C   C3        1.0  0.55551  0.44516  0.33493  1.0000
  C   C4        1.0  0.44450  0.55481  0.66508  1.0000
  C   C5        1.0  0.45122  0.49061  0.44860  1.0000
  C   C6        1.0  0.54875  0.50941  0.55140  1.0000
  C   C7        1.0  0.24459  0.51707  0.45994  1.0000
  C   C8        1.0  0.75535  0.48301  0.54005  1.0000
  C   C9        1.0  0.93144  0.21379  0.11785  1.0000
  C   C10       1.0  0.06859  0.78620  0.88214  1.0000
  C   C11       1.0  0.89004  0.04585  0.18399  1.0000
  C   C12       1.0  0.11000  0.95414  0.81601  1.0000
  C   C13       1.0  0.65201  0.72337  0.08666  1.0000
  C   C14       1.0  0.34798  0.27663  0.91333  1.0000
  C   C15       1.0  0.44590  0.85783  0.13304  1.0000
  C   C16       1.0  0.55412  0.14216  0.86698  1.0000
  N   N1        1.0  0.24636  0.47729  0.25708  1.0000
  N   N2        1.0  0.75364  0.52272  0.74292  1.0000
  N   N3        1.0  0.14648  0.51030  0.36768  1.0000
  N   N4        1.0  0.85348  0.48977  0.63230  1.0000
  O   O1        1.0  0.01537  0.27609  0.18041  1.0000
  O   O2        1.0  0.98461  0.72395  0.81957  1.0000
  O   O3        1.0  0.87693  0.28017  0.00450  1.0000
  O   O4        1.0  0.12307  0.71982  0.99549  1.0000
  O   O5        1.0  0.80202  0.66846  0.15612  1.0000
  O   O6        1.0  0.19793  0.33159  0.84388  1.0000
  O   O7        1.0  0.65824  0.67801  0.98074  1.0000
  O   O8        1.0  0.34179  0.32195  0.01925  1.0000
