data_image0
_chemical_formula_structural       Zn4H24C32N24O24
_chemical_formula_sum              "Zn4 H24 C32 N24 O24"
_cell_length_a       5.75951
_cell_length_b       12.2178
_cell_length_c       17.1411
_cell_angle_alpha    90.0014
_cell_angle_beta     89.9996
_cell_angle_gamma    100.096

_space_group_name_H-M_alt    "P 1"
_space_group_IT_number       1

loop_
  _space_group_symop_operation_xyz
  'x, y, z'

loop_
  _atom_site_type_symbol
  _atom_site_label
  _atom_site_symmetry_multiplicity
  _atom_site_fract_x
  _atom_site_fract_y
  _atom_site_fract_z
  _atom_site_occupancy
  Zn  Zn1       1.0  0.14484  0.21406  0.89537  1.0000
  Zn  Zn2       1.0  0.35515  0.28594  0.39537  1.0000
  Zn  Zn3       1.0  0.85515  0.78594  0.10463  1.0000
  Zn  Zn4       1.0  0.64486  0.71407  0.60463  1.0000
  H   H1        1.0  0.71309  0.06140  0.06075  1.0000
  H   H2        1.0  0.78688  0.43860  0.56075  1.0000
  H   H3        1.0  0.28693  0.93861  0.93925  1.0000
  H   H4        1.0  0.21312  0.56141  0.43925  1.0000
  H   H5        1.0  0.60743  0.38867  0.13386  1.0000
  H   H6        1.0  0.89261  0.11134  0.63386  1.0000
  H   H7        1.0  0.39258  0.61133  0.86615  1.0000
  H   H8        1.0  0.10736  0.88866  0.36614  1.0000
  H   H9        1.0  0.32095  0.37739  0.02176  1.0000
  H   H10       1.0  0.17910  0.12262  0.52176  1.0000
  H   H11       1.0  0.67906  0.62261  0.97825  1.0000
  H   H12       1.0  0.82089  0.87738  0.47824  1.0000
  H   H13       1.0  0.04704  0.39206  0.14690  1.0000
  H   H14       1.0  0.45297  0.10793  0.64689  1.0000
  H   H15       1.0  0.95297  0.60793  0.85310  1.0000
  H   H16       1.0  0.54702  0.89206  0.35311  1.0000
  H   H17       1.0  0.71944  0.06131  0.21992  1.0000
  H   H18       1.0  0.78054  0.43869  0.71993  1.0000
  H   H19       1.0  0.28055  0.93870  0.78008  1.0000
  H   H20       1.0  0.21944  0.56130  0.28007  1.0000
  H   H21       1.0  0.00446  0.09210  0.33295  1.0000
  H   H22       1.0  0.49549  0.40788  0.83296  1.0000
  H   H23       1.0  0.99551  0.90790  0.66705  1.0000
  H   H24       1.0  0.50450  0.59211  0.16704  1.0000
  C   C1        1.0  0.63110  0.13519  0.05609  1.0000
  C   C2        1.0  0.86887  0.36481  0.55609  1.0000
  C   C3        1.0  0.36891  0.86482  0.94390  1.0000
  C   C4        1.0  0.13113  0.63520  0.44391  1.0000
  C   C5        1.0  0.68608  0.22527  0.10833  1.0000
  C   C6        1.0  0.81392  0.27473  0.60833  1.0000
  C   C7        1.0  0.31392  0.77473  0.89167  1.0000
  C   C8        1.0  0.18607  0.72527  0.39167  1.0000
  C   C9        1.0  0.57489  0.31583  0.09627  1.0000
  C   C10       1.0  0.92514  0.18419  0.59628  1.0000
  C   C11       1.0  0.42512  0.68418  0.90373  1.0000
  C   C12       1.0  0.07484  0.81581  0.40372  1.0000
  C   C13       1.0  0.41696  0.31020  0.03433  1.0000
  C   C14       1.0  0.08306  0.18980  0.53433  1.0000
  C   C15       1.0  0.58304  0.68979  0.96567  1.0000
  C   C16       1.0  0.91691  0.81020  0.46567  1.0000
  C   C17       1.0  0.02641  0.32104  0.18647  1.0000
  C   C18       1.0  0.47358  0.17895  0.68646  1.0000
  C   C19       1.0  0.97359  0.67896  0.81354  1.0000
  C   C20       1.0  0.52642  0.82105  0.31354  1.0000
  C   C21       1.0  0.85320  0.22593  0.17318  1.0000
  C   C22       1.0  0.64678  0.27407  0.67317  1.0000
  C   C23       1.0  0.14679  0.77407  0.82682  1.0000
  C   C24       1.0  0.35320  0.72594  0.32682  1.0000
  C   C25       1.0  0.84609  0.13846  0.22533  1.0000
  C   C26       1.0  0.65387  0.36152  0.72533  1.0000
  C   C27       1.0  0.15390  0.86154  0.77468  1.0000
  C   C28       1.0  0.34610  0.63847  0.27467  1.0000
  C   C29       1.0  0.00245  0.15486  0.28812  1.0000
  C   C30       1.0  0.49751  0.34512  0.78812  1.0000
  C   C31       1.0  0.99754  0.84514  0.71188  1.0000
  C   C32       1.0  0.50248  0.65487  0.21188  1.0000
  N   N1        1.0  0.37314  0.22158  0.98748  1.0000
  N   N2        1.0  0.12686  0.27842  0.48748  1.0000
  N   N3        1.0  0.62685  0.77841  0.01252  1.0000
  N   N4        1.0  0.87314  0.72158  0.51252  1.0000
  N   N5        1.0  0.48054  0.13391  0.99707  1.0000
  N   N6        1.0  0.01945  0.36608  0.49707  1.0000
  N   N7        1.0  0.51947  0.86609  0.00292  1.0000
  N   N8        1.0  0.98057  0.63392  0.50293  1.0000
  N   N9        1.0  0.15654  0.24933  0.29811  1.0000
  N   N10       1.0  0.34343  0.25065  0.79811  1.0000
  N   N11       1.0  0.84346  0.75067  0.70189  1.0000
  N   N12       1.0  0.65656  0.74934  0.20189  1.0000
  N   N13       1.0  0.17437  0.33244  0.24655  1.0000
  N   N14       1.0  0.32562  0.16754  0.74654  1.0000
  N   N15       1.0  0.82563  0.66755  0.75346  1.0000
  N   N16       1.0  0.67438  0.83245  0.25346  1.0000
  N   N17       1.0  0.83086  0.04841  0.84274  1.0000
  N   N18       1.0  0.66914  0.45156  0.34274  1.0000
  N   N19       1.0  0.16915  0.95158  0.15725  1.0000
  N   N20       1.0  0.33086  0.54845  0.65726  1.0000
  N   N21       1.0  0.94566  0.40544  0.91853  1.0000
  N   N22       1.0  0.55438  0.09457  0.41854  1.0000
  N   N23       1.0  0.05437  0.59457  0.08147  1.0000
  N   N24       1.0  0.44563  0.90544  0.58146  1.0000
  O   O1        1.0  0.81252  0.14097  0.81277  1.0000
  O   O2        1.0  0.68746  0.35900  0.31277  1.0000
  O   O3        1.0  0.18749  0.85903  0.18723  1.0000
  O   O4        1.0  0.31254  0.64101  0.68722  1.0000
  O   O5        1.0  0.99510  0.04942  0.89604  1.0000
  O   O6        1.0  0.50492  0.45057  0.39604  1.0000
  O   O7        1.0  0.00490  0.95057  0.10396  1.0000
  O   O8        1.0  0.49508  0.54943  0.60396  1.0000
  O   O9        1.0  0.70551  0.95942  0.82417  1.0000
  O   O10       1.0  0.79450  0.54055  0.32415  1.0000
  O   O11       1.0  0.29451  0.04057  0.17583  1.0000
  O   O12       1.0  0.20549  0.45946  0.67584  1.0000
  O   O13       1.0  0.91297  0.30326  0.94395  1.0000
  O   O14       1.0  0.58703  0.19674  0.44397  1.0000
  O   O15       1.0  0.08702  0.69674  0.05604  1.0000
  O   O16       1.0  0.41301  0.80328  0.55603  1.0000
  O   O17       1.0  0.12446  0.43964  0.87771  1.0000
  O   O18       1.0  0.37561  0.06037  0.37770  1.0000
  O   O19       1.0  0.87557  0.56036  0.12230  1.0000
  O   O20       1.0  0.62440  0.93966  0.62229  1.0000
  O   O21       1.0  0.79617  0.46427  0.93552  1.0000
  O   O22       1.0  0.70386  0.03574  0.43553  1.0000
  O   O23       1.0  0.20389  0.53575  0.06450  1.0000
  O   O24       1.0  0.29610  0.96426  0.56448  1.0000
