data_image0
_chemical_formula_structural       Cu4H12C16N8Cl4
_chemical_formula_sum              "Cu4 H12 C16 N8 Cl4"
_cell_length_a       4.88566
_cell_length_b       6.73452
_cell_length_c       15.2488
_cell_angle_alpha    90.0004
_cell_angle_beta     89.9995
_cell_angle_gamma    99.8125

_space_group_name_H-M_alt    "P 1"
_space_group_IT_number       1

loop_
  _space_group_symop_operation_xyz
  'x, y, z'

loop_
  _atom_site_type_symbol
  _atom_site_label
  _atom_site_symmetry_multiplicity
  _atom_site_fract_x
  _atom_site_fract_y
  _atom_site_fract_z
  _atom_site_occupancy
  Cu  Cu1       1.0  0.90925  0.80274  0.24687  1.0000
  Cu  Cu2       1.0  0.09074  0.69725  0.74687  1.0000
  Cu  Cu3       1.0  0.09077  0.19726  0.75313  1.0000
  Cu  Cu4       1.0  0.90922  0.30274  0.25313  1.0000
  H   H1        1.0  0.34021  0.27502  0.38203  1.0000
  H   H2        1.0  0.65975  0.22495  0.88203  1.0000
  H   H3        1.0  0.65977  0.72496  0.61798  1.0000
  H   H4        1.0  0.34025  0.77506  0.11798  1.0000
  H   H5        1.0  0.36335  0.81522  0.54024  1.0000
  H   H6        1.0  0.63667  0.68478  0.04024  1.0000
  H   H7        1.0  0.63668  0.18480  0.45975  1.0000
  H   H8        1.0  0.36332  0.31521  0.95975  1.0000
  H   H9        1.0  0.05876  0.92272  0.42417  1.0000
  H   H10       1.0  0.94127  0.57729  0.92417  1.0000
  H   H11       1.0  0.94124  0.07728  0.57583  1.0000
  H   H12       1.0  0.05875  0.42271  0.07583  1.0000
  C   C1        1.0  0.28878  0.42257  0.39733  1.0000
  C   C2        1.0  0.71120  0.07743  0.89733  1.0000
  C   C3        1.0  0.71120  0.57742  0.60266  1.0000
  C   C4        1.0  0.28880  0.92258  0.10267  1.0000
  C   C5        1.0  0.40050  0.53597  0.47050  1.0000
  C   C6        1.0  0.59949  0.96403  0.97050  1.0000
  C   C7        1.0  0.59950  0.46404  0.52950  1.0000
  C   C8        1.0  0.40050  0.03596  0.02951  1.0000
  C   C9        1.0  0.30582  0.71881  0.48338  1.0000
  C   C10       1.0  0.69419  0.78119  0.98338  1.0000
  C   C11       1.0  0.69418  0.28119  0.51661  1.0000
  C   C12       1.0  0.30582  0.21882  0.01662  1.0000
  C   C13       1.0  0.13358  0.77947  0.42028  1.0000
  C   C14       1.0  0.86643  0.72054  0.92028  1.0000
  C   C15       1.0  0.86643  0.22053  0.57973  1.0000
  C   C16       1.0  0.13359  0.27946  0.07973  1.0000
  N   N1        1.0  0.04744  0.67111  0.34863  1.0000
  N   N2        1.0  0.95256  0.82889  0.84862  1.0000
  N   N3        1.0  0.95256  0.32887  0.65137  1.0000
  N   N4        1.0  0.04743  0.17114  0.15137  1.0000
  N   N5        1.0  0.11345  0.48496  0.33985  1.0000
  N   N6        1.0  0.88655  0.01503  0.83984  1.0000
  N   N7        1.0  0.88653  0.51503  0.66016  1.0000
  N   N8        1.0  0.11347  0.98494  0.16016  1.0000
  Cl  Cl1       1.0  0.63891  0.02549  0.31704  1.0000
  Cl  Cl2       1.0  0.36109  0.47452  0.81704  1.0000
  Cl  Cl3       1.0  0.36108  0.97450  0.68295  1.0000
  Cl  Cl4       1.0  0.63891  0.52549  0.18295  1.0000
