data_image0
_chemical_formula_structural       Cu4H12C16Br4N8
_chemical_formula_sum              "Cu4 H12 C16 Br4 N8"
_cell_length_a       5.15953
_cell_length_b       6.84605
_cell_length_c       15.3083
_cell_angle_alpha    90.0002
_cell_angle_beta     90.0009
_cell_angle_gamma    100.978

_space_group_name_H-M_alt    "P 1"
_space_group_IT_number       1

loop_
  _space_group_symop_operation_xyz
  'x, y, z'

loop_
  _atom_site_type_symbol
  _atom_site_label
  _atom_site_symmetry_multiplicity
  _atom_site_fract_x
  _atom_site_fract_y
  _atom_site_fract_z
  _atom_site_occupancy
  Cu  Cu1       1.0  0.94395  0.79008  0.24682  1.0000
  Cu  Cu2       1.0  0.05607  0.70992  0.74682  1.0000
  Cu  Cu3       1.0  0.05607  0.20991  0.75318  1.0000
  Cu  Cu4       1.0  0.94392  0.29008  0.25318  1.0000
  H   H1        1.0  0.35298  0.27478  0.38196  1.0000
  H   H2        1.0  0.64704  0.22522  0.88196  1.0000
  H   H3        1.0  0.64706  0.72524  0.61803  1.0000
  H   H4        1.0  0.35301  0.77478  0.11805  1.0000
  H   H5        1.0  0.35732  0.80278  0.54058  1.0000
  H   H6        1.0  0.64265  0.69721  0.04058  1.0000
  H   H7        1.0  0.64267  0.19721  0.45942  1.0000
  H   H8        1.0  0.35730  0.30278  0.95941  1.0000
  H   H9        1.0  0.06914  0.90161  0.42466  1.0000
  H   H10       1.0  0.93083  0.59837  0.92466  1.0000
  H   H11       1.0  0.93087  0.09840  0.57535  1.0000
  H   H12       1.0  0.06911  0.40159  0.07534  1.0000
  C   C1        1.0  0.30135  0.41826  0.39722  1.0000
  C   C2        1.0  0.69866  0.08176  0.89722  1.0000
  C   C3        1.0  0.69868  0.58176  0.60277  1.0000
  C   C4        1.0  0.30135  0.91827  0.10277  1.0000
  C   C5        1.0  0.40361  0.53168  0.47063  1.0000
  C   C6        1.0  0.59638  0.96833  0.97063  1.0000
  C   C7        1.0  0.59641  0.46833  0.52937  1.0000
  C   C8        1.0  0.40358  0.03167  0.02937  1.0000
  C   C9        1.0  0.30676  0.70688  0.48384  1.0000
  C   C10       1.0  0.69322  0.79312  0.98384  1.0000
  C   C11       1.0  0.69325  0.29313  0.51617  1.0000
  C   C12       1.0  0.30674  0.20687  0.01617  1.0000
  C   C13       1.0  0.14351  0.76305  0.42060  1.0000
  C   C14       1.0  0.85650  0.73695  0.92059  1.0000
  C   C15       1.0  0.85650  0.23696  0.57940  1.0000
  C   C16       1.0  0.14348  0.26303  0.07939  1.0000
  Br  Br1       1.0  0.66011  0.00592  0.32191  1.0000
  Br  Br2       1.0  0.33987  0.49408  0.82192  1.0000
  Br  Br3       1.0  0.33988  0.99407  0.67810  1.0000
  Br  Br4       1.0  0.66010  0.50592  0.17810  1.0000
  N   N1        1.0  0.06836  0.65682  0.34824  1.0000
  N   N2        1.0  0.93165  0.84316  0.84824  1.0000
  N   N3        1.0  0.93165  0.34319  0.65176  1.0000
  N   N4        1.0  0.06835  0.15682  0.15174  1.0000
  N   N5        1.0  0.13493  0.47576  0.33945  1.0000
  N   N6        1.0  0.86510  0.02423  0.83945  1.0000
  N   N7        1.0  0.86508  0.52426  0.66055  1.0000
  N   N8        1.0  0.13493  0.97575  0.16055  1.0000
