data_image0
_chemical_formula_structural       Cu8H24C32I8N16
_chemical_formula_sum              "Cu8 H24 C32 I8 N16"
_cell_length_a       9.99475
_cell_length_b       9.99464
_cell_length_c       11.9496
_cell_angle_alpha    90.0001
_cell_angle_beta     90.0002
_cell_angle_gamma    89.9898

_space_group_name_H-M_alt    "P 1"
_space_group_IT_number       1

loop_
  _space_group_symop_operation_xyz
  'x, y, z'

loop_
  _atom_site_type_symbol
  _atom_site_label
  _atom_site_symmetry_multiplicity
  _atom_site_fract_x
  _atom_site_fract_y
  _atom_site_fract_z
  _atom_site_occupancy
  Cu  Cu1       1.0  0.59919  0.02094  0.87446  1.0000
  Cu  Cu2       1.0  0.40081  0.97906  0.37446  1.0000
  Cu  Cu3       1.0  0.47905  0.09933  0.62451  1.0000
  Cu  Cu4       1.0  0.52095  0.90067  0.12451  1.0000
  Cu  Cu5       1.0  0.90067  0.52095  0.87549  1.0000
  Cu  Cu6       1.0  0.09933  0.47905  0.37549  1.0000
  Cu  Cu7       1.0  0.02094  0.59919  0.12554  1.0000
  Cu  Cu8       1.0  0.97907  0.40081  0.62554  1.0000
  H   H1        1.0  0.87225  0.92266  0.83434  1.0000
  H   H2        1.0  0.12775  0.07734  0.33434  1.0000
  H   H3        1.0  0.57700  0.37244  0.58431  1.0000
  H   H4        1.0  0.42300  0.62757  0.08431  1.0000
  H   H5        1.0  0.62757  0.42299  0.91569  1.0000
  H   H6        1.0  0.37243  0.57701  0.41570  1.0000
  H   H7        1.0  0.92266  0.87225  0.16566  1.0000
  H   H8        1.0  0.07734  0.12774  0.66566  1.0000
  H   H9        1.0  0.99600  0.82933  0.67032  1.0000
  H   H10       1.0  0.00400  0.17067  0.17032  1.0000
  H   H11       1.0  0.67053  0.49604  0.42030  1.0000
  H   H12       1.0  0.32946  0.50397  0.92030  1.0000
  H   H13       1.0  0.50397  0.32945  0.07970  1.0000
  H   H14       1.0  0.49603  0.67055  0.57971  1.0000
  H   H15       1.0  0.82932  0.99601  0.32968  1.0000
  H   H16       1.0  0.17067  0.00399  0.82968  1.0000
  H   H17       1.0  0.67239  0.98863  0.46926  1.0000
  H   H18       1.0  0.32761  0.01136  0.96926  1.0000
  H   H19       1.0  0.51157  0.17231  0.21927  1.0000
  H   H20       1.0  0.48843  0.82769  0.71927  1.0000
  H   H21       1.0  0.82768  0.48843  0.28074  1.0000
  H   H22       1.0  0.17231  0.51157  0.78074  1.0000
  H   H23       1.0  0.98863  0.67239  0.53074  1.0000
  H   H24       1.0  0.01137  0.32761  0.03074  1.0000
  C   C1        1.0  0.83452  0.93493  0.74925  1.0000
  C   C2        1.0  0.16548  0.06507  0.24925  1.0000
  C   C3        1.0  0.56485  0.33465  0.49923  1.0000
  C   C4        1.0  0.43515  0.66536  0.99923  1.0000
  C   C5        1.0  0.66536  0.43514  0.00077  1.0000
  C   C6        1.0  0.33464  0.56486  0.50077  1.0000
  C   C7        1.0  0.93493  0.83452  0.25075  1.0000
  C   C8        1.0  0.06507  0.16548  0.75074  1.0000
  C   C9        1.0  0.90223  0.88264  0.65756  1.0000
  C   C10       1.0  0.09777  0.11736  0.15756  1.0000
  C   C11       1.0  0.61722  0.40227  0.40753  1.0000
  C   C12       1.0  0.38278  0.59773  0.90754  1.0000
  C   C13       1.0  0.59773  0.38277  0.09247  1.0000
  C   C14       1.0  0.40227  0.61723  0.59247  1.0000
  C   C15       1.0  0.88264  0.90223  0.34244  1.0000
  C   C16       1.0  0.11736  0.09777  0.84244  1.0000
  C   C17       1.0  0.72563  0.97321  0.54783  1.0000
  C   C18       1.0  0.27436  0.02678  0.04783  1.0000
  C   C19       1.0  0.52680  0.22562  0.29784  1.0000
  C   C20       1.0  0.47320  0.77438  0.79784  1.0000
  C   C21       1.0  0.77438  0.47321  0.20217  1.0000
  C   C22       1.0  0.22562  0.52679  0.70217  1.0000
  C   C23       1.0  0.97321  0.72564  0.45217  1.0000
  C   C24       1.0  0.02679  0.27436  0.95217  1.0000
  C   C25       1.0  0.84778  0.90400  0.55128  1.0000
  C   C26       1.0  0.15222  0.09600  0.05128  1.0000
  C   C27       1.0  0.59593  0.34781  0.30129  1.0000
  C   C28       1.0  0.40407  0.65219  0.80129  1.0000
  C   C29       1.0  0.65219  0.40407  0.19872  1.0000
  C   C30       1.0  0.34781  0.59593  0.69872  1.0000
  C   C31       1.0  0.90400  0.84779  0.44871  1.0000
  C   C32       1.0  0.09600  0.15222  0.94871  1.0000
  I   I1        1.0  0.72250  0.05517  0.06488  1.0000
  I   I2        1.0  0.27750  0.94484  0.56488  1.0000
  I   I3        1.0  0.44488  0.22276  0.81487  1.0000
  I   I4        1.0  0.55512  0.77724  0.31487  1.0000
  I   I5        1.0  0.77725  0.55511  0.68513  1.0000
  I   I6        1.0  0.22276  0.44488  0.18513  1.0000
  I   I7        1.0  0.05516  0.72250  0.93512  1.0000
  I   I8        1.0  0.94484  0.27750  0.43512  1.0000
  N   N1        1.0  0.71706  0.99916  0.74115  1.0000
  N   N2        1.0  0.28294  0.00084  0.24115  1.0000
  N   N3        1.0  0.50072  0.21717  0.49115  1.0000
  N   N4        1.0  0.49929  0.78284  0.99116  1.0000
  N   N5        1.0  0.78284  0.49928  0.00885  1.0000
  N   N6        1.0  0.21717  0.50072  0.50885  1.0000
  N   N7        1.0  0.99916  0.71707  0.25885  1.0000
  N   N8        1.0  0.00084  0.28293  0.75885  1.0000
  N   N9        1.0  0.66097  0.01573  0.63913  1.0000
  N   N10       1.0  0.33903  0.98427  0.13913  1.0000
  N   N11       1.0  0.48432  0.16097  0.38916  1.0000
  N   N12       1.0  0.51568  0.83903  0.88916  1.0000
  N   N13       1.0  0.83903  0.51568  0.11084  1.0000
  N   N14       1.0  0.16097  0.48432  0.61084  1.0000
  N   N15       1.0  0.01573  0.66097  0.36086  1.0000
  N   N16       1.0  0.98427  0.33903  0.86086  1.0000
