data_image0
_chemical_formula_structural       Cd4H24C28S8N16
_chemical_formula_sum              "Cd4 H24 C28 S8 N16"
_cell_length_a       8.3022
_cell_length_b       9.54887
_cell_length_c       13.1891
_cell_angle_alpha    90.0001
_cell_angle_beta     94.4389
_cell_angle_gamma    89.9999

_space_group_name_H-M_alt    "P 1"
_space_group_IT_number       1

loop_
  _space_group_symop_operation_xyz
  'x, y, z'

loop_
  _atom_site_type_symbol
  _atom_site_label
  _atom_site_symmetry_multiplicity
  _atom_site_fract_x
  _atom_site_fract_y
  _atom_site_fract_z
  _atom_site_occupancy
  Cd  Cd1       1.0  0.14724  0.78840  0.37430  1.0000
  Cd  Cd2       1.0  0.35276  0.28840  0.12570  1.0000
  Cd  Cd3       1.0  0.85276  0.21161  0.62570  1.0000
  Cd  Cd4       1.0  0.64724  0.71161  0.87430  1.0000
  H   H1        1.0  0.15435  0.57360  0.57550  1.0000
  H   H2        1.0  0.34565  0.07360  0.92450  1.0000
  H   H3        1.0  0.84565  0.42640  0.42450  1.0000
  H   H4        1.0  0.65435  0.92640  0.07550  1.0000
  H   H5        1.0  0.65187  0.82954  0.66008  1.0000
  H   H6        1.0  0.84814  0.32954  0.83992  1.0000
  H   H7        1.0  0.34813  0.17046  0.33992  1.0000
  H   H8        1.0  0.15187  0.67046  0.16008  1.0000
  H   H9        1.0  0.48505  0.87109  0.49436  1.0000
  H   H10       1.0  0.01495  0.37109  0.00563  1.0000
  H   H11       1.0  0.51495  0.12891  0.50564  1.0000
  H   H12       1.0  0.98505  0.62891  0.99436  1.0000
  H   H13       1.0  0.41424  0.44993  0.80246  1.0000
  H   H14       1.0  0.08576  0.94993  0.69754  1.0000
  H   H15       1.0  0.58577  0.55007  0.19754  1.0000
  H   H16       1.0  0.91423  0.05007  0.30246  1.0000
  H   H17       1.0  0.23558  0.41556  0.72168  1.0000
  H   H18       1.0  0.26442  0.91555  0.77832  1.0000
  H   H19       1.0  0.76442  0.58445  0.27832  1.0000
  H   H20       1.0  0.73558  0.08445  0.22168  1.0000
  H   H21       1.0  0.23495  0.54782  0.81662  1.0000
  H   H22       1.0  0.26505  0.04781  0.68338  1.0000
  H   H23       1.0  0.76505  0.45218  0.18338  1.0000
  H   H24       1.0  0.73495  0.95219  0.31662  1.0000
  C   C1        1.0  0.14735  0.11826  0.47719  1.0000
  C   C2        1.0  0.35265  0.61826  0.02281  1.0000
  C   C3        1.0  0.85265  0.88174  0.52281  1.0000
  C   C4        1.0  0.64735  0.38174  0.97719  1.0000
  C   C5        1.0  0.11616  0.44829  0.28964  1.0000
  C   C6        1.0  0.38384  0.94829  0.21036  1.0000
  C   C7        1.0  0.88384  0.55171  0.71036  1.0000
  C   C8        1.0  0.61616  0.05171  0.78964  1.0000
  C   C9        1.0  0.26657  0.63023  0.59509  1.0000
  C   C10       1.0  0.23343  0.13023  0.90491  1.0000
  C   C11       1.0  0.73343  0.36977  0.40491  1.0000
  C   C12       1.0  0.76657  0.86977  0.09509  1.0000
  C   C13       1.0  0.35883  0.60415  0.68719  1.0000
  C   C14       1.0  0.14117  0.10415  0.81281  1.0000
  C   C15       1.0  0.64117  0.39585  0.31281  1.0000
  C   C16       1.0  0.85882  0.89585  0.18719  1.0000
  C   C17       1.0  0.54022  0.77237  0.64126  1.0000
  C   C18       1.0  0.95979  0.27237  0.85874  1.0000
  C   C19       1.0  0.45978  0.22763  0.35874  1.0000
  C   C20       1.0  0.04022  0.72763  0.14126  1.0000
  C   C21       1.0  0.44839  0.79601  0.55043  1.0000
  C   C22       1.0  0.05161  0.29601  0.94957  1.0000
  C   C23       1.0  0.55161  0.20399  0.44957  1.0000
  C   C24       1.0  0.94839  0.70399  0.05043  1.0000
  C   C25       1.0  0.30862  0.49760  0.76101  1.0000
  C   C26       1.0  0.19138  0.99759  0.73899  1.0000
  C   C27       1.0  0.69138  0.50240  0.23899  1.0000
  C   C28       1.0  0.80862  0.00240  0.26101  1.0000
  S   S1        1.0  0.12982  0.26655  0.53622  1.0000
  S   S2        1.0  0.37018  0.76655  0.96378  1.0000
  S   S3        1.0  0.87017  0.73345  0.46378  1.0000
  S   S4        1.0  0.62983  0.23345  0.03622  1.0000
  S   S5        1.0  0.07508  0.30656  0.22362  1.0000
  S   S6        1.0  0.42492  0.80656  0.27638  1.0000
  S   S7        1.0  0.92493  0.69344  0.77638  1.0000
  S   S8        1.0  0.57507  0.19344  0.72362  1.0000
  N   N1        1.0  0.16524  0.01287  0.43234  1.0000
  N   N2        1.0  0.33476  0.51287  0.06766  1.0000
  N   N3        1.0  0.83476  0.98713  0.56766  1.0000
  N   N4        1.0  0.66524  0.48713  0.93234  1.0000
  N   N5        1.0  0.14259  0.55026  0.33915  1.0000
  N   N6        1.0  0.35741  0.05026  0.16085  1.0000
  N   N7        1.0  0.85741  0.44974  0.66085  1.0000
  N   N8        1.0  0.64259  0.94974  0.83915  1.0000
  N   N9        1.0  0.49466  0.67919  0.70964  1.0000
  N   N10       1.0  0.00534  0.17919  0.79036  1.0000
  N   N11       1.0  0.50535  0.32081  0.29036  1.0000
  N   N12       1.0  0.99466  0.82081  0.20964  1.0000
  N   N13       1.0  0.31019  0.72593  0.52852  1.0000
  N   N14       1.0  0.18982  0.22593  0.97148  1.0000
  N   N15       1.0  0.68981  0.27407  0.47148  1.0000
  N   N16       1.0  0.81019  0.77407  0.02852  1.0000
