data_image0
_chemical_formula_structural       Gd2H30C40S2N8O14
_chemical_formula_sum              "Gd2 H30 C40 S2 N8 O14"
_cell_length_a       9.60218
_cell_length_b       9.7674
_cell_length_c       12.1438
_cell_angle_alpha    74.1393
_cell_angle_beta     77.3259
_cell_angle_gamma    63.9834

_space_group_name_H-M_alt    "P 1"
_space_group_IT_number       1

loop_
  _space_group_symop_operation_xyz
  'x, y, z'

loop_
  _atom_site_type_symbol
  _atom_site_label
  _atom_site_symmetry_multiplicity
  _atom_site_fract_x
  _atom_site_fract_y
  _atom_site_fract_z
  _atom_site_occupancy
  Gd  Gd1       1.0  0.69632  0.48962  0.93513  1.0000
  Gd  Gd2       1.0  0.30367  0.51038  0.06487  1.0000
  H   H1        1.0  0.81400  0.67963  0.06604  1.0000
  H   H2        1.0  0.18601  0.32037  0.93396  1.0000
  H   H3        1.0  0.80194  0.93876  0.07050  1.0000
  H   H4        1.0  0.19807  0.06124  0.92950  1.0000
  H   H5        1.0  0.65727  0.17170  0.92782  1.0000
  H   H6        1.0  0.34274  0.82830  0.07218  1.0000
  H   H7        1.0  0.30985  0.51111  0.63433  1.0000
  H   H8        1.0  0.69015  0.48888  0.36567  1.0000
  H   H9        1.0  0.30963  0.04477  0.54646  1.0000
  H   H10       1.0  0.69036  0.95523  0.45355  1.0000
  H   H11       1.0  0.36910  0.76624  0.55153  1.0000
  H   H12       1.0  0.63088  0.23375  0.44848  1.0000
  H   H13       1.0  0.53383  0.55792  0.69786  1.0000
  H   H14       1.0  0.46616  0.44207  0.30216  1.0000
  H   H15       1.0  0.98274  0.32084  0.28553  1.0000
  H   H16       1.0  0.01725  0.67916  0.71446  1.0000
  H   H17       1.0  0.13061  0.12678  0.44113  1.0000
  H   H18       1.0  0.86938  0.87323  0.55887  1.0000
  H   H19       1.0  0.19118  0.84337  0.46005  1.0000
  H   H20       1.0  0.80882  0.15663  0.53995  1.0000
  H   H21       1.0  0.95548  0.96025  0.16336  1.0000
  H   H22       1.0  0.04452  0.03974  0.83663  1.0000
  H   H23       1.0  0.00115  0.42524  0.77949  1.0000
  H   H24       1.0  0.99885  0.57476  0.22051  1.0000
  H   H25       1.0  0.02119  0.52191  0.86136  1.0000
  H   H26       1.0  0.97880  0.47809  0.13864  1.0000
  H   H27       1.0  0.51334  0.60298  0.14170  1.0000
  H   H28       1.0  0.48666  0.39702  0.85830  1.0000
  H   H29       1.0  0.25580  0.31053  0.58128  1.0000
  H   H30       1.0  0.74419  0.68948  0.41873  1.0000
  C   C1        1.0  0.75406  0.78210  0.00363  1.0000
  C   C2        1.0  0.24595  0.21790  0.99636  1.0000
  C   C3        1.0  0.74673  0.92765  0.00607  1.0000
  C   C4        1.0  0.25328  0.07234  0.99392  1.0000
  C   C5        1.0  0.66773  0.05650  0.92675  1.0000
  C   C6        1.0  0.33228  0.94350  0.07325  1.0000
  C   C7        1.0  0.59664  0.03720  0.84552  1.0000
  C   C8        1.0  0.40337  0.96279  0.15448  1.0000
  C   C9        1.0  0.50381  0.16244  0.76343  1.0000
  C   C10       1.0  0.49620  0.83755  0.23657  1.0000
  C   C11       1.0  0.36760  0.38721  0.66740  1.0000
  C   C12       1.0  0.63241  0.61278  0.33260  1.0000
  C   C13       1.0  0.42840  0.13627  0.68983  1.0000
  C   C14       1.0  0.57161  0.86373  0.31017  1.0000
  C   C15       1.0  0.44637  0.98494  0.68589  1.0000
  C   C16       1.0  0.55363  0.01506  0.31411  1.0000
  C   C17       1.0  0.38181  0.95089  0.60861  1.0000
  C   C18       1.0  0.61818  0.04911  0.39139  1.0000
  C   C19       1.0  0.41351  0.79760  0.61168  1.0000
  C   C20       1.0  0.58647  0.20239  0.38833  1.0000
  C   C21       1.0  0.50649  0.67987  0.69321  1.0000
  C   C22       1.0  0.49350  0.32012  0.30680  1.0000
  C   C23       1.0  0.54046  0.85826  0.76602  1.0000
  C   C24       1.0  0.45955  0.14174  0.23398  1.0000
  C   C25       1.0  0.61147  0.88492  0.84785  1.0000
  C   C26       1.0  0.38854  0.11508  0.15215  1.0000
  C   C27       1.0  0.87436  0.27132  0.11707  1.0000
  C   C28       1.0  0.12564  0.72869  0.88293  1.0000
  C   C29       1.0  0.95963  0.15312  0.21403  1.0000
  C   C30       1.0  0.04037  0.84689  0.78597  1.0000
  C   C31       1.0  0.00964  0.19874  0.29281  1.0000
  C   C32       1.0  0.99035  0.80126  0.70720  1.0000
  C   C33       1.0  0.09462  0.08864  0.38002  1.0000
  C   C34       1.0  0.90537  0.91136  0.61998  1.0000
  C   C35       1.0  0.12829  0.93171  0.39115  1.0000
  C   C36       1.0  0.87171  0.06829  0.60885  1.0000
  C   C37       1.0  0.07557  0.88628  0.31472  1.0000
  C   C38       1.0  0.92443  0.11372  0.68528  1.0000
  C   C39       1.0  0.99263  0.99567  0.22548  1.0000
  C   C40       1.0  0.00737  0.00433  0.77451  1.0000
  S   S1        1.0  0.11831  0.68497  0.33114  1.0000
  S   S2        1.0  0.88169  0.31504  0.66886  1.0000
  N   N1        1.0  0.68956  0.75994  0.92686  1.0000
  N   N2        1.0  0.31044  0.24006  0.07314  1.0000
  N   N3        1.0  0.46450  0.31994  0.74775  1.0000
  N   N4        1.0  0.53550  0.68005  0.25225  1.0000
  N   N5        1.0  0.34380  0.28144  0.62868  1.0000
  N   N6        1.0  0.65620  0.71856  0.37132  1.0000
  N   N7        1.0  0.56682  0.70920  0.76872  1.0000
  N   N8        1.0  0.43318  0.29080  0.23128  1.0000
  O   O1        1.0  0.81929  0.23027  0.05136  1.0000
  O   O2        1.0  0.18070  0.76974  0.94864  1.0000
  O   O3        1.0  0.85798  0.41310  0.10133  1.0000
  O   O4        1.0  0.14201  0.58691  0.89866  1.0000
  O   O5        1.0  0.96750  0.67646  0.33343  1.0000
  O   O6        1.0  0.03249  0.32355  0.66656  1.0000
  O   O7        1.0  0.19284  0.60332  0.43629  1.0000
  O   O8        1.0  0.80716  0.39668  0.56371  1.0000
  O   O9        1.0  0.22198  0.64175  0.22517  1.0000
  O   O10       1.0  0.77803  0.35825  0.77483  1.0000
  O   O11       1.0  0.95368  0.47676  0.84635  1.0000
  O   O12       1.0  0.04632  0.52324  0.15365  1.0000
  O   O13       1.0  0.50450  0.56783  0.07518  1.0000
  O   O14       1.0  0.49550  0.43217  0.92482  1.0000
