data_image0
_chemical_formula_structural       Ag4H16C22N14O12
_chemical_formula_sum              "Ag4 H16 C22 N14 O12"
_cell_length_a       6.77632
_cell_length_b       10.3657
_cell_length_c       11.5154
_cell_angle_alpha    64.9044
_cell_angle_beta     89.5157
_cell_angle_gamma    73.1499

_space_group_name_H-M_alt    "P 1"
_space_group_IT_number       1

loop_
  _space_group_symop_operation_xyz
  'x, y, z'

loop_
  _atom_site_type_symbol
  _atom_site_label
  _atom_site_symmetry_multiplicity
  _atom_site_fract_x
  _atom_site_fract_y
  _atom_site_fract_z
  _atom_site_occupancy
  Ag  Ag1       1.0  0.88304  0.20178  0.55876  1.0000
  Ag  Ag2       1.0  0.11696  0.79822  0.44124  1.0000
  Ag  Ag3       1.0  0.75058  0.03845  0.43605  1.0000
  Ag  Ag4       1.0  0.24942  0.96155  0.56395  1.0000
  H   H1        1.0  0.74540  0.98806  0.02348  1.0000
  H   H2        1.0  0.25460  0.01194  0.97652  1.0000
  H   H3        1.0  0.72613  0.70989  0.85441  1.0000
  H   H4        1.0  0.27387  0.29011  0.14559  1.0000
  H   H5        1.0  0.74864  0.54640  0.09566  1.0000
  H   H6        1.0  0.25136  0.45360  0.90435  1.0000
  H   H7        1.0  0.76579  0.24973  0.94031  1.0000
  H   H8        1.0  0.23422  0.75027  0.05969  1.0000
  H   H9        1.0  0.09827  0.39325  0.32969  1.0000
  H   H10       1.0  0.90173  0.60675  0.67031  1.0000
  H   H11       1.0  0.35352  0.52624  0.30027  1.0000
  H   H12       1.0  0.64647  0.47376  0.69973  1.0000
  H   H13       1.0  0.44179  0.36378  0.71627  1.0000
  H   H14       1.0  0.55821  0.63622  0.28373  1.0000
  H   H15       1.0  0.18656  0.23377  0.72810  1.0000
  H   H16       1.0  0.81344  0.76623  0.27190  1.0000
  C   C1        1.0  0.17952  0.38835  0.41296  1.0000
  C   C2        1.0  0.82048  0.61165  0.58704  1.0000
  C   C3        1.0  0.32390  0.46373  0.39770  1.0000
  C   C4        1.0  0.67609  0.53627  0.60230  1.0000
  C   C5        1.0  0.42408  0.45918  0.50622  1.0000
  C   C6        1.0  0.57592  0.54082  0.49377  1.0000
  C   C7        1.0  0.37243  0.37375  0.62722  1.0000
  C   C8        1.0  0.62757  0.62625  0.37277  1.0000
  C   C9        1.0  0.22785  0.30036  0.63510  1.0000
  C   C10       1.0  0.77215  0.69965  0.36490  1.0000
  C   C11       1.0  0.76939  0.07486  0.82642  1.0000
  C   C12       1.0  0.23061  0.92514  0.17358  1.0000
  C   C13       1.0  0.72834  0.83125  0.95831  1.0000
  C   C14       1.0  0.27166  0.16875  0.04169  1.0000
  C   C15       1.0  0.73800  0.92341  0.72673  1.0000
  C   C16       1.0  0.26201  0.07659  0.27327  1.0000
  C   C17       1.0  0.75965  0.33049  0.23025  1.0000
  C   C18       1.0  0.24035  0.66951  0.76975  1.0000
  C   C19       1.0  0.75266  0.16454  0.13909  1.0000
  C   C20       1.0  0.24734  0.83546  0.86091  1.0000
  C   C21       1.0  0.75363  0.41864  0.99722  1.0000
  C   C22       1.0  0.24637  0.58136  0.00278  1.0000
  N   N1        1.0  0.13076  0.30762  0.52960  1.0000
  N   N2        1.0  0.86924  0.69238  0.47040  1.0000
  N   N3        1.0  0.76401  0.05090  0.71850  1.0000
  N   N4        1.0  0.23599  0.94910  0.28150  1.0000
  N   N5        1.0  0.74240  0.96668  0.94262  1.0000
  N   N6        1.0  0.25760  0.03332  0.05738  1.0000
  N   N7        1.0  0.73103  0.81274  0.84661  1.0000
  N   N8        1.0  0.26897  0.18726  0.15339  1.0000
  N   N9        1.0  0.75518  0.44007  0.10666  1.0000
  N   N10       1.0  0.24482  0.55993  0.89334  1.0000
  N   N11       1.0  0.75833  0.27703  0.01845  1.0000
  N   N12       1.0  0.24167  0.72297  0.98155  1.0000
  N   N13       1.0  0.75550  0.19391  0.24367  1.0000
  N   N14       1.0  0.24450  0.80609  0.75633  1.0000
  O   O1        1.0  0.79743  0.19043  0.82212  1.0000
  O   O2        1.0  0.20258  0.80957  0.17788  1.0000
  O   O3        1.0  0.71577  0.73253  0.06473  1.0000
  O   O4        1.0  0.28423  0.26747  0.93526  1.0000
  O   O5        1.0  0.72223  0.89592  0.63061  1.0000
  O   O6        1.0  0.27777  0.10408  0.36939  1.0000
  O   O7        1.0  0.76709  0.36109  0.32319  1.0000
  O   O8        1.0  0.23291  0.63891  0.67681  1.0000
  O   O9        1.0  0.74784  0.51985  0.88756  1.0000
  O   O10       1.0  0.25216  0.48015  0.11244  1.0000
  O   O11       1.0  0.74604  0.04141  0.14827  1.0000
  O   O12       1.0  0.25397  0.95859  0.85173  1.0000
