data_image0
_chemical_formula_structural       Hg2H32C44Br4N12Cl4O4
_chemical_formula_sum              "Hg2 H32 C44 Br4 N12 Cl4 O4"
_cell_length_a       3.93094
_cell_length_b       14.8407
_cell_length_c       20.4962
_cell_angle_alpha    90.0647
_cell_angle_beta     89.9991
_cell_angle_gamma    90.0008

_space_group_name_H-M_alt    "P 1"
_space_group_IT_number       1

loop_
  _space_group_symop_operation_xyz
  'x, y, z'

loop_
  _atom_site_type_symbol
  _atom_site_label
  _atom_site_symmetry_multiplicity
  _atom_site_fract_x
  _atom_site_fract_y
  _atom_site_fract_z
  _atom_site_occupancy
  Hg  Hg1       1.0  0.00000  1.00000  1.00000  1.0000
  Hg  Hg2       1.0  0.49999  0.50000  0.50000  1.0000
  H   H1        1.0  0.85342  0.57694  0.82556  1.0000
  H   H2        1.0  0.35337  0.92307  0.67445  1.0000
  H   H3        1.0  0.14660  0.42306  0.17444  1.0000
  H   H4        1.0  0.64660  0.07694  0.32556  1.0000
  H   H5        1.0  0.31878  0.45799  0.95730  1.0000
  H   H6        1.0  0.81875  0.04202  0.54270  1.0000
  H   H7        1.0  0.68122  0.54201  0.04270  1.0000
  H   H8        1.0  0.18122  0.95798  0.45730  1.0000
  H   H9        1.0  0.18812  0.77267  0.97532  1.0000
  H   H10       1.0  0.68816  0.72734  0.52469  1.0000
  H   H11       1.0  0.81188  0.22733  0.02468  1.0000
  H   H12       1.0  0.31185  0.27268  0.47532  1.0000
  H   H13       1.0  0.68800  0.94730  0.84934  1.0000
  H   H14       1.0  0.18801  0.55269  0.65066  1.0000
  H   H15       1.0  0.31198  0.05269  0.15065  1.0000
  H   H16       1.0  0.81198  0.44731  0.34934  1.0000
  H   H17       1.0  0.85636  0.27338  0.77507  1.0000
  H   H18       1.0  0.35630  0.22661  0.72494  1.0000
  H   H19       1.0  0.14363  0.72661  0.22493  1.0000
  H   H20       1.0  0.64370  0.77340  0.27506  1.0000
  H   H21       1.0  0.38294  0.29308  0.95910  1.0000
  H   H22       1.0  0.88294  0.20693  0.54091  1.0000
  H   H23       1.0  0.61707  0.70692  0.04090  1.0000
  H   H24       1.0  0.11707  0.79307  0.45909  1.0000
  H   H25       1.0  0.14660  0.19870  0.86840  1.0000
  H   H26       1.0  0.64656  0.30130  0.63160  1.0000
  H   H27       1.0  0.85341  0.80129  0.13160  1.0000
  H   H28       1.0  0.35344  0.69870  0.36839  1.0000
  H   H29       1.0  0.58382  0.81822  0.77040  1.0000
  H   H30       1.0  0.08381  0.68178  0.72960  1.0000
  H   H31       1.0  0.41617  0.18177  0.22960  1.0000
  H   H32       1.0  0.91620  0.31822  0.27040  1.0000
  C   C1        1.0  0.99356  0.71151  0.88615  1.0000
  C   C2        1.0  0.49354  0.78849  0.61386  1.0000
  C   C3        1.0  0.00648  0.28848  0.11385  1.0000
  C   C4        1.0  0.50645  0.21152  0.38615  1.0000
  C   C5        1.0  0.12557  0.61928  0.90291  1.0000
  C   C6        1.0  0.62557  0.88072  0.59709  1.0000
  C   C7        1.0  0.87444  0.38071  0.09708  1.0000
  C   C8        1.0  0.37442  0.11929  0.40291  1.0000
  C   C9        1.0  0.05400  0.46065  0.86521  1.0000
  C   C10       1.0  0.55397  0.03934  0.63479  1.0000
  C   C11       1.0  0.94602  0.53934  0.13479  1.0000
  C   C12       1.0  0.44603  0.96066  0.36521  1.0000
  C   C13       1.0  0.92910  0.40650  0.81397  1.0000
  C   C14       1.0  0.42906  0.09350  0.68603  1.0000
  C   C15       1.0  0.07091  0.59350  0.18603  1.0000
  C   C16       1.0  0.57093  0.90651  0.31397  1.0000
  C   C17       1.0  0.21764  0.41760  0.91762  1.0000
  C   C18       1.0  0.71760  0.08241  0.58238  1.0000
  C   C19       1.0  0.78237  0.58240  0.08238  1.0000
  C   C20       1.0  0.28236  0.91760  0.41762  1.0000
  C   C21       1.0  0.05331  0.78294  0.92943  1.0000
  C   C22       1.0  0.55335  0.71707  0.57058  1.0000
  C   C23       1.0  0.94669  0.21706  0.07057  1.0000
  C   C24       1.0  0.44666  0.28294  0.42942  1.0000
  C   C25       1.0  0.77853  0.87912  0.85939  1.0000
  C   C26       1.0  0.27854  0.62088  0.64062  1.0000
  C   C27       1.0  0.22144  0.12087  0.14061  1.0000
  C   C28       1.0  0.72145  0.37913  0.35938  1.0000
  C   C29       1.0  0.95979  0.31329  0.81497  1.0000
  C   C30       1.0  0.45976  0.18671  0.68503  1.0000
  C   C31       1.0  0.04021  0.68671  0.18503  1.0000
  C   C32       1.0  0.54026  0.81330  0.31497  1.0000
  C   C33       1.0  0.25061  0.32425  0.91830  1.0000
  C   C34       1.0  0.75060  0.17575  0.58170  1.0000
  C   C35       1.0  0.74939  0.67575  0.08170  1.0000
  C   C36       1.0  0.24941  0.82425  0.41830  1.0000
  C   C37       1.0  0.12188  0.27174  0.86754  1.0000
  C   C38       1.0  0.62186  0.22826  0.63247  1.0000
  C   C39       1.0  0.87812  0.72826  0.13246  1.0000
  C   C40       1.0  0.37814  0.77174  0.36753  1.0000
  C   C41       1.0  0.71958  0.80776  0.81633  1.0000
  C   C42       1.0  0.21958  0.69224  0.68367  1.0000
  C   C43       1.0  0.28041  0.19223  0.18366  1.0000
  C   C44       1.0  0.78042  0.30776  0.31633  1.0000
  Br  Br1       1.0  0.71531  0.46116  0.74012  1.0000
  Br  Br2       1.0  0.21528  0.03885  0.75988  1.0000
  Br  Br3       1.0  0.28470  0.53884  0.25988  1.0000
  Br  Br4       1.0  0.78475  0.96117  0.24012  1.0000
  N   N1        1.0  0.00710  0.55384  0.86219  1.0000
  N   N2        1.0  0.50705  0.94616  0.63782  1.0000
  N   N3        1.0  0.99294  0.44615  0.13781  1.0000
  N   N4        1.0  0.49292  0.05384  0.36219  1.0000
  N   N5        1.0  0.82453  0.72396  0.82988  1.0000
  N   N6        1.0  0.32452  0.77604  0.67012  1.0000
  N   N7        1.0  0.17548  0.27603  0.17012  1.0000
  N   N8        1.0  0.67547  0.22396  0.32988  1.0000
  N   N9        1.0  0.94414  0.86605  0.91570  1.0000
  N   N10       1.0  0.44416  0.63395  0.58430  1.0000
  N   N11       1.0  0.05584  0.13395  0.08430  1.0000
  N   N12       1.0  0.55585  0.36606  0.41570  1.0000
  Cl  Cl1       1.0  0.60243  0.08672  0.93471  1.0000
  Cl  Cl2       1.0  0.10243  0.41328  0.56529  1.0000
  Cl  Cl3       1.0  0.39756  0.91328  0.06529  1.0000
  Cl  Cl4       1.0  0.89756  0.58672  0.43471  1.0000
  O   O1        1.0  0.32462  0.60899  0.94911  1.0000
  O   O2        1.0  0.82461  0.89101  0.55090  1.0000
  O   O3        1.0  0.67543  0.39100  0.05089  1.0000
  O   O4        1.0  0.17536  0.10899  0.44911  1.0000
