data_image0
_chemical_formula_structural       Hg2H32C44I4Br4N12O4
_chemical_formula_sum              "Hg2 H32 C44 I4 Br4 N12 O4"
_cell_length_a       4.39495
_cell_length_b       13.3254
_cell_length_c       22.1537
_cell_angle_alpha    90.0206
_cell_angle_beta     89.9992
_cell_angle_gamma    90.0001

_space_group_name_H-M_alt    "P 1"
_space_group_IT_number       1

loop_
  _space_group_symop_operation_xyz
  'x, y, z'

loop_
  _atom_site_type_symbol
  _atom_site_label
  _atom_site_symmetry_multiplicity
  _atom_site_fract_x
  _atom_site_fract_y
  _atom_site_fract_z
  _atom_site_occupancy
  Hg  Hg1       1.0  0.50000  1.00000  0.50000  1.0000
  Hg  Hg2       1.0  0.00001  0.50000  1.00000  1.0000
  H   H1        1.0  0.59386  0.23717  0.72278  1.0000
  H   H2        1.0  0.09382  0.26283  0.77721  1.0000
  H   H3        1.0  0.40617  0.76283  0.27721  1.0000
  H   H4        1.0  0.90617  0.73718  0.22279  1.0000
  H   H5        1.0  0.36894  0.17949  0.62353  1.0000
  H   H6        1.0  0.86887  0.32050  0.87646  1.0000
  H   H7        1.0  0.63112  0.82051  0.37646  1.0000
  H   H8        1.0  0.13113  0.67950  0.12354  1.0000
  H   H9        1.0  0.84493  0.91072  0.63727  1.0000
  H   H10       1.0  0.34492  0.58926  0.86273  1.0000
  H   H11       1.0  0.15509  0.08927  0.36273  1.0000
  H   H12       1.0  0.65507  0.41074  0.13727  1.0000
  H   H13       1.0  0.77280  0.01717  0.97116  1.0000
  H   H14       1.0  0.27279  0.48282  0.52884  1.0000
  H   H15       1.0  0.22719  0.98283  0.02885  1.0000
  H   H16       1.0  0.72718  0.51717  0.47116  1.0000
  H   H17       1.0  0.99456  0.84475  0.96078  1.0000
  H   H18       1.0  0.49455  0.65525  0.53922  1.0000
  H   H19       1.0  0.00543  0.15525  0.03923  1.0000
  H   H20       1.0  0.50542  0.34474  0.46078  1.0000
  H   H21       1.0  0.85710  0.74019  0.87114  1.0000
  H   H22       1.0  0.35709  0.75981  0.62886  1.0000
  H   H23       1.0  0.14291  0.25981  0.12887  1.0000
  H   H24       1.0  0.64289  0.24019  0.37113  1.0000
  H   H25       1.0  0.50104  0.80403  0.79464  1.0000
  H   H26       1.0  0.00103  0.69597  0.70536  1.0000
  H   H27       1.0  0.49898  0.19597  0.20536  1.0000
  H   H28       1.0  0.99896  0.30403  0.29464  1.0000
  H   H29       1.0  0.13577  0.05523  0.80759  1.0000
  H   H30       1.0  0.63576  0.44477  0.69241  1.0000
  H   H31       1.0  0.86424  0.94477  0.19241  1.0000
  H   H32       1.0  0.36423  0.55523  0.30759  1.0000
  C   C1        1.0  0.64956  0.16347  0.70411  1.0000
  C   C2        1.0  0.14951  0.33652  0.79588  1.0000
  C   C3        1.0  0.35047  0.83652  0.29589  1.0000
  C   C4        1.0  0.85048  0.66348  0.20411  1.0000
  C   C5        1.0  0.52497  0.13183  0.64921  1.0000
  C   C6        1.0  0.02492  0.36817  0.85078  1.0000
  C   C7        1.0  0.47508  0.86817  0.35079  1.0000
  C   C8        1.0  0.97508  0.63184  0.14921  1.0000
  C   C9        1.0  0.78586  0.98373  0.65634  1.0000
  C   C10       1.0  0.28584  0.51626  0.84366  1.0000
  C   C11       1.0  0.21415  0.01626  0.34366  1.0000
  C   C12       1.0  0.71415  0.48375  0.15634  1.0000
  C   C13       1.0  0.91149  0.01565  0.71119  1.0000
  C   C14       1.0  0.41147  0.48434  0.78881  1.0000
  C   C15       1.0  0.08852  0.98434  0.28881  1.0000
  C   C16       1.0  0.58851  0.51567  0.21119  1.0000
  C   C17       1.0  0.13395  0.94849  0.74324  1.0000
  C   C18       1.0  0.63394  0.55151  0.75676  1.0000
  C   C19       1.0  0.86606  0.05151  0.25676  1.0000
  C   C20       1.0  0.36604  0.44850  0.24324  1.0000
  C   C21       1.0  0.43469  0.94719  0.83844  1.0000
  C   C22       1.0  0.93468  0.55281  0.66156  1.0000
  C   C23       1.0  0.56532  0.05281  0.16156  1.0000
  C   C24       1.0  0.06529  0.44719  0.33844  1.0000
  C   C25       1.0  0.51887  0.00571  0.88878  1.0000
  C   C26       1.0  0.01886  0.49429  0.61122  1.0000
  C   C27       1.0  0.48113  0.99429  0.11122  1.0000
  C   C28       1.0  0.98112  0.50570  0.38878  1.0000
  C   C29       1.0  0.71626  0.96974  0.93275  1.0000
  C   C30       1.0  0.21625  0.53026  0.56725  1.0000
  C   C31       1.0  0.28373  0.03026  0.06725  1.0000
  C   C32       1.0  0.78373  0.46974  0.43275  1.0000
  C   C33       1.0  0.83877  0.87364  0.92670  1.0000
  C   C34       1.0  0.33876  0.62635  0.57329  1.0000
  C   C35       1.0  0.16123  0.12636  0.07330  1.0000
  C   C36       1.0  0.66122  0.37364  0.42670  1.0000
  C   C37       1.0  0.76192  0.81506  0.87675  1.0000
  C   C38       1.0  0.26191  0.68494  0.62325  1.0000
  C   C39       1.0  0.23809  0.18495  0.12325  1.0000
  C   C40       1.0  0.73807  0.31506  0.37675  1.0000
  C   C41       1.0  0.56142  0.85060  0.83306  1.0000
  C   C42       1.0  0.06141  0.64940  0.66694  1.0000
  C   C43       1.0  0.43859  0.14940  0.16694  1.0000
  C   C44       1.0  0.93858  0.35060  0.33306  1.0000
  I   I1        1.0  0.87338  0.84199  0.50769  1.0000
  I   I2        1.0  0.37339  0.65800  0.99231  1.0000
  I   I3        1.0  0.12662  0.15800  0.49232  1.0000
  I   I4        1.0  0.62662  0.34200  0.00769  1.0000
  Br  Br1       1.0  0.36113  0.13850  0.89792  1.0000
  Br  Br2       1.0  0.86112  0.36149  0.60208  1.0000
  Br  Br3       1.0  0.63887  0.86150  0.10208  1.0000
  Br  Br4       1.0  0.13887  0.63850  0.39792  1.0000
  N   N1        1.0  0.84389  0.10572  0.73502  1.0000
  N   N2        1.0  0.34387  0.39427  0.76498  1.0000
  N   N3        1.0  0.15613  0.89428  0.26498  1.0000
  N   N4        1.0  0.65612  0.60573  0.23502  1.0000
  N   N5        1.0  0.59446  0.04228  0.62541  1.0000
  N   N6        1.0  0.09443  0.45771  0.87459  1.0000
  N   N7        1.0  0.40556  0.95771  0.37459  1.0000
  N   N8        1.0  0.90556  0.54229  0.12541  1.0000
  N   N9        1.0  0.22951  0.98714  0.79697  1.0000
  N   N10       1.0  0.72949  0.51285  0.70303  1.0000
  N   N11       1.0  0.77051  0.01286  0.20303  1.0000
  N   N12       1.0  0.27049  0.48715  0.29697  1.0000
  O   O1        1.0  0.21813  0.86853  0.72031  1.0000
  O   O2        1.0  0.71812  0.63147  0.77970  1.0000
  O   O3        1.0  0.78188  0.13147  0.27970  1.0000
  O   O4        1.0  0.28188  0.36853  0.22030  1.0000
