data_image0
_chemical_formula_structural       Pr2H44C66O22
_chemical_formula_sum              "Pr2 H44 C66 O22"
_cell_length_a       10.3853
_cell_length_b       11.5546
_cell_length_c       13.7021
_cell_angle_alpha    101.817
_cell_angle_beta     110.643
_cell_angle_gamma    100.039

_space_group_name_H-M_alt    "P 1"
_space_group_IT_number       1

loop_
  _space_group_symop_operation_xyz
  'x, y, z'

loop_
  _atom_site_type_symbol
  _atom_site_label
  _atom_site_symmetry_multiplicity
  _atom_site_fract_x
  _atom_site_fract_y
  _atom_site_fract_z
  _atom_site_occupancy
  Pr  Pr1       1.0  0.61806  0.56323  0.66574  1.0000
  Pr  Pr2       1.0  0.38193  0.43677  0.33425  1.0000
  H   H1        1.0  0.81423  0.85863  0.02575  1.0000
  H   H2        1.0  0.18576  0.14137  0.97425  1.0000
  H   H3        1.0  0.26463  0.94333  0.94188  1.0000
  H   H4        1.0  0.73537  0.05668  0.05813  1.0000
  H   H5        1.0  0.46548  0.87802  0.90763  1.0000
  H   H6        1.0  0.53452  0.12199  0.09238  1.0000
  H   H7        1.0  0.44725  0.80822  0.71844  1.0000
  H   H8        1.0  0.55276  0.19179  0.28157  1.0000
  H   H9        1.0  0.22765  0.80385  0.56190  1.0000
  H   H10       1.0  0.77236  0.19616  0.43811  1.0000
  H   H11       1.0  0.03175  0.87592  0.59827  1.0000
  H   H12       1.0  0.96825  0.12409  0.40174  1.0000
  H   H13       1.0  0.69350  0.94272  0.63284  1.0000
  H   H14       1.0  0.30649  0.05728  0.36716  1.0000
  H   H15       1.0  0.42144  0.88652  0.25031  1.0000
  H   H16       1.0  0.57857  0.11347  0.74968  1.0000
  H   H17       1.0  0.37304  0.82765  0.05322  1.0000
  H   H18       1.0  0.62697  0.17233  0.94677  1.0000
  H   H19       1.0  0.13375  0.69925  0.91735  1.0000
  H   H20       1.0  0.86625  0.30074  0.08264  1.0000
  H   H21       1.0  0.94229  0.62827  0.97806  1.0000
  H   H22       1.0  0.05770  0.37174  0.02193  1.0000
  H   H23       1.0  0.99288  0.68590  0.17677  1.0000
  H   H24       1.0  0.00711  0.31410  0.82322  1.0000
  H   H25       1.0  0.85964  0.45374  0.60677  1.0000
  H   H26       1.0  0.14036  0.54626  0.39323  1.0000
  H   H27       1.0  0.72114  0.58547  0.10470  1.0000
  H   H28       1.0  0.27886  0.41453  0.89531  1.0000
  H   H29       1.0  0.60947  0.75809  0.08019  1.0000
  H   H30       1.0  0.39054  0.24191  0.91982  1.0000
  H   H31       1.0  0.63433  0.91818  0.24307  1.0000
  H   H32       1.0  0.36567  0.08182  0.75694  1.0000
  H   H33       1.0  0.76351  0.90347  0.42917  1.0000
  H   H34       1.0  0.23650  0.09652  0.57083  1.0000
  H   H35       1.0  0.87234  0.73090  0.45301  1.0000
  H   H36       1.0  0.12766  0.26910  0.54699  1.0000
  H   H37       1.0  0.49238  0.45651  0.80970  1.0000
  H   H38       1.0  0.50762  0.54350  0.19030  1.0000
  H   H39       1.0  0.55937  0.35978  0.76489  1.0000
  H   H40       1.0  0.44063  0.64022  0.23511  1.0000
  H   H41       1.0  0.94048  0.53387  0.77941  1.0000
  H   H42       1.0  0.05952  0.46613  0.22059  1.0000
  H   H43       1.0  0.83477  0.43706  0.79888  1.0000
  H   H44       1.0  0.16523  0.56294  0.20112  1.0000
  C   C1        1.0  0.80386  0.78541  0.82652  1.0000
  C   C2        1.0  0.19612  0.21459  0.17348  1.0000
  C   C3        1.0  0.90393  0.89852  0.91408  1.0000
  C   C4        1.0  0.09606  0.10148  0.08592  1.0000
  C   C5        1.0  0.89575  0.92264  0.01571  1.0000
  C   C6        1.0  0.10424  0.07736  0.98430  1.0000
  C   C7        1.0  0.00913  0.97673  0.89754  1.0000
  C   C8        1.0  0.99086  0.02327  0.10247  1.0000
  C   C9        1.0  0.01742  0.95961  0.78789  1.0000
  C   C10       1.0  0.98257  0.04039  0.21212  1.0000
  C   C11       1.0  0.13515  0.91296  0.77149  1.0000
  C   C12       1.0  0.86486  0.08705  0.22853  1.0000
  C   C13       1.0  0.25721  0.91301  0.85894  1.0000
  C   C14       1.0  0.74280  0.08699  0.14107  1.0000
  C   C15       1.0  0.36956  0.87661  0.83977  1.0000
  C   C16       1.0  0.63044  0.12340  0.16024  1.0000
  C   C17       1.0  0.35973  0.83723  0.73326  1.0000
  C   C18       1.0  0.64027  0.16278  0.26675  1.0000
  C   C19       1.0  0.23681  0.83445  0.64546  1.0000
  C   C20       1.0  0.76319  0.16556  0.35454  1.0000
  C   C21       1.0  0.12621  0.87317  0.66481  1.0000
  C   C22       1.0  0.87379  0.12683  0.33521  1.0000
  C   C23       1.0  0.48285  0.74441  0.49415  1.0000
  C   C24       1.0  0.51714  0.25559  0.50585  1.0000
  C   C25       1.0  0.48756  0.87621  0.49762  1.0000
  C   C26       1.0  0.51243  0.12379  0.50238  1.0000
  C   C27       1.0  0.60781  0.96804  0.57534  1.0000
  C   C28       1.0  0.39218  0.03196  0.42466  1.0000
  C   C29       1.0  0.37817  0.90876  0.42231  1.0000
  C   C30       1.0  0.62182  0.09124  0.57768  1.0000
  C   C31       1.0  0.24137  0.81497  0.34326  1.0000
  C   C32       1.0  0.75862  0.18503  0.65673  1.0000
  C   C33       1.0  0.21070  0.78798  0.22566  1.0000
  C   C34       1.0  0.78930  0.21202  0.77433  1.0000
  C   C35       1.0  0.31708  0.82937  0.19048  1.0000
  C   C36       1.0  0.68292  0.17062  0.80951  1.0000
  C   C37       1.0  0.28935  0.79665  0.07998  1.0000
  C   C38       1.0  0.71065  0.20335  0.92001  1.0000
  C   C39       1.0  0.15485  0.72411  0.00366  1.0000
  C   C40       1.0  0.84515  0.27588  0.99633  1.0000
  C   C41       1.0  0.04755  0.68382  0.03809  1.0000
  C   C42       1.0  0.95245  0.31618  0.96190  1.0000
  C   C43       1.0  0.07527  0.71550  0.14851  1.0000
  C   C44       1.0  0.92472  0.28450  0.85148  1.0000
  C   C45       1.0  0.70009  0.49097  0.42271  1.0000
  C   C46       1.0  0.29991  0.50902  0.57728  1.0000
  C   C47       1.0  0.85579  0.49983  0.46203  1.0000
  C   C48       1.0  0.14421  0.50017  0.53797  1.0000
  C   C49       1.0  0.92254  0.47737  0.56138  1.0000
  C   C50       1.0  0.07747  0.52263  0.43862  1.0000
  C   C51       1.0  0.93400  0.52274  0.39934  1.0000
  C   C52       1.0  0.06600  0.47725  0.60066  1.0000
  C   C53       1.0  0.87330  0.54720  0.29158  1.0000
  C   C54       1.0  0.12670  0.45280  0.70842  1.0000
  C   C55       1.0  0.80171  0.64646  0.28003  1.0000
  C   C56       1.0  0.19830  0.35354  0.71997  1.0000
  C   C57       1.0  0.72817  0.65504  0.17483  1.0000
  C   C58       1.0  0.27183  0.34495  0.82517  1.0000
  C   C59       1.0  0.66668  0.75166  0.16180  1.0000
  C   C60       1.0  0.33333  0.24834  0.83821  1.0000
  C   C61       1.0  0.67928  0.84086  0.25333  1.0000
  C   C62       1.0  0.32073  0.15914  0.74667  1.0000
  C   C63       1.0  0.75232  0.83299  0.35804  1.0000
  C   C64       1.0  0.24768  0.16700  0.64197  1.0000
  C   C65       1.0  0.81318  0.73597  0.37140  1.0000
  C   C66       1.0  0.18683  0.26403  0.62861  1.0000
  O   O1        1.0  0.83345  0.74529  0.74506  1.0000
  O   O2        1.0  0.16654  0.25473  0.25494  1.0000
  O   O3        1.0  0.69339  0.73022  0.83701  1.0000
  O   O4        1.0  0.30659  0.26979  0.16298  1.0000
  O   O5        1.0  0.93324  0.99228  0.71674  1.0000
  O   O6        1.0  0.06677  0.00772  0.28327  1.0000
  O   O7        1.0  0.53889  0.72263  0.58453  1.0000
  O   O8        1.0  0.46110  0.27737  0.41546  1.0000
  O   O9        1.0  0.42525  0.66501  0.40043  1.0000
  O   O10       1.0  0.57474  0.33499  0.59957  1.0000
  O   O11       1.0  0.15833  0.76364  0.37708  1.0000
  O   O12       1.0  0.84166  0.23636  0.62290  1.0000
  O   O13       1.0  0.62163  0.44806  0.32185  1.0000
  O   O14       1.0  0.37837  0.55194  0.67815  1.0000
  O   O15       1.0  0.64886  0.52501  0.49316  1.0000
  O   O16       1.0  0.35115  0.47499  0.50684  1.0000
  O   O17       1.0  0.89300  0.48817  0.21385  1.0000
  O   O18       1.0  0.10700  0.51183  0.78615  1.0000
  O   O19       1.0  0.58045  0.44691  0.80238  1.0000
  O   O20       1.0  0.41955  0.55309  0.19762  1.0000
  O   O21       1.0  0.84324  0.51344  0.77847  1.0000
  O   O22       1.0  0.15676  0.48656  0.22152  1.0000
