data_image0
_chemical_formula_structural       Er2H44C66O22
_chemical_formula_sum              "Er2 H44 C66 O22"
_cell_length_a       9.86663
_cell_length_b       10.1799
_cell_length_c       15.4552
_cell_angle_alpha    96.6315
_cell_angle_beta     97.192
_cell_angle_gamma    113.593

_space_group_name_H-M_alt    "P 1"
_space_group_IT_number       1

loop_
  _space_group_symop_operation_xyz
  'x, y, z'

loop_
  _atom_site_type_symbol
  _atom_site_label
  _atom_site_symmetry_multiplicity
  _atom_site_fract_x
  _atom_site_fract_y
  _atom_site_fract_z
  _atom_site_occupancy
  Er  Er1       1.0  0.43651  0.63625  0.58972  1.0000
  Er  Er2       1.0  0.56350  0.36376  0.41028  1.0000
  H   H1        1.0  0.51877  0.13717  0.58771  1.0000
  H   H2        1.0  0.48123  0.86284  0.41228  1.0000
  H   H3        1.0  0.74878  0.31275  0.90654  1.0000
  H   H4        1.0  0.25121  0.68724  0.09346  1.0000
  H   H5        1.0  0.82150  0.82035  0.86724  1.0000
  H   H6        1.0  0.17849  0.17965  0.13276  1.0000
  H   H7        1.0  0.99609  0.01388  0.80168  1.0000
  H   H8        1.0  0.00391  0.98612  0.19832  1.0000
  H   H9        1.0  0.12950  0.95060  0.68710  1.0000
  H   H10       1.0  0.87051  0.04939  0.31291  1.0000
  H   H11       1.0  0.08470  0.69238  0.63995  1.0000
  H   H12       1.0  0.91531  0.30761  0.36006  1.0000
  H   H13       1.0  0.90421  0.49820  0.70165  1.0000
  H   H14       1.0  0.09579  0.50180  0.29836  1.0000
  H   H15       1.0  0.65073  0.79977  0.93738  1.0000
  H   H16       1.0  0.34926  0.20023  0.06261  1.0000
  H   H17       1.0  0.42595  0.60828  0.97718  1.0000
  H   H18       1.0  0.57404  0.39171  0.02282  1.0000
  H   H19       1.0  0.17834  0.62153  0.94931  1.0000
  H   H20       1.0  0.82165  0.37847  0.05070  1.0000
  H   H21       1.0  0.15575  0.82716  0.88673  1.0000
  H   H22       1.0  0.84425  0.17284  0.11328  1.0000
  H   H23       1.0  0.37648  0.01202  0.84262  1.0000
  H   H24       1.0  0.62351  0.98798  0.15738  1.0000
  H   H25       1.0  0.82122  0.97957  0.60238  1.0000
  H   H26       1.0  0.17878  0.02044  0.39762  1.0000
  H   H27       1.0  0.06035  0.67164  0.23055  1.0000
  H   H28       1.0  0.93965  0.32835  0.76946  1.0000
  H   H29       1.0  0.94328  0.65102  0.07365  1.0000
  H   H30       1.0  0.05672  0.34897  0.92635  1.0000
  H   H31       1.0  0.70888  0.68352  0.04153  1.0000
  H   H32       1.0  0.29112  0.31649  0.95847  1.0000
  H   H33       1.0  0.59305  0.74680  0.16551  1.0000
  H   H34       1.0  0.40696  0.25321  0.83449  1.0000
  H   H35       1.0  0.71761  0.78207  0.32168  1.0000
  H   H36       1.0  0.28240  0.21794  0.67833  1.0000
  H   H37       1.0  0.12912  0.50242  0.51272  1.0000
  H   H38       1.0  0.87088  0.49759  0.48729  1.0000
  H   H39       1.0  0.15733  0.65586  0.48858  1.0000
  H   H40       1.0  0.84268  0.34414  0.51142  1.0000
  H   H41       1.0  0.38619  0.66149  0.77126  1.0000
  H   H42       1.0  0.61383  0.33851  0.22874  1.0000
  H   H43       1.0  0.24295  0.51947  0.72619  1.0000
  H   H44       1.0  0.75707  0.48053  0.27381  1.0000
  C   C1        1.0  0.53293  0.92178  0.66788  1.0000
  C   C2        1.0  0.46708  0.07822  0.33211  1.0000
  C   C3        1.0  0.58202  0.42081  0.63846  1.0000
  C   C4        1.0  0.41797  0.57919  0.36154  1.0000
  C   C5        1.0  0.58046  0.07695  0.71039  1.0000
  C   C6        1.0  0.41953  0.92305  0.28960  1.0000
  C   C7        1.0  0.56728  0.17621  0.65817  1.0000
  C   C8        1.0  0.43272  0.82379  0.34183  1.0000
  C   C9        1.0  0.61490  0.32316  0.69491  1.0000
  C   C10       1.0  0.38510  0.67684  0.30509  1.0000
  C   C11       1.0  0.68301  0.37383  0.78510  1.0000
  C   C12       1.0  0.31698  0.62616  0.21490  1.0000
  C   C13       1.0  0.69663  0.27417  0.83677  1.0000
  C   C14       1.0  0.30336  0.72582  0.16322  1.0000
  C   C15       1.0  0.64423  0.12611  0.80130  1.0000
  C   C16       1.0  0.35576  0.87389  0.19869  1.0000
  C   C17       1.0  0.74298  0.53114  0.82960  1.0000
  C   C18       1.0  0.25701  0.46886  0.17039  1.0000
  C   C19       1.0  0.84892  0.64543  0.78892  1.0000
  C   C20       1.0  0.15108  0.35457  0.21108  1.0000
  C   C21       1.0  0.87785  0.79203  0.81694  1.0000
  C   C22       1.0  0.12214  0.20797  0.18305  1.0000
  C   C23       1.0  0.97668  0.90114  0.77973  1.0000
  C   C24       1.0  0.02332  0.09885  0.22027  1.0000
  C   C25       1.0  0.05042  0.86526  0.71554  1.0000
  C   C26       1.0  0.94959  0.13473  0.28447  1.0000
  C   C27       1.0  0.02449  0.72036  0.68815  1.0000
  C   C28       1.0  0.97552  0.27964  0.31186  1.0000
  C   C29       1.0  0.92309  0.61067  0.72398  1.0000
  C   C30       1.0  0.07691  0.38933  0.27602  1.0000
  C   C31       1.0  0.66411  0.02874  0.86379  1.0000
  C   C32       1.0  0.33588  0.97126  0.13620  1.0000
  C   C33       1.0  0.52803  0.91736  0.88706  1.0000
  C   C34       1.0  0.47195  0.08264  0.11293  1.0000
  C   C35       1.0  0.54159  0.80407  0.92618  1.0000
  C   C36       1.0  0.45840  0.19592  0.07382  1.0000
  C   C37       1.0  0.41633  0.69760  0.94821  1.0000
  C   C38       1.0  0.58367  0.30240  0.05179  1.0000
  C   C39       1.0  0.27711  0.70579  0.93322  1.0000
  C   C40       1.0  0.72289  0.29421  0.06678  1.0000
  C   C41       1.0  0.26352  0.82004  0.89692  1.0000
  C   C42       1.0  0.73647  0.17996  0.10308  1.0000
  C   C43       1.0  0.38824  0.92455  0.87269  1.0000
  C   C44       1.0  0.61175  0.07545  0.12731  1.0000
  C   C45       1.0  0.75496  0.72321  0.50385  1.0000
  C   C46       1.0  0.24506  0.27680  0.49614  1.0000
  C   C47       1.0  0.88234  0.86508  0.50076  1.0000
  C   C48       1.0  0.11767  0.13493  0.49924  1.0000
  C   C49       1.0  0.89990  0.99071  0.55717  1.0000
  C   C50       1.0  0.10011  0.00929  0.44283  1.0000
  C   C51       1.0  0.98357  0.87441  0.44302  1.0000
  C   C52       1.0  0.01643  0.12560  0.55698  1.0000
  C   C53       1.0  0.97754  0.74989  0.37766  1.0000
  C   C54       1.0  0.02247  0.25012  0.62234  1.0000
  C   C55       1.0  0.89592  0.72662  0.28587  1.0000
  C   C56       1.0  0.10408  0.27338  0.71414  1.0000
  C   C57       1.0  0.95745  0.68668  0.21541  1.0000
  C   C58       1.0  0.04255  0.31331  0.78460  1.0000
  C   C59       1.0  0.89134  0.67425  0.12813  1.0000
  C   C60       1.0  0.10865  0.32574  0.87187  1.0000
  C   C61       1.0  0.76015  0.69567  0.11023  1.0000
  C   C62       1.0  0.23985  0.30432  0.88977  1.0000
  C   C63       1.0  0.69673  0.73260  0.17988  1.0000
  C   C64       1.0  0.30327  0.26740  0.82012  1.0000
  C   C65       1.0  0.76581  0.75147  0.26742  1.0000
  C   C66       1.0  0.23419  0.24854  0.73259  1.0000
  O   O1        1.0  0.57522  0.84008  0.71033  1.0000
  O   O2        1.0  0.42478  0.15992  0.28966  1.0000
  O   O3        1.0  0.45259  0.87335  0.58974  1.0000
  O   O4        1.0  0.54741  0.12665  0.41026  1.0000
  O   O5        1.0  0.58813  0.39815  0.55694  1.0000
  O   O6        1.0  0.41187  0.60186  0.44305  1.0000
  O   O7        1.0  0.54398  0.51596  0.67465  1.0000
  O   O8        1.0  0.45602  0.48405  0.32535  1.0000
  O   O9        1.0  0.70793  0.55909  0.90141  1.0000
  O   O10       1.0  0.29206  0.44091  0.09858  1.0000
  O   O11       1.0  0.79266  0.05189  0.89907  1.0000
  O   O12       1.0  0.20733  0.94810  0.10092  1.0000
  O   O13       1.0  0.67290  0.72451  0.56005  1.0000
  O   O14       1.0  0.32710  0.27550  0.43994  1.0000
  O   O15       1.0  0.73914  0.61234  0.44838  1.0000
  O   O16       1.0  0.26089  0.38767  0.55162  1.0000
  O   O17       1.0  0.05878  0.68625  0.39546  1.0000
  O   O18       1.0  0.94122  0.31375  0.60454  1.0000
  O   O19       1.0  0.18174  0.60681  0.53611  1.0000
  O   O20       1.0  0.81828  0.39320  0.46389  1.0000
  O   O21       1.0  0.31500  0.61227  0.71545  1.0000
  O   O22       1.0  0.68502  0.38773  0.28456  1.0000
