data_image0
_chemical_formula_structural       Nd2H44C66O22
_chemical_formula_sum              "Nd2 H44 C66 O22"
_cell_length_a       10.3738
_cell_length_b       11.5158
_cell_length_c       13.7124
_cell_angle_alpha    101.925
_cell_angle_beta     110.774
_cell_angle_gamma    100.089

_space_group_name_H-M_alt    "P 1"
_space_group_IT_number       1

loop_
  _space_group_symop_operation_xyz
  'x, y, z'

loop_
  _atom_site_type_symbol
  _atom_site_label
  _atom_site_symmetry_multiplicity
  _atom_site_fract_x
  _atom_site_fract_y
  _atom_site_fract_z
  _atom_site_occupancy
  Nd  Nd1       1.0  0.61799  0.56332  0.66479  1.0000
  Nd  Nd2       1.0  0.38201  0.43668  0.33521  1.0000
  H   H1        1.0  0.18701  0.14230  0.97566  1.0000
  H   H2        1.0  0.81299  0.85770  0.02434  1.0000
  H   H3        1.0  0.26577  0.94406  0.94247  1.0000
  H   H4        1.0  0.73424  0.05594  0.05753  1.0000
  H   H5        1.0  0.46746  0.87933  0.90896  1.0000
  H   H6        1.0  0.53254  0.12067  0.09105  1.0000
  H   H7        1.0  0.44927  0.80854  0.71984  1.0000
  H   H8        1.0  0.55074  0.19147  0.28017  1.0000
  H   H9        1.0  0.22935  0.80379  0.56269  1.0000
  H   H10       1.0  0.77066  0.19621  0.43732  1.0000
  H   H11       1.0  0.03258  0.87541  0.59826  1.0000
  H   H12       1.0  0.96743  0.12458  0.40175  1.0000
  H   H13       1.0  0.86025  0.45391  0.60697  1.0000
  H   H14       1.0  0.13975  0.54609  0.39303  1.0000
  H   H15       1.0  0.87112  0.73094  0.45242  1.0000
  H   H16       1.0  0.12887  0.26907  0.54757  1.0000
  H   H17       1.0  0.76178  0.90378  0.42858  1.0000
  H   H18       1.0  0.23820  0.09622  0.57141  1.0000
  H   H19       1.0  0.63195  0.91793  0.24225  1.0000
  H   H20       1.0  0.36803  0.08207  0.75774  1.0000
  H   H21       1.0  0.60673  0.75703  0.07924  1.0000
  H   H22       1.0  0.39326  0.24297  0.92075  1.0000
  H   H23       1.0  0.71897  0.58395  0.10375  1.0000
  H   H24       1.0  0.28102  0.41605  0.89625  1.0000
  H   H25       1.0  0.69409  0.94344  0.63347  1.0000
  H   H26       1.0  0.30591  0.05656  0.36653  1.0000
  H   H27       1.0  0.42064  0.88567  0.24982  1.0000
  H   H28       1.0  0.57936  0.11434  0.75018  1.0000
  H   H29       1.0  0.37104  0.82710  0.05245  1.0000
  H   H30       1.0  0.62897  0.17291  0.94755  1.0000
  H   H31       1.0  0.13067  0.69852  0.91624  1.0000
  H   H32       1.0  0.86933  0.30147  0.08376  1.0000
  H   H33       1.0  0.93918  0.62669  0.97673  1.0000
  H   H34       1.0  0.06083  0.37330  0.02327  1.0000
  H   H35       1.0  0.99092  0.68369  0.17569  1.0000
  H   H36       1.0  0.00908  0.31632  0.82431  1.0000
  H   H37       1.0  0.93936  0.53427  0.77814  1.0000
  H   H38       1.0  0.06064  0.46573  0.22186  1.0000
  H   H39       1.0  0.83212  0.43723  0.79659  1.0000
  H   H40       1.0  0.16788  0.56277  0.20341  1.0000
  H   H41       1.0  0.49804  0.46576  0.81272  1.0000
  H   H42       1.0  0.50195  0.53424  0.18728  1.0000
  H   H43       1.0  0.55652  0.36248  0.76641  1.0000
  H   H44       1.0  0.44348  0.63752  0.23359  1.0000
  C   C1        1.0  0.80297  0.78480  0.82527  1.0000
  C   C2        1.0  0.19703  0.21520  0.17474  1.0000
  C   C3        1.0  0.90360  0.89817  0.91350  1.0000
  C   C4        1.0  0.09640  0.10183  0.08651  1.0000
  C   C5        1.0  0.10499  0.07781  0.98506  1.0000
  C   C6        1.0  0.89502  0.92219  0.01494  1.0000
  C   C7        1.0  0.00962  0.97678  0.89771  1.0000
  C   C8        1.0  0.99039  0.02322  0.10229  1.0000
  C   C9        1.0  0.01821  0.95984  0.78819  1.0000
  C   C10       1.0  0.98179  0.04016  0.21182  1.0000
  C   C11       1.0  0.13608  0.91294  0.77184  1.0000
  C   C12       1.0  0.86393  0.08706  0.22816  1.0000
  C   C13       1.0  0.25850  0.91348  0.85958  1.0000
  C   C14       1.0  0.74150  0.08652  0.14043  1.0000
  C   C15       1.0  0.37129  0.87728  0.84077  1.0000
  C   C16       1.0  0.62872  0.12272  0.15923  1.0000
  C   C17       1.0  0.36154  0.83754  0.73433  1.0000
  C   C18       1.0  0.63847  0.16246  0.26568  1.0000
  C   C19       1.0  0.23834  0.83443  0.64622  1.0000
  C   C20       1.0  0.76166  0.16557  0.35379  1.0000
  C   C21       1.0  0.12727  0.87301  0.66514  1.0000
  C   C22       1.0  0.87274  0.12699  0.33487  1.0000
  C   C23       1.0  0.69939  0.49085  0.42340  1.0000
  C   C24       1.0  0.30060  0.50916  0.57659  1.0000
  C   C25       1.0  0.85536  0.49984  0.46213  1.0000
  C   C26       1.0  0.14463  0.50016  0.53787  1.0000
  C   C27       1.0  0.92290  0.47761  0.56150  1.0000
  C   C28       1.0  0.07710  0.52239  0.43850  1.0000
  C   C29       1.0  0.93334  0.52261  0.39931  1.0000
  C   C30       1.0  0.06666  0.47740  0.60069  1.0000
  C   C31       1.0  0.87238  0.54667  0.29133  1.0000
  C   C32       1.0  0.12762  0.45333  0.70867  1.0000
  C   C33       1.0  0.79981  0.64565  0.27933  1.0000
  C   C34       1.0  0.20018  0.35435  0.72067  1.0000
  C   C35       1.0  0.81141  0.73568  0.37074  1.0000
  C   C36       1.0  0.18858  0.26432  0.62925  1.0000
  C   C37       1.0  0.75031  0.83287  0.35734  1.0000
  C   C38       1.0  0.24968  0.16713  0.64265  1.0000
  C   C39       1.0  0.67687  0.84041  0.25253  1.0000
  C   C40       1.0  0.32312  0.15959  0.74746  1.0000
  C   C41       1.0  0.66413  0.75073  0.16091  1.0000
  C   C42       1.0  0.33586  0.24926  0.83908  1.0000
  C   C43       1.0  0.72586  0.65389  0.17396  1.0000
  C   C44       1.0  0.27413  0.34610  0.82603  1.0000
  C   C45       1.0  0.48350  0.74368  0.49431  1.0000
  C   C46       1.0  0.51649  0.25632  0.50568  1.0000
  C   C47       1.0  0.48778  0.87578  0.49765  1.0000
  C   C48       1.0  0.51222  0.12422  0.50235  1.0000
  C   C49       1.0  0.60811  0.96846  0.57573  1.0000
  C   C50       1.0  0.39189  0.03154  0.42426  1.0000
  C   C51       1.0  0.37810  0.90793  0.42191  1.0000
  C   C52       1.0  0.62190  0.09207  0.57809  1.0000
  C   C53       1.0  0.24078  0.81354  0.34265  1.0000
  C   C54       1.0  0.75922  0.18646  0.65735  1.0000
  C   C55       1.0  0.20944  0.78644  0.22489  1.0000
  C   C56       1.0  0.79056  0.21356  0.77511  1.0000
  C   C57       1.0  0.31584  0.82824  0.18979  1.0000
  C   C58       1.0  0.68416  0.17176  0.81021  1.0000
  C   C59       1.0  0.28738  0.79579  0.07915  1.0000
  C   C60       1.0  0.71263  0.20421  0.92085  1.0000
  C   C61       1.0  0.15223  0.72308  0.00261  1.0000
  C   C62       1.0  0.84777  0.27691  0.99739  1.0000
  C   C63       1.0  0.04498  0.68226  0.03690  1.0000
  C   C64       1.0  0.95503  0.31773  0.96310  1.0000
  C   C65       1.0  0.07332  0.71371  0.14748  1.0000
  C   C66       1.0  0.92668  0.28629  0.85252  1.0000
  O   O1        1.0  0.83231  0.74480  0.74367  1.0000
  O   O2        1.0  0.16770  0.25520  0.25633  1.0000
  O   O3        1.0  0.69196  0.72914  0.83509  1.0000
  O   O4        1.0  0.30805  0.27086  0.16491  1.0000
  O   O5        1.0  0.93423  0.99292  0.71708  1.0000
  O   O6        1.0  0.06577  0.00708  0.28292  1.0000
  O   O7        1.0  0.61969  0.44751  0.32259  1.0000
  O   O8        1.0  0.38031  0.55249  0.67741  1.0000
  O   O9        1.0  0.64893  0.52511  0.49423  1.0000
  O   O10       1.0  0.35107  0.47489  0.50576  1.0000
  O   O11       1.0  0.89247  0.48744  0.21379  1.0000
  O   O12       1.0  0.10753  0.51256  0.78621  1.0000
  O   O13       1.0  0.42607  0.66360  0.40053  1.0000
  O   O14       1.0  0.57393  0.33640  0.59947  1.0000
  O   O15       1.0  0.53980  0.72229  0.58488  1.0000
  O   O16       1.0  0.46020  0.27771  0.41512  1.0000
  O   O17       1.0  0.15763  0.76209  0.37643  1.0000
  O   O18       1.0  0.84237  0.23792  0.62357  1.0000
  O   O19       1.0  0.84168  0.51399  0.77654  1.0000
  O   O20       1.0  0.15832  0.48601  0.22346  1.0000
  O   O21       1.0  0.58323  0.45085  0.80321  1.0000
  O   O22       1.0  0.41677  0.54915  0.19679  1.0000
