data_image0
_chemical_formula_structural       Sm2H44C66O22
_chemical_formula_sum              "Sm2 H44 C66 O22"
_cell_length_a       10.3332
_cell_length_b       11.4601
_cell_length_c       13.8363
_cell_angle_alpha    102.353
_cell_angle_beta     110.86
_cell_angle_gamma    100.142

_space_group_name_H-M_alt    "P 1"
_space_group_IT_number       1

loop_
  _space_group_symop_operation_xyz
  'x, y, z'

loop_
  _atom_site_type_symbol
  _atom_site_label
  _atom_site_symmetry_multiplicity
  _atom_site_fract_x
  _atom_site_fract_y
  _atom_site_fract_z
  _atom_site_occupancy
  Sm  Sm1       1.0  0.61722  0.56506  0.66283  1.0000
  Sm  Sm2       1.0  0.38278  0.43494  0.33717  1.0000
  H   H1        1.0  0.19028  0.14396  0.97920  1.0000
  H   H2        1.0  0.80972  0.85604  0.02081  1.0000
  H   H3        1.0  0.26422  0.94037  0.94153  1.0000
  H   H4        1.0  0.73578  0.05964  0.05847  1.0000
  H   H5        1.0  0.46434  0.87276  0.90610  1.0000
  H   H6        1.0  0.53566  0.12724  0.09390  1.0000
  H   H7        1.0  0.44555  0.80596  0.71783  1.0000
  H   H8        1.0  0.55445  0.19404  0.28216  1.0000
  H   H9        1.0  0.22585  0.80575  0.56316  1.0000
  H   H10       1.0  0.77414  0.19425  0.43684  1.0000
  H   H11       1.0  0.03057  0.88006  0.60089  1.0000
  H   H12       1.0  0.96942  0.11994  0.39911  1.0000
  H   H13       1.0  0.86215  0.45952  0.60849  1.0000
  H   H14       1.0  0.13785  0.54048  0.39151  1.0000
  H   H15       1.0  0.86566  0.73159  0.44859  1.0000
  H   H16       1.0  0.13433  0.26841  0.55141  1.0000
  H   H17       1.0  0.75519  0.90353  0.41962  1.0000
  H   H18       1.0  0.24480  0.09648  0.58038  1.0000
  H   H19       1.0  0.62799  0.91237  0.23259  1.0000
  H   H20       1.0  0.37201  0.08763  0.76740  1.0000
  H   H21       1.0  0.60422  0.74557  0.07348  1.0000
  H   H22       1.0  0.39578  0.25443  0.92651  1.0000
  H   H23       1.0  0.71659  0.57285  0.10316  1.0000
  H   H24       1.0  0.28342  0.42715  0.89684  1.0000
  H   H25       1.0  0.69457  0.94564  0.63457  1.0000
  H   H26       1.0  0.30543  0.05437  0.36543  1.0000
  H   H27       1.0  0.98983  0.67573  0.17558  1.0000
  H   H28       1.0  0.01018  0.32427  0.82442  1.0000
  H   H29       1.0  0.93794  0.62223  0.97803  1.0000
  H   H30       1.0  0.06206  0.37777  0.02197  1.0000
  H   H31       1.0  0.12966  0.70063  0.91986  1.0000
  H   H32       1.0  0.87034  0.29937  0.08014  1.0000
  H   H33       1.0  0.37057  0.83200  0.05719  1.0000
  H   H34       1.0  0.62943  0.16800  0.94280  1.0000
  H   H35       1.0  0.42034  0.88682  0.25296  1.0000
  H   H36       1.0  0.57966  0.11317  0.74704  1.0000
  H   H37       1.0  0.93874  0.54005  0.77511  1.0000
  H   H38       1.0  0.06126  0.45996  0.22489  1.0000
  H   H39       1.0  0.83112  0.44353  0.79455  1.0000
  H   H40       1.0  0.16888  0.55647  0.20545  1.0000
  H   H41       1.0  0.55533  0.35968  0.74471  1.0000
  H   H42       1.0  0.44468  0.64032  0.25530  1.0000
  H   H43       1.0  0.49702  0.45440  0.80409  1.0000
  H   H44       1.0  0.50298  0.54560  0.19591  1.0000
  C   C1        1.0  0.79981  0.78556  0.82253  1.0000
  C   C2        1.0  0.20019  0.21444  0.17747  1.0000
  C   C3        1.0  0.90186  0.89863  0.91230  1.0000
  C   C4        1.0  0.09815  0.10137  0.08771  1.0000
  C   C5        1.0  0.10673  0.07888  0.98705  1.0000
  C   C6        1.0  0.89327  0.92112  0.01296  1.0000
  C   C7        1.0  0.00952  0.97842  0.89858  1.0000
  C   C8        1.0  0.99049  0.02158  0.10143  1.0000
  C   C9        1.0  0.01831  0.96294  0.79016  1.0000
  C   C10       1.0  0.98169  0.03707  0.20984  1.0000
  C   C11       1.0  0.13489  0.91414  0.77272  1.0000
  C   C12       1.0  0.86511  0.08586  0.22728  1.0000
  C   C13       1.0  0.25664  0.91122  0.85898  1.0000
  C   C14       1.0  0.74336  0.08878  0.14102  1.0000
  C   C15       1.0  0.36854  0.87356  0.83916  1.0000
  C   C16       1.0  0.63146  0.12644  0.16084  1.0000
  C   C17       1.0  0.35840  0.83588  0.73311  1.0000
  C   C18       1.0  0.64160  0.16412  0.26689  1.0000
  C   C19       1.0  0.23543  0.83560  0.64638  1.0000
  C   C20       1.0  0.76457  0.16440  0.35363  1.0000
  C   C21       1.0  0.12528  0.87554  0.66641  1.0000
  C   C22       1.0  0.87472  0.12446  0.33359  1.0000
  C   C23       1.0  0.69870  0.49244  0.42594  1.0000
  C   C24       1.0  0.30130  0.50756  0.57407  1.0000
  C   C25       1.0  0.85525  0.50131  0.46339  1.0000
  C   C26       1.0  0.14474  0.49868  0.53662  1.0000
  C   C27       1.0  0.92419  0.48087  0.56243  1.0000
  C   C28       1.0  0.07581  0.51912  0.43757  1.0000
  C   C29       1.0  0.93185  0.52068  0.39947  1.0000
  C   C30       1.0  0.06814  0.47931  0.60054  1.0000
  C   C31       1.0  0.86991  0.54199  0.29143  1.0000
  C   C32       1.0  0.13009  0.45800  0.70857  1.0000
  C   C33       1.0  0.79626  0.64056  0.27729  1.0000
  C   C34       1.0  0.20374  0.35944  0.72271  1.0000
  C   C35       1.0  0.80661  0.73356  0.36645  1.0000
  C   C36       1.0  0.19339  0.26644  0.63355  1.0000
  C   C37       1.0  0.74504  0.83040  0.35021  1.0000
  C   C38       1.0  0.25496  0.16960  0.64979  1.0000
  C   C39       1.0  0.67282  0.83489  0.24495  1.0000
  C   C40       1.0  0.32719  0.16511  0.75505  1.0000
  C   C41       1.0  0.66098  0.74202  0.15557  1.0000
  C   C42       1.0  0.33902  0.25797  0.84442  1.0000
  C   C43       1.0  0.72278  0.64538  0.17147  1.0000
  C   C44       1.0  0.27722  0.35462  0.82853  1.0000
  C   C45       1.0  0.48262  0.74290  0.49629  1.0000
  C   C46       1.0  0.51739  0.25710  0.50372  1.0000
  C   C47       1.0  0.48722  0.87547  0.49879  1.0000
  C   C48       1.0  0.51279  0.12454  0.50121  1.0000
  C   C49       1.0  0.60839  0.96968  0.57628  1.0000
  C   C50       1.0  0.39162  0.03032  0.42372  1.0000
  C   C51       1.0  0.37733  0.90638  0.42249  1.0000
  C   C52       1.0  0.62268  0.09363  0.57751  1.0000
  C   C53       1.0  0.23951  0.81028  0.34317  1.0000
  C   C54       1.0  0.76049  0.18973  0.65684  1.0000
  C   C55       1.0  0.20866  0.78308  0.22636  1.0000
  C   C56       1.0  0.79134  0.21692  0.77365  1.0000
  C   C57       1.0  0.07240  0.70840  0.14841  1.0000
  C   C58       1.0  0.92760  0.29159  0.85159  1.0000
  C   C59       1.0  0.04397  0.67893  0.03864  1.0000
  C   C60       1.0  0.95603  0.32107  0.96137  1.0000
  C   C61       1.0  0.15129  0.72358  0.00564  1.0000
  C   C62       1.0  0.84871  0.27642  0.99436  1.0000
  C   C63       1.0  0.28667  0.79785  0.08275  1.0000
  C   C64       1.0  0.71333  0.20215  0.91724  1.0000
  C   C65       1.0  0.31520  0.82831  0.19259  1.0000
  C   C66       1.0  0.68481  0.17169  0.80741  1.0000
  O   O1        1.0  0.82827  0.74741  0.74057  1.0000
  O   O2        1.0  0.17172  0.25259  0.25943  1.0000
  O   O3        1.0  0.68836  0.72769  0.83109  1.0000
  O   O4        1.0  0.31164  0.27230  0.16891  1.0000
  O   O5        1.0  0.93580  0.99883  0.72106  1.0000
  O   O6        1.0  0.06421  0.00117  0.27894  1.0000
  O   O7        1.0  0.64893  0.52773  0.49668  1.0000
  O   O8        1.0  0.35107  0.47227  0.50331  1.0000
  O   O9        1.0  0.61730  0.44734  0.32585  1.0000
  O   O10       1.0  0.38269  0.55266  0.67414  1.0000
  O   O11       1.0  0.89068  0.48078  0.21525  1.0000
  O   O12       1.0  0.10932  0.51922  0.78476  1.0000
  O   O13       1.0  0.42631  0.66129  0.40303  1.0000
  O   O14       1.0  0.57369  0.33871  0.59697  1.0000
  O   O15       1.0  0.53741  0.72254  0.58653  1.0000
  O   O16       1.0  0.46259  0.27746  0.41346  1.0000
  O   O17       1.0  0.15606  0.75815  0.37623  1.0000
  O   O18       1.0  0.84395  0.24185  0.62377  1.0000
  O   O19       1.0  0.84041  0.51932  0.77296  1.0000
  O   O20       1.0  0.15959  0.48068  0.22704  1.0000
  O   O21       1.0  0.58254  0.44505  0.79187  1.0000
  O   O22       1.0  0.41746  0.55495  0.20813  1.0000
