data_image0
_chemical_formula_structural       Gd2H44C66O22
_chemical_formula_sum              "Gd2 H44 C66 O22"
_cell_length_a       10.3196
_cell_length_b       11.3829
_cell_length_c       13.8554
_cell_angle_alpha    102.561
_cell_angle_beta     111.216
_cell_angle_gamma    99.9011

_space_group_name_H-M_alt    "P 1"
_space_group_IT_number       1

loop_
  _space_group_symop_operation_xyz
  'x, y, z'

loop_
  _atom_site_type_symbol
  _atom_site_label
  _atom_site_symmetry_multiplicity
  _atom_site_fract_x
  _atom_site_fract_y
  _atom_site_fract_z
  _atom_site_occupancy
  Gd  Gd1       1.0  0.61775  0.56498  0.66202  1.0000
  Gd  Gd2       1.0  0.38225  0.43502  0.33798  1.0000
  H   H1        1.0  0.19422  0.14316  0.98239  1.0000
  H   H2        1.0  0.80577  0.85685  0.01761  1.0000
  H   H3        1.0  0.26761  0.93969  0.94306  1.0000
  H   H4        1.0  0.73239  0.06032  0.05694  1.0000
  H   H5        1.0  0.46811  0.87159  0.90769  1.0000
  H   H6        1.0  0.53188  0.12841  0.09231  1.0000
  H   H7        1.0  0.44795  0.80343  0.71923  1.0000
  H   H8        1.0  0.55204  0.19657  0.28077  1.0000
  H   H9        1.0  0.22654  0.80228  0.56394  1.0000
  H   H10       1.0  0.77345  0.19772  0.43605  1.0000
  H   H11       1.0  0.03090  0.87716  0.60147  1.0000
  H   H12       1.0  0.96909  0.12285  0.39853  1.0000
  H   H13       1.0  0.69613  0.94589  0.63510  1.0000
  H   H14       1.0  0.30387  0.05411  0.36490  1.0000
  H   H15       1.0  0.98605  0.67625  0.17462  1.0000
  H   H16       1.0  0.01396  0.32374  0.82538  1.0000
  H   H17       1.0  0.93268  0.62225  0.97677  1.0000
  H   H18       1.0  0.06733  0.37776  0.02324  1.0000
  H   H19       1.0  0.12582  0.69780  0.91925  1.0000
  H   H20       1.0  0.87419  0.30221  0.08075  1.0000
  H   H21       1.0  0.36935  0.82567  0.05713  1.0000
  H   H22       1.0  0.63065  0.17434  0.94287  1.0000
  H   H23       1.0  0.42076  0.88121  0.25347  1.0000
  H   H24       1.0  0.57924  0.11879  0.74653  1.0000
  H   H25       1.0  0.86439  0.46218  0.60966  1.0000
  H   H26       1.0  0.13561  0.53782  0.39034  1.0000
  H   H27       1.0  0.86702  0.73341  0.44838  1.0000
  H   H28       1.0  0.13299  0.26659  0.55163  1.0000
  H   H29       1.0  0.75737  0.90753  0.41987  1.0000
  H   H30       1.0  0.24264  0.09247  0.58013  1.0000
  H   H31       1.0  0.62724  0.91541  0.23248  1.0000
  H   H32       1.0  0.37277  0.08459  0.76752  1.0000
  H   H33       1.0  0.59992  0.74585  0.07277  1.0000
  H   H34       1.0  0.40009  0.25414  0.92723  1.0000
  H   H35       1.0  0.71172  0.57121  0.10188  1.0000
  H   H36       1.0  0.28829  0.42879  0.89812  1.0000
  H   H37       1.0  0.93803  0.54347  0.77340  1.0000
  H   H38       1.0  0.06197  0.45653  0.22660  1.0000
  H   H39       1.0  0.83181  0.44199  0.78941  1.0000
  H   H40       1.0  0.16819  0.55801  0.21059  1.0000
  H   H41       1.0  0.56044  0.36480  0.75536  1.0000
  H   H42       1.0  0.43956  0.63520  0.24464  1.0000
  H   H43       1.0  0.49868  0.46691  0.80211  1.0000
  H   H44       1.0  0.50132  0.53309  0.19789  1.0000
  C   C1        1.0  0.79850  0.78530  0.82026  1.0000
  C   C2        1.0  0.20150  0.21470  0.17974  1.0000
  C   C3        1.0  0.90109  0.89869  0.91112  1.0000
  C   C4        1.0  0.09891  0.10131  0.08888  1.0000
  C   C5        1.0  0.10906  0.07830  0.98886  1.0000
  C   C6        1.0  0.89093  0.92171  0.01114  1.0000
  C   C7        1.0  0.01111  0.97784  0.89925  1.0000
  C   C8        1.0  0.98889  0.02217  0.10074  1.0000
  C   C9        1.0  0.02034  0.96218  0.79113  1.0000
  C   C10       1.0  0.97966  0.03782  0.20887  1.0000
  C   C11       1.0  0.13670  0.91230  0.77375  1.0000
  C   C12       1.0  0.86329  0.08770  0.22624  1.0000
  C   C13       1.0  0.25938  0.90979  0.86033  1.0000
  C   C14       1.0  0.74062  0.09022  0.13967  1.0000
  C   C15       1.0  0.37146  0.87184  0.84054  1.0000
  C   C16       1.0  0.62854  0.12816  0.15946  1.0000
  C   C17       1.0  0.36054  0.83342  0.73432  1.0000
  C   C18       1.0  0.63945  0.16658  0.26568  1.0000
  C   C19       1.0  0.23662  0.83262  0.64728  1.0000
  C   C20       1.0  0.76337  0.16738  0.35271  1.0000
  C   C21       1.0  0.12627  0.87286  0.66721  1.0000
  C   C22       1.0  0.87372  0.12714  0.33279  1.0000
  C   C23       1.0  0.48301  0.74103  0.49636  1.0000
  C   C24       1.0  0.51699  0.25898  0.50365  1.0000
  C   C25       1.0  0.48746  0.87455  0.49895  1.0000
  C   C26       1.0  0.51254  0.12545  0.50105  1.0000
  C   C27       1.0  0.60919  0.96967  0.57657  1.0000
  C   C28       1.0  0.39081  0.03032  0.42343  1.0000
  C   C29       1.0  0.37686  0.90565  0.42246  1.0000
  C   C30       1.0  0.62314  0.09435  0.57754  1.0000
  C   C31       1.0  0.23839  0.80894  0.34302  1.0000
  C   C32       1.0  0.76161  0.19106  0.65698  1.0000
  C   C33       1.0  0.20692  0.78080  0.22603  1.0000
  C   C34       1.0  0.79309  0.21920  0.77397  1.0000
  C   C35       1.0  0.06914  0.70749  0.14767  1.0000
  C   C36       1.0  0.93086  0.29252  0.85233  1.0000
  C   C37       1.0  0.03991  0.67778  0.03772  1.0000
  C   C38       1.0  0.96009  0.32223  0.96228  1.0000
  C   C39       1.0  0.14796  0.72070  0.00509  1.0000
  C   C40       1.0  0.85205  0.27931  0.99491  1.0000
  C   C41       1.0  0.28504  0.79313  0.08262  1.0000
  C   C42       1.0  0.71497  0.20687  0.91738  1.0000
  C   C43       1.0  0.31443  0.82393  0.19265  1.0000
  C   C44       1.0  0.68557  0.17607  0.80735  1.0000
  C   C45       1.0  0.69805  0.49398  0.42766  1.0000
  C   C46       1.0  0.30195  0.50602  0.57234  1.0000
  C   C47       1.0  0.85488  0.50216  0.46380  1.0000
  C   C48       1.0  0.14512  0.49784  0.53620  1.0000
  C   C49       1.0  0.92558  0.48228  0.56304  1.0000
  C   C50       1.0  0.07442  0.51772  0.43696  1.0000
  C   C51       1.0  0.93031  0.52016  0.39921  1.0000
  C   C52       1.0  0.06969  0.47983  0.60079  1.0000
  C   C53       1.0  0.86782  0.54090  0.29087  1.0000
  C   C54       1.0  0.13218  0.45910  0.70913  1.0000
  C   C55       1.0  0.79442  0.64054  0.27660  1.0000
  C   C56       1.0  0.20559  0.35946  0.72340  1.0000
  C   C57       1.0  0.80673  0.73517  0.36616  1.0000
  C   C58       1.0  0.19327  0.26483  0.63384  1.0000
  C   C59       1.0  0.74561  0.83314  0.35020  1.0000
  C   C60       1.0  0.25439  0.16686  0.64980  1.0000
  C   C61       1.0  0.67184  0.83710  0.24472  1.0000
  C   C62       1.0  0.32816  0.16289  0.75528  1.0000
  C   C63       1.0  0.65803  0.74268  0.15501  1.0000
  C   C64       1.0  0.34197  0.25731  0.84499  1.0000
  C   C65       1.0  0.71948  0.64488  0.17058  1.0000
  C   C66       1.0  0.28052  0.35512  0.82942  1.0000
  O   O1        1.0  0.68575  0.72770  0.82735  1.0000
  O   O2        1.0  0.31425  0.27230  0.17265  1.0000
  O   O3        1.0  0.82757  0.74594  0.73887  1.0000
  O   O4        1.0  0.17243  0.25406  0.26113  1.0000
  O   O5        1.0  0.93777  0.99878  0.72197  1.0000
  O   O6        1.0  0.06223  0.00122  0.27802  1.0000
  O   O7        1.0  0.42636  0.65866  0.40284  1.0000
  O   O8        1.0  0.57364  0.34134  0.59716  1.0000
  O   O9        1.0  0.53831  0.72084  0.58685  1.0000
  O   O10       1.0  0.46169  0.27916  0.41315  1.0000
  O   O11       1.0  0.15474  0.75727  0.37592  1.0000
  O   O12       1.0  0.84527  0.24273  0.62408  1.0000
  O   O13       1.0  0.61445  0.44950  0.32747  1.0000
  O   O14       1.0  0.38555  0.55050  0.67253  1.0000
  O   O15       1.0  0.64993  0.52857  0.49941  1.0000
  O   O16       1.0  0.35007  0.47143  0.50059  1.0000
  O   O17       1.0  0.88824  0.47849  0.21482  1.0000
  O   O18       1.0  0.11177  0.52151  0.78518  1.0000
  O   O19       1.0  0.83937  0.51978  0.77016  1.0000
  O   O20       1.0  0.16063  0.48022  0.22984  1.0000
  O   O21       1.0  0.58653  0.45363  0.79555  1.0000
  O   O22       1.0  0.41347  0.54637  0.20445  1.0000
