data_image0
_chemical_formula_structural       Ni2H40C56N12
_chemical_formula_sum              "Ni2 H40 C56 N12"
_cell_length_a       9.0771
_cell_length_b       9.62156
_cell_length_c       15.0862
_cell_angle_alpha    77.7526
_cell_angle_beta     72.5275
_cell_angle_gamma    61.857

_space_group_name_H-M_alt    "P 1"
_space_group_IT_number       1

loop_
  _space_group_symop_operation_xyz
  'x, y, z'

loop_
  _atom_site_type_symbol
  _atom_site_label
  _atom_site_symmetry_multiplicity
  _atom_site_fract_x
  _atom_site_fract_y
  _atom_site_fract_z
  _atom_site_occupancy
  Ni  Ni1       1.0  0.50976  0.24991  0.74998  1.0000
  Ni  Ni2       1.0  0.49024  0.75009  0.25002  1.0000
  H   H1        1.0  0.25469  0.24960  0.95140  1.0000
  H   H2        1.0  0.45561  0.25042  0.54856  1.0000
  H   H3        1.0  0.74530  0.75041  0.04859  1.0000
  H   H4        1.0  0.54440  0.74957  0.45144  1.0000
  H   H5        1.0  0.10307  0.48913  0.06464  1.0000
  H   H6        1.0  0.65622  0.01089  0.43533  1.0000
  H   H7        1.0  0.89693  0.51087  0.93536  1.0000
  H   H8        1.0  0.34378  0.98911  0.56468  1.0000
  H   H9        1.0  0.22266  0.70491  0.97620  1.0000
  H   H10       1.0  0.90354  0.79510  0.52361  1.0000
  H   H11       1.0  0.77733  0.29510  0.02380  1.0000
  H   H12       1.0  0.09646  0.20489  0.47639  1.0000
  H   H13       1.0  0.65420  0.73647  0.64157  1.0000
  H   H14       1.0  0.03280  0.76359  0.85827  1.0000
  H   H15       1.0  0.34581  0.26353  0.35843  1.0000
  H   H16       1.0  0.96720  0.23640  0.14173  1.0000
  H   H17       1.0  0.86027  0.52639  0.51253  1.0000
  H   H18       1.0  0.89948  0.97334  0.98757  1.0000
  H   H19       1.0  0.13973  0.47361  0.48748  1.0000
  H   H20       1.0  0.10052  0.02667  0.01243  1.0000
  H   H21       1.0  0.80192  0.26377  0.57569  1.0000
  H   H22       1.0  0.64142  0.23589  0.92447  1.0000
  H   H23       1.0  0.19808  0.73623  0.42432  1.0000
  H   H24       1.0  0.35858  0.76411  0.07552  1.0000
  H   H25       1.0  0.27148  0.88084  0.70344  1.0000
  H   H26       1.0  0.85584  0.61936  0.79639  1.0000
  H   H27       1.0  0.72852  0.11916  0.29656  1.0000
  H   H28       1.0  0.14416  0.38063  0.20361  1.0000
  H   H29       1.0  0.25992  0.14457  0.70506  1.0000
  H   H30       1.0  0.10954  0.35551  0.79484  1.0000
  H   H31       1.0  0.74008  0.85544  0.29494  1.0000
  H   H32       1.0  0.89046  0.64448  0.20515  1.0000
  H   H33       1.0  0.52332  0.97835  0.91557  1.0000
  H   H34       1.0  0.41702  0.52141  0.58429  1.0000
  H   H35       1.0  0.47668  0.02165  0.08443  1.0000
  H   H36       1.0  0.58298  0.47859  0.41571  1.0000
  H   H37       1.0  0.55500  0.70626  0.91849  1.0000
  H   H38       1.0  0.17993  0.79368  0.58148  1.0000
  H   H39       1.0  0.44500  0.29374  0.08151  1.0000
  H   H40       1.0  0.82008  0.20632  0.41852  1.0000
  C   C1        1.0  0.27350  0.35626  0.93926  1.0000
  C   C2        1.0  0.56902  0.14379  0.56064  1.0000
  C   C3        1.0  0.72650  0.64374  0.06074  1.0000
  C   C4        1.0  0.43099  0.85621  0.43936  1.0000
  C   C5        1.0  0.19561  0.48160  0.99860  1.0000
  C   C6        1.0  0.67552  0.01844  0.50130  1.0000
  C   C7        1.0  0.80439  0.51841  0.00140  1.0000
  C   C8        1.0  0.32448  0.98155  0.49871  1.0000
  C   C9        1.0  0.25606  0.59214  0.95300  1.0000
  C   C10       1.0  0.80106  0.90784  0.54685  1.0000
  C   C11       1.0  0.74393  0.40786  0.04700  1.0000
  C   C12       1.0  0.19894  0.09215  0.45316  1.0000
  C   C13       1.0  0.37000  0.53108  0.86655  1.0000
  C   C14       1.0  0.76776  0.96888  0.63329  1.0000
  C   C15       1.0  0.62999  0.46893  0.13344  1.0000
  C   C16       1.0  0.23224  0.03112  0.36671  1.0000
  C   C17       1.0  0.45581  0.60656  0.79616  1.0000
  C   C18       1.0  0.85878  0.89352  0.70367  1.0000
  C   C19       1.0  0.54419  0.39344  0.20383  1.0000
  C   C20       1.0  0.14122  0.10647  0.29633  1.0000
  C   C21       1.0  0.57264  0.54477  0.71310  1.0000
  C   C22       1.0  0.83089  0.95535  0.78674  1.0000
  C   C23       1.0  0.42736  0.45523  0.28690  1.0000
  C   C24       1.0  0.16911  0.04465  0.21326  1.0000
  C   C25       1.0  0.66521  0.61905  0.64225  1.0000
  C   C26       1.0  0.92703  0.88096  0.85760  1.0000
  C   C27       1.0  0.33479  0.38095  0.35775  1.0000
  C   C28       1.0  0.07298  0.11904  0.14240  1.0000
  C   C29       1.0  0.77207  0.51088  0.57640  1.0000
  C   C30       1.0  0.85973  0.98891  0.92362  1.0000
  C   C31       1.0  0.22793  0.48912  0.42360  1.0000
  C   C32       1.0  0.14027  0.01109  0.07638  1.0000
  C   C33       1.0  0.74244  0.37381  0.60838  1.0000
  C   C34       1.0  0.72485  0.12594  0.89171  1.0000
  C   C35       1.0  0.25756  0.62619  0.39162  1.0000
  C   C36       1.0  0.27515  0.87407  0.10828  1.0000
  C   C37       1.0  0.42119  0.76977  0.80809  1.0000
  C   C38       1.0  0.99918  0.73027  0.69181  1.0000
  C   C39       1.0  0.57880  0.23023  0.19191  1.0000
  C   C40       1.0  0.00082  0.26973  0.30819  1.0000
  C   C41       1.0  0.33025  0.89792  0.75085  1.0000
  C   C42       1.0  0.97906  0.60215  0.74903  1.0000
  C   C43       1.0  0.66975  0.10208  0.24915  1.0000
  C   C44       1.0  0.02094  0.39784  0.25097  1.0000
  C   C45       1.0  0.32146  0.04533  0.75282  1.0000
  C   C46       1.0  0.11960  0.45470  0.74707  1.0000
  C   C47       1.0  0.67855  0.95468  0.24718  1.0000
  C   C48       1.0  0.88040  0.54530  0.25293  1.0000
  C   C49       1.0  0.46885  0.95290  0.86917  1.0000
  C   C50       1.0  0.29079  0.54696  0.63069  1.0000
  C   C51       1.0  0.53115  0.04709  0.13083  1.0000
  C   C52       1.0  0.70921  0.45303  0.36931  1.0000
  C   C53       1.0  0.48590  0.80068  0.87095  1.0000
  C   C54       1.0  0.15759  0.69931  0.62899  1.0000
  C   C55       1.0  0.51410  0.19932  0.12906  1.0000
  C   C56       1.0  0.84242  0.30069  0.37101  1.0000
  N   N1        1.0  0.37783  0.38442  0.86098  1.0000
  N   N2        1.0  0.62343  0.11555  0.63890  1.0000
  N   N3        1.0  0.62216  0.61558  0.13902  1.0000
  N   N4        1.0  0.37658  0.88445  0.36110  1.0000
  N   N5        1.0  0.62320  0.39413  0.68870  1.0000
  N   N6        1.0  0.70626  0.10582  0.81129  1.0000
  N   N7        1.0  0.37680  0.60587  0.31130  1.0000
  N   N8        1.0  0.29374  0.89418  0.18871  1.0000
  N   N9        1.0  0.39381  0.07329  0.80891  1.0000
  N   N10       1.0  0.27588  0.42660  0.69092  1.0000
  N   N11       1.0  0.60618  0.92671  0.19109  1.0000
  N   N12       1.0  0.72412  0.57340  0.30908  1.0000
