data_image0
_chemical_formula_structural       H24Pb4C36O16
_chemical_formula_sum              "H24 Pb4 C36 O16"
_cell_length_a       6.70101
_cell_length_b       9.4862
_cell_length_c       13.508
_cell_angle_alpha    91.6693
_cell_angle_beta     90.0016
_cell_angle_gamma    89.9983

_space_group_name_H-M_alt    "P 1"
_space_group_IT_number       1

loop_
  _space_group_symop_operation_xyz
  'x, y, z'

loop_
  _atom_site_type_symbol
  _atom_site_label
  _atom_site_symmetry_multiplicity
  _atom_site_fract_x
  _atom_site_fract_y
  _atom_site_fract_z
  _atom_site_occupancy
  H   H1        1.0  0.66475  0.40180  0.35502  1.0000
  H   H2        1.0  0.16471  0.09821  0.64496  1.0000
  H   H3        1.0  0.33527  0.59820  0.64499  1.0000
  H   H4        1.0  0.83528  0.90178  0.35504  1.0000
  H   H5        1.0  0.40470  0.59862  0.25449  1.0000
  H   H6        1.0  0.90465  0.90139  0.74549  1.0000
  H   H7        1.0  0.59532  0.40137  0.74550  1.0000
  H   H8        1.0  0.09533  0.09858  0.25451  1.0000
  H   H9        1.0  0.30239  0.44638  0.19743  1.0000
  H   H10       1.0  0.80234  0.05362  0.80255  1.0000
  H   H11       1.0  0.69764  0.55361  0.80255  1.0000
  H   H12       1.0  0.19765  0.94638  0.19745  1.0000
  H   H13       1.0  0.68574  0.57586  0.49710  1.0000
  H   H14       1.0  0.18568  0.92417  0.50288  1.0000
  H   H15       1.0  0.31426  0.42415  0.50290  1.0000
  H   H16       1.0  0.81430  0.07585  0.49711  1.0000
  H   H17       1.0  0.23280  0.73596  0.37600  1.0000
  H   H18       1.0  0.73272  0.76407  0.62400  1.0000
  H   H19       1.0  0.76723  0.26407  0.62399  1.0000
  H   H20       1.0  0.26723  0.23592  0.37601  1.0000
  H   H21       1.0  0.96992  0.74566  0.50549  1.0000
  H   H22       1.0  0.46983  0.75434  0.49452  1.0000
  H   H23       1.0  0.03012  0.25431  0.49451  1.0000
  H   H24       1.0  0.53015  0.24570  0.50548  1.0000
  Pb  Pb1       1.0  0.25107  0.84859  0.94997  1.0000
  Pb  Pb2       1.0  0.75105  0.65141  0.05003  1.0000
  Pb  Pb3       1.0  0.74893  0.15142  0.05004  1.0000
  Pb  Pb4       1.0  0.24893  0.34860  0.94997  1.0000
  C   C1        1.0  0.09755  0.56584  0.29174  1.0000
  C   C2        1.0  0.59741  0.93413  0.70824  1.0000
  C   C3        1.0  0.90249  0.43416  0.70824  1.0000
  C   C4        1.0  0.40249  0.06585  0.29174  1.0000
  C   C5        1.0  0.78648  0.47774  0.36025  1.0000
  C   C6        1.0  0.28640  0.02227  0.63972  1.0000
  C   C7        1.0  0.21352  0.52230  0.63977  1.0000
  C   C8        1.0  0.71355  0.97772  0.36025  1.0000
  C   C9        1.0  0.26791  0.55622  0.21943  1.0000
  C   C10       1.0  0.76783  0.94380  0.78054  1.0000
  C   C11       1.0  0.73215  0.44379  0.78056  1.0000
  C   C12       1.0  0.23214  0.05621  0.21943  1.0000
  C   C13       1.0  0.93285  0.47344  0.28600  1.0000
  C   C14       1.0  0.43276  0.02654  0.71398  1.0000
  C   C15       1.0  0.06721  0.52653  0.71403  1.0000
  C   C16       1.0  0.56720  0.97346  0.28599  1.0000
  C   C17       1.0  0.79805  0.57560  0.43871  1.0000
  C   C18       1.0  0.29798  0.92443  0.56129  1.0000
  C   C19       1.0  0.20204  0.42441  0.56133  1.0000
  C   C20       1.0  0.70202  0.07558  0.43870  1.0000
  C   C21       1.0  0.10576  0.66397  0.37107  1.0000
  C   C22       1.0  0.60569  0.83603  0.62890  1.0000
  C   C23       1.0  0.89430  0.33600  0.62893  1.0000
  C   C24       1.0  0.39428  0.16396  0.37107  1.0000
  C   C25       1.0  0.90194  0.37122  0.20091  1.0000
  C   C26       1.0  0.40192  0.12877  0.79908  1.0000
  C   C27       1.0  0.09810  0.62875  0.79911  1.0000
  C   C28       1.0  0.59812  0.87124  0.20091  1.0000
  C   C29       1.0  0.95758  0.66991  0.44361  1.0000
  C   C30       1.0  0.45747  0.83006  0.55640  1.0000
  C   C31       1.0  0.04248  0.33008  0.55639  1.0000
  C   C32       1.0  0.54251  0.16994  0.44360  1.0000
  C   C33       1.0  0.24428  0.63766  0.12517  1.0000
  C   C34       1.0  0.74427  0.86236  0.87481  1.0000
  C   C35       1.0  0.75571  0.36234  0.87483  1.0000
  C   C36       1.0  0.25570  0.13765  0.12518  1.0000
  O   O1        1.0  0.10988  0.73140  0.11756  1.0000
  O   O2        1.0  0.60989  0.76861  0.88245  1.0000
  O   O3        1.0  0.89012  0.26862  0.88246  1.0000
  O   O4        1.0  0.39011  0.23138  0.11756  1.0000
  O   O5        1.0  0.83299  0.24976  0.21907  1.0000
  O   O6        1.0  0.33296  0.25026  0.78097  1.0000
  O   O7        1.0  0.16695  0.75025  0.78095  1.0000
  O   O8        1.0  0.66702  0.74973  0.21906  1.0000
  O   O9        1.0  0.93769  0.41076  0.11215  1.0000
  O   O10       1.0  0.43765  0.08924  0.88784  1.0000
  O   O11       1.0  0.06225  0.58920  0.88786  1.0000
  O   O12       1.0  0.56236  0.91077  0.11215  1.0000
  O   O13       1.0  0.36919  0.61093  0.05470  1.0000
  O   O14       1.0  0.86918  0.88906  0.94528  1.0000
  O   O15       1.0  0.63083  0.38907  0.94531  1.0000
  O   O16       1.0  0.13078  0.11093  0.05471  1.0000
