data_image0
_chemical_formula_structural       U4Cu4H32C56N8O40
_chemical_formula_sum              "U4 Cu4 H32 C56 N8 O40"
_cell_length_a       8.30919
_cell_length_b       11.9209
_cell_length_c       17.3843
_cell_angle_alpha    89.9998
_cell_angle_beta     90
_cell_angle_gamma    107.069

_space_group_name_H-M_alt    "P 1"
_space_group_IT_number       1

loop_
  _space_group_symop_operation_xyz
  'x, y, z'

loop_
  _atom_site_type_symbol
  _atom_site_label
  _atom_site_symmetry_multiplicity
  _atom_site_fract_x
  _atom_site_fract_y
  _atom_site_fract_z
  _atom_site_occupancy
  U   U1        1.0  0.44941  0.57625  0.82947  1.0000
  U   U2        1.0  0.05060  0.92376  0.32947  1.0000
  U   U3        1.0  0.55059  0.42376  0.17053  1.0000
  U   U4        1.0  0.94941  0.07625  0.67053  1.0000
  Cu  Cu1       1.0  0.34077  0.78503  0.53450  1.0000
  Cu  Cu2       1.0  0.15922  0.71497  0.03450  1.0000
  Cu  Cu3       1.0  0.65923  0.21497  0.46550  1.0000
  Cu  Cu4       1.0  0.84077  0.28503  0.96550  1.0000
  H   H1        1.0  0.12735  0.83698  0.66397  1.0000
  H   H2        1.0  0.37265  0.66301  0.16397  1.0000
  H   H3        1.0  0.87265  0.16302  0.33603  1.0000
  H   H4        1.0  0.62735  0.33698  0.83603  1.0000
  H   H5        1.0  0.93887  0.70886  0.76359  1.0000
  H   H6        1.0  0.56113  0.79113  0.26359  1.0000
  H   H7        1.0  0.06113  0.29114  0.23641  1.0000
  H   H8        1.0  0.43886  0.20886  0.73641  1.0000
  H   H9        1.0  0.86786  0.49193  0.75053  1.0000
  H   H10       1.0  0.63213  0.00806  0.25054  1.0000
  H   H11       1.0  0.13214  0.50807  0.24946  1.0000
  H   H12       1.0  0.36786  0.99193  0.74947  1.0000
  H   H13       1.0  0.98661  0.40734  0.63941  1.0000
  H   H14       1.0  0.51339  0.09266  0.13942  1.0000
  H   H15       1.0  0.01339  0.59266  0.36059  1.0000
  H   H16       1.0  0.48661  0.90734  0.86059  1.0000
  H   H17       1.0  0.11321  0.35080  0.54526  1.0000
  H   H18       1.0  0.38679  0.14919  0.04526  1.0000
  H   H19       1.0  0.88679  0.64920  0.45474  1.0000
  H   H20       1.0  0.61321  0.85080  0.95474  1.0000
  H   H21       1.0  0.27189  0.30758  0.43517  1.0000
  H   H22       1.0  0.22810  0.19241  0.93517  1.0000
  H   H23       1.0  0.72810  0.69241  0.56483  1.0000
  H   H24       1.0  0.77189  0.80758  0.06483  1.0000
  H   H25       1.0  0.46637  0.47615  0.36068  1.0000
  H   H26       1.0  0.03362  0.02384  0.86068  1.0000
  H   H27       1.0  0.53362  0.52384  0.63932  1.0000
  H   H28       1.0  0.96638  0.97616  0.13932  1.0000
  H   H29       1.0  0.49446  0.68204  0.40462  1.0000
  H   H30       1.0  0.00554  0.81795  0.90462  1.0000
  H   H31       1.0  0.50554  0.31795  0.59538  1.0000
  H   H32       1.0  0.99447  0.18204  0.09538  1.0000
  C   C1        1.0  0.54416  0.77230  0.69199  1.0000
  C   C2        1.0  0.95584  0.72771  0.19199  1.0000
  C   C3        1.0  0.45584  0.22770  0.30801  1.0000
  C   C4        1.0  0.04417  0.27230  0.80801  1.0000
  C   C5        1.0  0.66946  0.82768  0.75746  1.0000
  C   C6        1.0  0.83055  0.67232  0.25746  1.0000
  C   C7        1.0  0.33054  0.17232  0.24254  1.0000
  C   C8        1.0  0.16947  0.32769  0.74254  1.0000
  C   C9        1.0  0.54892  0.56370  0.00985  1.0000
  C   C10       1.0  0.95107  0.93631  0.50985  1.0000
  C   C11       1.0  0.45109  0.43631  0.99015  1.0000
  C   C12       1.0  0.04893  0.06370  0.49015  1.0000
  C   C13       1.0  0.43957  0.02148  0.52545  1.0000
  C   C14       1.0  0.06043  0.47852  0.02545  1.0000
  C   C15       1.0  0.56044  0.97852  0.47456  1.0000
  C   C16       1.0  0.93956  0.52148  0.97456  1.0000
  C   C17       1.0  0.09446  0.74146  0.66184  1.0000
  C   C18       1.0  0.40554  0.75854  0.16184  1.0000
  C   C19       1.0  0.90554  0.25854  0.33816  1.0000
  C   C20       1.0  0.59446  0.24146  0.83816  1.0000
  C   C21       1.0  0.98965  0.67009  0.71621  1.0000
  C   C22       1.0  0.51035  0.82991  0.21621  1.0000
  C   C23       1.0  0.01035  0.32991  0.28379  1.0000
  C   C24       1.0  0.48964  0.17009  0.78379  1.0000
  C   C25       1.0  0.95072  0.54858  0.70871  1.0000
  C   C26       1.0  0.54927  0.95142  0.20871  1.0000
  C   C27       1.0  0.04928  0.45142  0.29129  1.0000
  C   C28       1.0  0.45072  0.04858  0.79129  1.0000
  C   C29       1.0  0.01706  0.50176  0.64724  1.0000
  C   C30       1.0  0.48294  0.99823  0.14724  1.0000
  C   C31       1.0  0.98294  0.49824  0.35276  1.0000
  C   C32       1.0  0.51705  0.00176  0.85276  1.0000
  C   C33       1.0  0.12594  0.57763  0.59610  1.0000
  C   C34       1.0  0.37406  0.92237  0.09611  1.0000
  C   C35       1.0  0.87405  0.42237  0.40390  1.0000
  C   C36       1.0  0.62594  0.07763  0.90390  1.0000
  C   C37       1.0  0.21392  0.53953  0.53223  1.0000
  C   C38       1.0  0.28607  0.96046  0.03223  1.0000
  C   C39       1.0  0.78607  0.46046  0.46777  1.0000
  C   C40       1.0  0.71393  0.03953  0.96777  1.0000
  C   C41       1.0  0.19487  0.42286  0.51243  1.0000
  C   C42       1.0  0.30513  0.07713  0.01243  1.0000
  C   C43       1.0  0.80513  0.57713  0.48757  1.0000
  C   C44       1.0  0.69487  0.92287  0.98757  1.0000
  C   C45       1.0  0.28588  0.39873  0.45040  1.0000
  C   C46       1.0  0.21411  0.10127  0.95040  1.0000
  C   C47       1.0  0.71412  0.60127  0.54960  1.0000
  C   C48       1.0  0.78588  0.89873  0.04960  1.0000
  C   C49       1.0  0.39321  0.49138  0.40935  1.0000
  C   C50       1.0  0.10677  0.00861  0.90935  1.0000
  C   C51       1.0  0.60678  0.50861  0.59065  1.0000
  C   C52       1.0  0.89322  0.99138  0.09065  1.0000
  C   C53       1.0  0.40891  0.60588  0.43269  1.0000
  C   C54       1.0  0.09109  0.89412  0.93269  1.0000
  C   C55       1.0  0.59109  0.39412  0.56731  1.0000
  C   C56       1.0  0.90891  0.10588  0.06731  1.0000
  N   N1        1.0  0.16097  0.69557  0.60380  1.0000
  N   N2        1.0  0.33903  0.80443  0.10380  1.0000
  N   N3        1.0  0.83903  0.30443  0.39620  1.0000
  N   N4        1.0  0.66097  0.19557  0.89620  1.0000
  N   N5        1.0  0.32115  0.62860  0.49239  1.0000
  N   N6        1.0  0.17885  0.87139  0.99240  1.0000
  N   N7        1.0  0.67885  0.37139  0.50761  1.0000
  N   N8        1.0  0.82115  0.12860  0.00761  1.0000
  O   O1        1.0  0.27757  0.63159  0.85809  1.0000
  O   O2        1.0  0.22243  0.86842  0.35809  1.0000
  O   O3        1.0  0.72243  0.36841  0.14191  1.0000
  O   O4        1.0  0.77759  0.13160  0.64191  1.0000
  O   O5        1.0  0.62531  0.52516  0.80047  1.0000
  O   O6        1.0  0.87469  0.97484  0.30048  1.0000
  O   O7        1.0  0.37469  0.47485  0.19952  1.0000
  O   O8        1.0  0.12531  0.02515  0.69952  1.0000
  O   O9        1.0  0.45225  0.66759  0.70845  1.0000
  O   O10       1.0  0.04776  0.83241  0.20845  1.0000
  O   O11       1.0  0.54776  0.33242  0.29155  1.0000
  O   O12       1.0  0.95226  0.16759  0.79155  1.0000
  O   O13       1.0  0.54000  0.82917  0.63271  1.0000
  O   O14       1.0  0.95999  0.67083  0.13271  1.0000
  O   O15       1.0  0.45999  0.17083  0.36728  1.0000
  O   O16       1.0  0.04001  0.32918  0.86728  1.0000
  O   O17       1.0  0.64520  0.77118  0.82044  1.0000
  O   O18       1.0  0.85481  0.72883  0.32044  1.0000
  O   O19       1.0  0.35481  0.22883  0.17956  1.0000
  O   O20       1.0  0.14520  0.27118  0.67956  1.0000
  O   O21       1.0  0.78374  0.92244  0.74660  1.0000
  O   O22       1.0  0.71626  0.57757  0.24660  1.0000
  O   O23       1.0  0.21625  0.07757  0.25339  1.0000
  O   O24       1.0  0.28375  0.42244  0.75339  1.0000
  O   O25       1.0  0.56393  0.63850  0.95676  1.0000
  O   O26       1.0  0.93607  0.86151  0.45676  1.0000
  O   O27       1.0  0.43607  0.36151  0.04324  1.0000
  O   O28       1.0  0.06394  0.13849  0.54324  1.0000
  O   O29       1.0  0.60612  0.58240  0.07768  1.0000
  O   O30       1.0  0.89387  0.91761  0.57768  1.0000
  O   O31       1.0  0.39389  0.41761  0.92232  1.0000
  O   O32       1.0  0.10613  0.08240  0.42232  1.0000
  O   O33       1.0  0.31703  0.94419  0.55543  1.0000
  O   O34       1.0  0.18296  0.55581  0.05544  1.0000
  O   O35       1.0  0.68297  0.05581  0.44456  1.0000
  O   O36       1.0  0.81703  0.44419  0.94456  1.0000
  O   O37       1.0  0.46974  0.13113  0.53355  1.0000
  O   O38       1.0  0.03026  0.36887  0.03355  1.0000
  O   O39       1.0  0.53027  0.86886  0.46645  1.0000
  O   O40       1.0  0.96973  0.63113  0.96645  1.0000
