data_image0
_chemical_formula_structural       U4Cu4H32C48N16O44
_chemical_formula_sum              "U4 Cu4 H32 C48 N16 O44"
_cell_length_a       9.32276
_cell_length_b       11.8022
_cell_length_c       15.6226
_cell_angle_alpha    89.9996
_cell_angle_beta     99.8093
_cell_angle_gamma    89.9989

_space_group_name_H-M_alt    "P 1"
_space_group_IT_number       1

loop_
  _space_group_symop_operation_xyz
  'x, y, z'

loop_
  _atom_site_type_symbol
  _atom_site_label
  _atom_site_symmetry_multiplicity
  _atom_site_fract_x
  _atom_site_fract_y
  _atom_site_fract_z
  _atom_site_occupancy
  U   U1        1.0  0.75685  0.63789  0.42767  1.0000
  U   U2        1.0  0.74313  0.13790  0.57232  1.0000
  U   U3        1.0  0.24314  0.36210  0.57233  1.0000
  U   U4        1.0  0.25688  0.86210  0.42767  1.0000
  Cu  Cu1       1.0  0.07939  0.48363  0.18051  1.0000
  Cu  Cu2       1.0  0.42059  0.98363  0.81948  1.0000
  Cu  Cu3       1.0  0.92058  0.51636  0.81949  1.0000
  Cu  Cu4       1.0  0.57941  0.01635  0.18051  1.0000
  H   H1        1.0  0.27408  0.59527  0.29936  1.0000
  H   H2        1.0  0.22591  0.09527  0.70064  1.0000
  H   H3        1.0  0.72591  0.40473  0.70064  1.0000
  H   H4        1.0  0.77411  0.90473  0.29936  1.0000
  H   H5        1.0  0.31439  0.62347  0.20809  1.0000
  H   H6        1.0  0.18560  0.12347  0.79191  1.0000
  H   H7        1.0  0.68559  0.37652  0.79191  1.0000
  H   H8        1.0  0.81442  0.87652  0.20809  1.0000
  H   H9        1.0  0.95066  0.34011  0.31418  1.0000
  H   H10       1.0  0.54935  0.84011  0.68583  1.0000
  H   H11       1.0  0.04933  0.65990  0.68582  1.0000
  H   H12       1.0  0.45068  0.15989  0.31419  1.0000
  H   H13       1.0  0.92476  0.12583  0.33055  1.0000
  H   H14       1.0  0.57529  0.62584  0.66945  1.0000
  H   H15       1.0  0.07527  0.87419  0.66947  1.0000
  H   H16       1.0  0.42475  0.37418  0.33054  1.0000
  H   H17       1.0  0.04736  0.00179  0.23395  1.0000
  H   H18       1.0  0.45267  0.50179  0.76605  1.0000
  H   H19       1.0  0.95262  0.99823  0.76606  1.0000
  H   H20       1.0  0.54738  0.49821  0.23394  1.0000
  H   H21       1.0  0.21558  0.56681  0.02509  1.0000
  H   H22       1.0  0.28442  0.06680  0.97490  1.0000
  H   H23       1.0  0.78444  0.43323  0.97496  1.0000
  H   H24       1.0  0.71554  0.93321  0.02504  1.0000
  H   H25       1.0  0.37707  0.46961  0.93420  1.0000
  H   H26       1.0  0.12292  0.96962  0.06580  1.0000
  H   H27       1.0  0.62285  0.53043  0.06579  1.0000
  H   H28       1.0  0.87711  0.03041  0.93420  1.0000
  H   H29       1.0  0.42355  0.25856  0.96016  1.0000
  H   H30       1.0  0.07645  0.75856  0.03984  1.0000
  H   H31       1.0  0.57644  0.74150  0.03984  1.0000
  H   H32       1.0  0.92354  0.24148  0.96016  1.0000
  C   C1        1.0  0.76366  0.36442  0.45420  1.0000
  C   C2        1.0  0.73634  0.86442  0.54581  1.0000
  C   C3        1.0  0.23634  0.63558  0.54580  1.0000
  C   C4        1.0  0.26366  0.13558  0.45420  1.0000
  C   C5        1.0  0.75075  0.41170  0.54378  1.0000
  C   C6        1.0  0.74926  0.91171  0.45622  1.0000
  C   C7        1.0  0.24925  0.58828  0.45622  1.0000
  C   C8        1.0  0.25075  0.08829  0.54378  1.0000
  C   C9        1.0  0.88774  0.62434  0.24167  1.0000
  C   C10       1.0  0.61226  0.12434  0.75833  1.0000
  C   C11       1.0  0.11226  0.37565  0.75834  1.0000
  C   C12       1.0  0.38773  0.87565  0.24167  1.0000
  C   C13       1.0  0.92901  0.68670  0.16191  1.0000
  C   C14       1.0  0.57100  0.18669  0.83805  1.0000
  C   C15       1.0  0.07095  0.31328  0.83807  1.0000
  C   C16       1.0  0.42903  0.81327  0.16192  1.0000
  C   C17       1.0  0.99893  0.27898  0.27506  1.0000
  C   C18       1.0  0.50110  0.77899  0.72494  1.0000
  C   C19       1.0  0.00108  0.72103  0.72495  1.0000
  C   C20       1.0  0.49893  0.22102  0.27506  1.0000
  C   C21       1.0  0.98570  0.16240  0.28372  1.0000
  C   C22       1.0  0.51433  0.66241  0.71629  1.0000
  C   C23       1.0  0.01432  0.83761  0.71631  1.0000
  C   C24       1.0  0.48570  0.33760  0.28370  1.0000
  C   C25       1.0  0.05401  0.09386  0.22976  1.0000
  C   C26       1.0  0.44602  0.59386  0.77024  1.0000
  C   C27       1.0  0.94598  0.90616  0.77025  1.0000
  C   C28       1.0  0.55402  0.40614  0.22976  1.0000
  C   C29       1.0  0.13343  0.24911  0.16511  1.0000
  C   C30       1.0  0.36657  0.74910  0.83489  1.0000
  C   C31       1.0  0.86656  0.75090  0.83490  1.0000
  C   C32       1.0  0.63343  0.25088  0.16510  1.0000
  C   C33       1.0  0.20688  0.30557  0.09913  1.0000
  C   C34       1.0  0.29313  0.80556  0.90087  1.0000
  C   C35       1.0  0.79315  0.69446  0.90088  1.0000
  C   C36       1.0  0.70684  0.19444  0.09912  1.0000
  C   C37       1.0  0.23981  0.47657  0.03187  1.0000
  C   C38       1.0  0.26020  0.97657  0.96813  1.0000
  C   C39       1.0  0.76018  0.52347  0.96815  1.0000
  C   C40       1.0  0.73979  0.02345  0.03185  1.0000
  C   C41       1.0  0.32981  0.42227  0.98240  1.0000
  C   C42       1.0  0.17020  0.92227  0.01759  1.0000
  C   C43       1.0  0.67014  0.57776  0.01760  1.0000
  C   C44       1.0  0.82983  0.07774  0.98240  1.0000
  C   C45       1.0  0.35393  0.30667  0.99658  1.0000
  C   C46       1.0  0.14608  0.80665  0.00341  1.0000
  C   C47       1.0  0.64606  0.69338  0.00342  1.0000
  C   C48       1.0  0.85392  0.19337  0.99657  1.0000
  N   N1        1.0  0.07178  0.32163  0.21509  1.0000
  N   N2        1.0  0.42823  0.82163  0.78491  1.0000
  N   N3        1.0  0.92822  0.67837  0.78492  1.0000
  N   N4        1.0  0.57178  0.17835  0.21509  1.0000
  N   N5        1.0  0.17955  0.41813  0.09026  1.0000
  N   N6        1.0  0.32046  0.91812  0.90973  1.0000
  N   N7        1.0  0.82045  0.58189  0.90976  1.0000
  N   N8        1.0  0.67954  0.08188  0.09024  1.0000
  N   N9        1.0  0.29222  0.24782  0.05463  1.0000
  N   N10       1.0  0.20779  0.74783  0.94536  1.0000
  N   N11       1.0  0.70782  0.75219  0.94539  1.0000
  N   N12       1.0  0.79216  0.25218  0.05461  1.0000
  N   N13       1.0  0.12830  0.13650  0.17061  1.0000
  N   N14       1.0  0.37172  0.63650  0.82939  1.0000
  N   N15       1.0  0.87167  0.86350  0.82939  1.0000
  N   N16       1.0  0.62832  0.36349  0.17061  1.0000
  O   O1        1.0  0.95133  0.64106  0.46202  1.0000
  O   O2        1.0  0.54870  0.14106  0.53799  1.0000
  O   O3        1.0  0.04867  0.35894  0.53800  1.0000
  O   O4        1.0  0.45131  0.85893  0.46200  1.0000
  O   O5        1.0  0.56314  0.62860  0.39213  1.0000
  O   O6        1.0  0.93689  0.12860  0.60787  1.0000
  O   O7        1.0  0.43687  0.37139  0.60788  1.0000
  O   O8        1.0  0.06311  0.87139  0.39213  1.0000
  O   O9        1.0  0.77117  0.43775  0.39569  1.0000
  O   O10       1.0  0.72884  0.93774  0.60431  1.0000
  O   O11       1.0  0.22884  0.56226  0.60431  1.0000
  O   O12       1.0  0.27116  0.06226  0.39570  1.0000
  O   O13       1.0  0.76276  0.25797  0.44601  1.0000
  O   O14       1.0  0.73724  0.75796  0.55398  1.0000
  O   O15       1.0  0.23725  0.74203  0.55398  1.0000
  O   O16       1.0  0.26275  0.24203  0.44602  1.0000
  O   O17       1.0  0.73843  0.51758  0.55060  1.0000
  O   O18       1.0  0.76158  0.01757  0.44941  1.0000
  O   O19       1.0  0.26157  0.48242  0.44941  1.0000
  O   O20       1.0  0.23843  0.98242  0.55060  1.0000
  O   O21       1.0  0.75155  0.33943  0.60390  1.0000
  O   O22       1.0  0.74845  0.83943  0.39610  1.0000
  O   O23       1.0  0.24844  0.66056  0.39609  1.0000
  O   O24       1.0  0.25155  0.16056  0.60391  1.0000
  O   O25       1.0  0.79128  0.66512  0.28083  1.0000
  O   O26       1.0  0.70874  0.16509  0.71917  1.0000
  O   O27       1.0  0.20872  0.33488  0.71918  1.0000
  O   O28       1.0  0.29125  0.83487  0.28081  1.0000
  O   O29       1.0  0.95420  0.53190  0.26286  1.0000
  O   O30       1.0  0.54580  0.03188  0.73713  1.0000
  O   O31       1.0  0.04581  0.46811  0.73716  1.0000
  O   O32       1.0  0.45419  0.96810  0.26284  1.0000
  O   O33       1.0  0.00551  0.62588  0.11806  1.0000
  O   O34       1.0  0.49448  0.12588  0.88193  1.0000
  O   O35       1.0  0.99439  0.37406  0.88192  1.0000
  O   O36       1.0  0.50560  0.87406  0.11808  1.0000
  O   O37       1.0  0.88878  0.78569  0.14363  1.0000
  O   O38       1.0  0.61122  0.28569  0.85635  1.0000
  O   O39       1.0  0.11118  0.21427  0.85634  1.0000
  O   O40       1.0  0.38879  0.71427  0.14364  1.0000
  O   O41       1.0  0.28180  0.56048  0.24272  1.0000
  O   O42       1.0  0.21820  0.06048  0.75728  1.0000
  O   O43       1.0  0.71819  0.43951  0.75728  1.0000
  O   O44       1.0  0.78182  0.93951  0.24273  1.0000
