data_image0
_chemical_formula_structural       Mn2P2H20C26N4O12
_chemical_formula_sum              "Mn2 P2 H20 C26 N4 O12"
_cell_length_a       7.63765
_cell_length_b       9.51163
_cell_length_c       10.5821
_cell_angle_alpha    114.69
_cell_angle_beta     91.5607
_cell_angle_gamma    101.925

_space_group_name_H-M_alt    "P 1"
_space_group_IT_number       1

loop_
  _space_group_symop_operation_xyz
  'x, y, z'

loop_
  _atom_site_type_symbol
  _atom_site_label
  _atom_site_symmetry_multiplicity
  _atom_site_fract_x
  _atom_site_fract_y
  _atom_site_fract_z
  _atom_site_occupancy
  Mn  Mn1       1.0  0.69146  0.11187  0.58746  1.0000
  Mn  Mn2       1.0  0.30000  0.87174  0.39344  1.0000
  P   P1        1.0  0.43750  0.25673  0.43608  1.0000
  P   P2        1.0  0.55115  0.73209  0.55360  1.0000
  H   H1        1.0  0.35380  0.47822  0.56294  1.0000
  H   H2        1.0  0.63668  0.51047  0.42987  1.0000
  H   H3        1.0  0.20429  0.09524  0.28827  1.0000
  H   H4        1.0  0.79481  0.88954  0.69365  1.0000
  H   H5        1.0  0.41913  0.98022  0.76750  1.0000
  H   H6        1.0  0.58559  0.01987  0.24382  1.0000
  H   H7        1.0  0.35557  0.08251  0.01816  1.0000
  H   H8        1.0  0.64592  0.92516  0.99568  1.0000
  H   H9        1.0  0.50723  0.36032  0.18647  1.0000
  H   H10       1.0  0.49386  0.65075  0.81874  1.0000
  H   H11       1.0  0.06228  0.81139  0.93290  1.0000
  H   H12       1.0  0.93236  0.19702  0.07927  1.0000
  H   H13       1.0  0.12586  0.67453  0.68418  1.0000
  H   H14       1.0  0.87903  0.34450  0.32811  1.0000
  H   H15       1.0  0.97274  0.38677  0.54206  1.0000
  H   H16       1.0  0.03128  0.63172  0.46340  1.0000
  H   H17       1.0  0.71214  0.62391  0.22777  1.0000
  H   H18       1.0  0.28244  0.37854  0.77416  1.0000
  H   H19       1.0  0.91347  0.78794  0.13454  1.0000
  H   H20       1.0  0.08097  0.21619  0.86745  1.0000
  C   C1        1.0  0.48477  0.10075  0.84411  1.0000
  C   C2        1.0  0.51742  0.90117  0.16606  1.0000
  C   C3        1.0  0.44852  0.15899  0.98393  1.0000
  C   C4        1.0  0.55150  0.84590  0.02628  1.0000
  C   C5        1.0  0.53217  0.31343  0.07738  1.0000
  C   C6        1.0  0.46831  0.69253  0.92761  1.0000
  C   C7        1.0  0.64943  0.41129  0.02989  1.0000
  C   C8        1.0  0.35125  0.59187  0.97212  1.0000
  C   C9        1.0  0.67968  0.34232  0.88728  1.0000
  C   C10       1.0  0.32106  0.65700  0.11441  1.0000
  C   C11       1.0  0.79962  0.43670  0.83400  1.0000
  C   C12       1.0  0.20099  0.56622  0.16629  1.0000
  C   C13       1.0  0.88120  0.59867  0.92382  1.0000
  C   C14       1.0  0.11566  0.40481  0.07982  1.0000
  C   C15       1.0  0.99722  0.68640  0.86675  1.0000
  C   C16       1.0  0.00094  0.32202  0.14108  1.0000
  C   C17       1.0  0.03081  0.61241  0.72963  1.0000
  C   C18       1.0  0.97273  0.40336  0.27947  1.0000
  C   C19       1.0  0.94640  0.45051  0.64937  1.0000
  C   C20       1.0  0.05660  0.56507  0.35663  1.0000
  C   C21       1.0  0.73671  0.57416  0.11845  1.0000
  C   C22       1.0  0.26017  0.42931  0.88405  1.0000
  C   C23       1.0  0.84707  0.66421  0.06669  1.0000
  C   C24       1.0  0.14884  0.33958  0.93622  1.0000
  C   C25       1.0  0.02995  0.98292  0.56104  1.0000
  C   C26       1.0  0.98890  0.00085  0.42836  1.0000
  N   N1        1.0  0.59976  0.18862  0.79744  1.0000
  N   N2        1.0  0.40022  0.81066  0.21143  1.0000
  N   N3        1.0  0.83246  0.36536  0.69892  1.0000
  N   N4        1.0  0.17156  0.64756  0.30315  1.0000
  O   O1        1.0  0.46296  0.11988  0.47241  1.0000
  O   O2        1.0  0.52494  0.86615  0.51261  1.0000
  O   O3        1.0  0.61129  0.35001  0.41661  1.0000
  O   O4        1.0  0.38029  0.63953  0.57762  1.0000
  O   O5        1.0  0.33754  0.36165  0.55455  1.0000
  O   O6        1.0  0.65099  0.62567  0.43590  1.0000
  O   O7        1.0  0.30697  0.18041  0.29087  1.0000
  O   O8        1.0  0.68390  0.81427  0.69737  1.0000
  O   O9        1.0  0.92589  0.02260  0.65554  1.0000
  O   O10       1.0  0.09333  0.94748  0.33334  1.0000
  O   O11       1.0  0.16754  0.92802  0.56615  1.0000
  O   O12       1.0  0.86290  0.06242  0.41578  1.0000
