data_image0
_chemical_formula_structural       Tb2H36C24N12Cl2O16
_chemical_formula_sum              "Tb2 H36 C24 N12 Cl2 O16"
_cell_length_a       8.39871
_cell_length_b       10.8025
_cell_length_c       11.7503
_cell_angle_alpha    63.9429
_cell_angle_beta     84.684
_cell_angle_gamma    88.8438

_space_group_name_H-M_alt    "P 1"
_space_group_IT_number       1

loop_
  _space_group_symop_operation_xyz
  'x, y, z'

loop_
  _atom_site_type_symbol
  _atom_site_label
  _atom_site_symmetry_multiplicity
  _atom_site_fract_x
  _atom_site_fract_y
  _atom_site_fract_z
  _atom_site_occupancy
  Tb  Tb1       1.0  0.42369  0.45548  0.18081  1.0000
  Tb  Tb2       1.0  0.57630  0.54452  0.81919  1.0000
  H   H1        1.0  0.31562  0.19021  0.94601  1.0000
  H   H2        1.0  0.68438  0.80979  0.05399  1.0000
  H   H3        1.0  0.47351  0.09493  0.03496  1.0000
  H   H4        1.0  0.52649  0.90507  0.96504  1.0000
  H   H5        1.0  0.08216  0.78470  0.80394  1.0000
  H   H6        1.0  0.91784  0.21531  0.19606  1.0000
  H   H7        1.0  0.97110  0.62470  0.86706  1.0000
  H   H8        1.0  0.02890  0.37531  0.13294  1.0000
  H   H9        1.0  0.07691  0.57848  0.28674  1.0000
  H   H10       1.0  0.92309  0.42152  0.71326  1.0000
  H   H11       1.0  0.77615  0.24939  0.42852  1.0000
  H   H12       1.0  0.22385  0.75061  0.57148  1.0000
  H   H13       1.0  0.87196  0.23229  0.56484  1.0000
  H   H14       1.0  0.12804  0.76771  0.43516  1.0000
  H   H15       1.0  0.98596  0.21541  0.43552  1.0000
  H   H16       1.0  0.01404  0.78459  0.56448  1.0000
  H   H17       1.0  0.84538  0.61494  0.35795  1.0000
  H   H18       1.0  0.15462  0.38506  0.64205  1.0000
  H   H19       1.0  0.76066  0.48081  0.50675  1.0000
  H   H20       1.0  0.23934  0.51919  0.49326  1.0000
  H   H21       1.0  0.69547  0.49915  0.36025  1.0000
  H   H22       1.0  0.30453  0.50085  0.63976  1.0000
  H   H23       1.0  0.48990  0.30629  0.56224  1.0000
  H   H24       1.0  0.51010  0.69371  0.43776  1.0000
  H   H25       1.0  0.38609  0.97898  0.74861  1.0000
  H   H26       1.0  0.61391  0.02102  0.25139  1.0000
  H   H27       1.0  0.21011  0.07758  0.73463  1.0000
  H   H28       1.0  0.78989  0.92242  0.26537  1.0000
  H   H29       1.0  0.39910  0.14823  0.74020  1.0000
  H   H30       1.0  0.60090  0.85177  0.25980  1.0000
  H   H31       1.0  0.32746  0.11666  0.40490  1.0000
  H   H32       1.0  0.67253  0.88334  0.59509  1.0000
  H   H33       1.0  0.17098  0.05245  0.53193  1.0000
  H   H34       1.0  0.82902  0.94755  0.46807  1.0000
  H   H35       1.0  0.35163  0.96001  0.54658  1.0000
  H   H36       1.0  0.64837  0.03999  0.45342  1.0000
  C   C1        1.0  0.38400  0.25375  0.08439  1.0000
  C   C2        1.0  0.61600  0.74625  0.91561  1.0000
  C   C3        1.0  0.35866  0.14370  0.04112  1.0000
  C   C4        1.0  0.64134  0.85630  0.95888  1.0000
  C   C5        1.0  0.18643  0.95148  0.09762  1.0000
  C   C6        1.0  0.81357  0.04852  0.90238  1.0000
  C   C7        1.0  0.05559  0.78661  0.02901  1.0000
  C   C8        1.0  0.94441  0.21339  0.97099  1.0000
  C   C9        1.0  0.05670  0.68576  0.88759  1.0000
  C   C10       1.0  0.94330  0.31424  0.11241  1.0000
  C   C11       1.0  0.21097  0.60700  0.92533  1.0000
  C   C12       1.0  0.78903  0.39301  0.07467  1.0000
  C   C13       1.0  0.06414  0.46539  0.33012  1.0000
  C   C14       1.0  0.93586  0.53461  0.66988  1.0000
  C   C15       1.0  0.88718  0.26890  0.46097  1.0000
  C   C16       1.0  0.11282  0.73109  0.53903  1.0000
  C   C17       1.0  0.79946  0.50834  0.40644  1.0000
  C   C18       1.0  0.20054  0.49165  0.59357  1.0000
  C   C19       1.0  0.45006  0.25924  0.50279  1.0000
  C   C20       1.0  0.54994  0.74076  0.49721  1.0000
  C   C21       1.0  0.33903  0.08359  0.70606  1.0000
  C   C22       1.0  0.66097  0.91641  0.29394  1.0000
  C   C23       1.0  0.30132  0.06371  0.50827  1.0000
  C   C24       1.0  0.69868  0.93629  0.49173  1.0000
  N   N1        1.0  0.26040  0.93557  0.99889  1.0000
  N   N2        1.0  0.73960  0.06443  0.00111  1.0000
  N   N3        1.0  0.19338  0.84942  0.96408  1.0000
  N   N4        1.0  0.80662  0.15058  0.03592  1.0000
  N   N5        1.0  0.98617  0.79598  0.13350  1.0000
  N   N6        1.0  0.01383  0.20402  0.86649  1.0000
  N   N7        1.0  0.05382  0.88033  0.16931  1.0000
  N   N8        1.0  0.94617  0.11967  0.83070  1.0000
  N   N9        1.0  0.92419  0.41617  0.39779  1.0000
  N   N10       1.0  0.07581  0.58383  0.60222  1.0000
  N   N11       1.0  0.36693  0.14161  0.56809  1.0000
  N   N12       1.0  0.63307  0.85839  0.43191  1.0000
  Cl  Cl1       1.0  0.40472  0.65781  0.25511  1.0000
  Cl  Cl2       1.0  0.59527  0.34219  0.74489  1.0000
  O   O1        1.0  0.33752  0.23558  0.19601  1.0000
  O   O2        1.0  0.66248  0.76442  0.80399  1.0000
  O   O3        1.0  0.45703  0.36500  0.00437  1.0000
  O   O4        1.0  0.54297  0.63500  0.99563  1.0000
  O   O5        1.0  0.24235  0.04338  0.13198  1.0000
  O   O6        1.0  0.75765  0.95662  0.86801  1.0000
  O   O7        1.0  0.97602  0.70697  0.99178  1.0000
  O   O8        1.0  0.02398  0.29303  0.00821  1.0000
  O   O9        1.0  0.30811  0.61042  0.83488  1.0000
  O   O10       1.0  0.69190  0.38959  0.16512  1.0000
  O   O11       1.0  0.22570  0.54388  0.04371  1.0000
  O   O12       1.0  0.77430  0.45612  0.95629  1.0000
  O   O13       1.0  0.17478  0.39202  0.31548  1.0000
  O   O14       1.0  0.82522  0.60798  0.68452  1.0000
  O   O15       1.0  0.48670  0.31367  0.38453  1.0000
  O   O16       1.0  0.51330  0.68633  0.61547  1.0000
