data_image0
_chemical_formula_structural       Al2H8C8Br6N4
_chemical_formula_sum              "Al2 H8 C8 Br6 N4"
_cell_length_a       6.53762
_cell_length_b       6.53737
_cell_length_c       11.8818
_cell_angle_alpha    77.2554
_cell_angle_beta     77.2527
_cell_angle_gamma    61.6616

_space_group_name_H-M_alt    "P 1"
_space_group_IT_number       1

loop_
  _space_group_symop_operation_xyz
  'x, y, z'

loop_
  _atom_site_type_symbol
  _atom_site_label
  _atom_site_symmetry_multiplicity
  _atom_site_fract_x
  _atom_site_fract_y
  _atom_site_fract_z
  _atom_site_occupancy
  Al  Al1       1.0  0.71042  0.28959  0.75000  1.0000
  Al  Al2       1.0  0.28958  0.71042  0.25000  1.0000
  H   H1        1.0  0.57695  0.64527  0.52940  1.0000
  H   H2        1.0  0.35477  0.42300  0.97061  1.0000
  H   H3        1.0  0.42304  0.35475  0.47058  1.0000
  H   H4        1.0  0.64530  0.57693  0.02941  1.0000
  H   H5        1.0  0.21947  0.21742  0.65262  1.0000
  H   H6        1.0  0.78266  0.78046  0.84738  1.0000
  H   H7        1.0  0.78049  0.78261  0.34736  1.0000
  H   H8        1.0  0.21740  0.21949  0.15263  1.0000
  C   C1        1.0  0.76672  0.57896  0.51626  1.0000
  C   C2        1.0  0.42106  0.23327  0.98375  1.0000
  C   C3        1.0  0.23321  0.42110  0.48373  1.0000
  C   C4        1.0  0.57897  0.76669  0.01627  1.0000
  C   C5        1.0  0.12038  0.34405  0.58463  1.0000
  C   C6        1.0  0.65599  0.87959  0.91537  1.0000
  C   C7        1.0  0.87962  0.65594  0.41539  1.0000
  C   C8        1.0  0.34406  0.12036  0.08463  1.0000
  Br  Br1       1.0  0.36200  0.63797  0.75000  1.0000
  Br  Br2       1.0  0.63796  0.36200  0.24999  1.0000
  Br  Br3       1.0  0.75039  0.02369  0.63248  1.0000
  Br  Br4       1.0  0.97634  0.24958  0.86752  1.0000
  Br  Br5       1.0  0.24956  0.97637  0.36752  1.0000
  Br  Br6       1.0  0.02365  0.75048  0.13248  1.0000
  N   N1        1.0  0.88613  0.42325  0.60142  1.0000
  N   N2        1.0  0.57681  0.11382  0.89857  1.0000
  N   N3        1.0  0.11384  0.57679  0.39857  1.0000
  N   N4        1.0  0.42323  0.88615  0.10143  1.0000
