data_image0
_chemical_formula_structural       Co2H36C52N8O8
_chemical_formula_sum              "Co2 H36 C52 N8 O8"
_cell_length_a       9.79554
_cell_length_b       10.0786
_cell_length_c       10.9265
_cell_angle_alpha    93.5806
_cell_angle_beta     91.2999
_cell_angle_gamma    95.462

_space_group_name_H-M_alt    "P 1"
_space_group_IT_number       1

loop_
  _space_group_symop_operation_xyz
  'x, y, z'

loop_
  _atom_site_type_symbol
  _atom_site_label
  _atom_site_symmetry_multiplicity
  _atom_site_fract_x
  _atom_site_fract_y
  _atom_site_fract_z
  _atom_site_occupancy
  Co  Co1       1.0  0.48752  0.31891  0.38129  1.0000
  Co  Co2       1.0  0.51247  0.68108  0.61871  1.0000
  H   H1        1.0  0.60273  0.52916  0.18811  1.0000
  H   H2        1.0  0.39728  0.47084  0.81189  1.0000
  H   H3        1.0  0.81712  0.25570  0.37222  1.0000
  H   H4        1.0  0.18288  0.74430  0.62778  1.0000
  H   H5        1.0  0.00246  0.40971  0.23821  1.0000
  H   H6        1.0  0.99754  0.59029  0.76179  1.0000
  H   H7        1.0  0.66918  0.60296  0.01673  1.0000
  H   H8        1.0  0.33082  0.39706  0.98329  1.0000
  H   H9        1.0  0.74661  0.77008  0.87863  1.0000
  H   H10       1.0  0.25339  0.22993  0.12138  1.0000
  H   H11       1.0  0.15577  0.78665  0.04035  1.0000
  H   H12       1.0  0.84424  0.21335  0.95965  1.0000
  H   H13       1.0  0.07710  0.61906  0.17900  1.0000
  H   H14       1.0  0.92291  0.38094  0.82100  1.0000
  H   H15       1.0  0.81648  0.88460  0.75364  1.0000
  H   H16       1.0  0.18351  0.11539  0.24637  1.0000
  H   H17       1.0  0.90128  0.04276  0.60464  1.0000
  H   H18       1.0  0.09872  0.95724  0.39536  1.0000
  H   H19       1.0  0.29827  0.08849  0.78796  1.0000
  H   H20       1.0  0.70172  0.91151  0.21203  1.0000
  H   H21       1.0  0.21464  0.93142  0.93793  1.0000
  H   H22       1.0  0.78536  0.06857  0.06206  1.0000
  H   H23       1.0  0.34763  0.08190  0.55535  1.0000
  H   H24       1.0  0.65236  0.91810  0.44464  1.0000
  H   H25       1.0  0.00087  0.30058  0.59392  1.0000
  H   H26       1.0  0.99912  0.69943  0.40609  1.0000
  H   H27       1.0  0.18678  0.42878  0.43979  1.0000
  H   H28       1.0  0.81322  0.57122  0.56021  1.0000
  H   H29       1.0  0.43209  0.85338  0.41293  1.0000
  H   H30       1.0  0.56789  0.14662  0.58706  1.0000
  H   H31       1.0  0.41619  0.99708  0.05213  1.0000
  H   H32       1.0  0.58381  0.00292  0.94787  1.0000
  H   H33       1.0  0.39705  0.76126  0.95938  1.0000
  H   H34       1.0  0.60296  0.23873  0.04061  1.0000
  H   H35       1.0  0.38618  0.57223  0.09916  1.0000
  H   H36       1.0  0.61383  0.42777  0.90084  1.0000
  C   C1        1.0  0.68455  0.47363  0.21912  1.0000
  C   C2        1.0  0.31544  0.52637  0.78088  1.0000
  C   C3        1.0  0.80038  0.33683  0.31488  1.0000
  C   C4        1.0  0.19963  0.66317  0.68512  1.0000
  C   C5        1.0  0.89356  0.41331  0.25037  1.0000
  C   C6        1.0  0.10644  0.58669  0.74963  1.0000
  C   C7        1.0  0.86697  0.59799  0.10818  1.0000
  C   C8        1.0  0.13303  0.40202  0.89182  1.0000
  C   C9        1.0  0.77643  0.64292  0.02259  1.0000
  C   C10       1.0  0.22358  0.35708  0.97742  1.0000
  C   C11       1.0  0.82168  0.73892  0.94312  1.0000
  C   C12       1.0  0.17832  0.26108  0.05688  1.0000
  C   C13       1.0  0.95934  0.79392  0.94589  1.0000
  C   C14       1.0  0.04066  0.20608  0.05411  1.0000
  C   C15       1.0  0.04836  0.74785  0.03319  1.0000
  C   C16       1.0  0.95164  0.25215  0.96681  1.0000
  C   C17       1.0  0.00406  0.65155  0.11307  1.0000
  C   C18       1.0  0.99595  0.34845  0.88693  1.0000
  C   C19       1.0  0.00883  0.89282  0.85813  1.0000
  C   C20       1.0  0.99117  0.10718  0.14187  1.0000
  C   C21       1.0  0.92246  0.92837  0.76314  1.0000
  C   C22       1.0  0.07753  0.07163  0.23686  1.0000
  C   C23       1.0  0.96985  0.01795  0.67803  1.0000
  C   C24       1.0  0.03015  0.98205  0.32198  1.0000
  C   C25       1.0  0.10604  0.07397  0.68568  1.0000
  C   C26       1.0  0.89396  0.92603  0.31432  1.0000
  C   C27       1.0  0.19327  0.04186  0.78006  1.0000
  C   C28       1.0  0.80673  0.95814  0.21993  1.0000
  C   C29       1.0  0.14476  0.95275  0.86456  1.0000
  C   C30       1.0  0.85524  0.04725  0.13543  1.0000
  C   C31       1.0  0.28199  0.16166  0.54415  1.0000
  C   C32       1.0  0.71800  0.83834  0.45584  1.0000
  C   C33       1.0  0.09908  0.27522  0.56095  1.0000
  C   C34       1.0  0.90093  0.72478  0.43905  1.0000
  C   C35       1.0  0.19178  0.33693  0.48524  1.0000
  C   C36       1.0  0.80822  0.66306  0.51478  1.0000
  C   C37       1.0  0.40675  0.70123  0.26398  1.0000
  C   C38       1.0  0.59325  0.29877  0.73601  1.0000
  C   C39       1.0  0.42391  0.83333  0.31378  1.0000
  C   C40       1.0  0.57608  0.16668  0.68622  1.0000
  C   C41       1.0  0.43161  0.93911  0.23671  1.0000
  C   C42       1.0  0.56839  0.06089  0.76328  1.0000
  C   C43       1.0  0.41605  0.91266  0.10953  1.0000
  C   C44       1.0  0.58393  0.08734  0.89046  1.0000
  C   C45       1.0  0.40300  0.78123  0.05881  1.0000
  C   C46       1.0  0.59701  0.21877  0.94118  1.0000
  C   C47       1.0  0.39835  0.67573  0.13608  1.0000
  C   C48       1.0  0.60167  0.32427  0.86392  1.0000
  C   C49       1.0  0.40778  0.58937  0.34795  1.0000
  C   C50       1.0  0.59222  0.41063  0.65204  1.0000
  C   C51       1.0  0.46256  0.07932  0.28891  1.0000
  C   C52       1.0  0.53744  0.92068  0.71109  1.0000
  N   N1        1.0  0.67057  0.37561  0.29478  1.0000
  N   N2        1.0  0.32943  0.62438  0.70522  1.0000
  N   N3        1.0  0.81852  0.49992  0.18866  1.0000
  N   N4        1.0  0.18148  0.50009  0.81134  1.0000
  N   N5        1.0  0.15796  0.16435  0.59896  1.0000
  N   N6        1.0  0.84203  0.83566  0.40104  1.0000
  N   N7        1.0  0.30503  0.26533  0.47514  1.0000
  N   N8        1.0  0.69497  0.73467  0.52485  1.0000
  O   O1        1.0  0.41496  0.61820  0.46282  1.0000
  O   O2        1.0  0.58503  0.38181  0.53718  1.0000
  O   O3        1.0  0.40203  0.47010  0.29961  1.0000
  O   O4        1.0  0.59798  0.52990  0.70040  1.0000
  O   O5        1.0  0.53780  0.10327  0.38598  1.0000
  O   O6        1.0  0.46220  0.89673  0.61403  1.0000
  O   O7        1.0  0.41305  0.17403  0.23534  1.0000
  O   O8        1.0  0.58695  0.82598  0.76466  1.0000
