data_image0
_chemical_formula_structural       Ag4H22C48N6O8F12
_chemical_formula_sum              "Ag4 H22 C48 N6 O8 F12"
_cell_length_a       7.02328
_cell_length_b       11.1219
_cell_length_c       15.2936
_cell_angle_alpha    89.9998
_cell_angle_beta     90.0002
_cell_angle_gamma    94.9026

_space_group_name_H-M_alt    "P 1"
_space_group_IT_number       1

loop_
  _space_group_symop_operation_xyz
  'x, y, z'

loop_
  _atom_site_type_symbol
  _atom_site_label
  _atom_site_symmetry_multiplicity
  _atom_site_fract_x
  _atom_site_fract_y
  _atom_site_fract_z
  _atom_site_occupancy
  Ag  Ag1       1.0  0.25000  0.00001  0.74199  1.0000
  Ag  Ag2       1.0  0.75001  0.00000  0.25801  1.0000
  Ag  Ag3       1.0  0.24999  1.00000  0.55231  1.0000
  Ag  Ag4       1.0  0.75000  1.00000  0.44769  1.0000
  H   H1        1.0  0.82794  0.61977  0.86518  1.0000
  H   H2        1.0  0.67207  0.38023  0.86518  1.0000
  H   H3        1.0  0.17208  0.38024  0.13482  1.0000
  H   H4        1.0  0.32794  0.61977  0.13482  1.0000
  H   H5        1.0  0.91747  0.73706  0.18186  1.0000
  H   H6        1.0  0.58254  0.26294  0.18185  1.0000
  H   H7        1.0  0.08253  0.26294  0.81815  1.0000
  H   H8        1.0  0.41747  0.73706  0.81815  1.0000
  H   H9        1.0  0.01305  0.88162  0.06426  1.0000
  H   H10       1.0  0.48696  0.11838  0.06426  1.0000
  H   H11       1.0  0.98696  0.11838  0.93574  1.0000
  H   H12       1.0  0.51305  0.88162  0.93574  1.0000
  H   H13       1.0  0.90739  0.34160  0.24518  1.0000
  H   H14       1.0  0.59261  0.65841  0.24518  1.0000
  H   H15       1.0  0.09261  0.65840  0.75482  1.0000
  H   H16       1.0  0.40739  0.34159  0.75482  1.0000
  H   H17       1.0  0.90577  0.34132  0.40749  1.0000
  H   H18       1.0  0.59422  0.65868  0.40749  1.0000
  H   H19       1.0  0.09422  0.65867  0.59251  1.0000
  H   H20       1.0  0.40578  0.34131  0.59252  1.0000
  H   H21       1.0  0.74999  0.50000  0.48888  1.0000
  H   H22       1.0  0.25000  0.49999  0.51112  1.0000
  C   C1        1.0  0.98053  0.84446  0.89251  1.0000
  C   C2        1.0  0.51949  0.15554  0.89251  1.0000
  C   C3        1.0  0.01949  0.15554  0.10750  1.0000
  C   C4        1.0  0.48053  0.84446  0.10750  1.0000
  C   C5        1.0  0.92573  0.75898  0.95829  1.0000
  C   C6        1.0  0.57428  0.24103  0.95829  1.0000
  C   C7        1.0  0.07429  0.24103  0.04171  1.0000
  C   C8        1.0  0.42572  0.75898  0.04171  1.0000
  C   C9        1.0  0.84655  0.64335  0.93396  1.0000
  C   C10       1.0  0.65346  0.35666  0.93396  1.0000
  C   C11       1.0  0.15347  0.35666  0.06604  1.0000
  C   C12       1.0  0.34655  0.64335  0.06604  1.0000
  C   C13       1.0  0.79165  0.56168  0.99981  1.0000
  C   C14       1.0  0.70835  0.43833  0.99981  1.0000
  C   C15       1.0  0.20836  0.43834  0.00019  1.0000
  C   C16       1.0  0.29165  0.56168  0.00019  1.0000
  C   C17       1.0  0.81592  0.59650  0.08921  1.0000
  C   C18       1.0  0.68408  0.40350  0.08921  1.0000
  C   C19       1.0  0.18409  0.40350  0.91079  1.0000
  C   C20       1.0  0.31592  0.59651  0.91079  1.0000
  C   C21       1.0  0.89692  0.71065  0.11371  1.0000
  C   C22       1.0  0.60309  0.28936  0.11371  1.0000
  C   C23       1.0  0.10309  0.28936  0.88629  1.0000
  C   C24       1.0  0.39692  0.71064  0.88629  1.0000
  C   C25       1.0  0.95066  0.79161  0.04738  1.0000
  C   C26       1.0  0.54935  0.20840  0.04738  1.0000
  C   C27       1.0  0.04935  0.20840  0.95263  1.0000
  C   C28       1.0  0.45066  0.79161  0.95262  1.0000
  C   C29       1.0  0.75000  0.50000  0.23553  1.0000
  C   C30       1.0  0.25000  0.50000  0.76447  1.0000
  C   C31       1.0  0.83872  0.41087  0.28084  1.0000
  C   C32       1.0  0.66128  0.58912  0.28084  1.0000
  C   C33       1.0  0.16127  0.58912  0.71916  1.0000
  C   C34       1.0  0.33872  0.41087  0.71916  1.0000
  C   C35       1.0  0.83765  0.41095  0.37202  1.0000
  C   C36       1.0  0.66235  0.58904  0.37202  1.0000
  C   C37       1.0  0.16234  0.58904  0.62798  1.0000
  C   C38       1.0  0.33765  0.41095  0.62798  1.0000
  C   C39       1.0  0.74999  0.49999  0.41770  1.0000
  C   C40       1.0  0.24999  0.49999  0.58230  1.0000
  C   C41       1.0  0.97063  0.15648  0.63486  1.0000
  C   C42       1.0  0.52935  0.84352  0.63486  1.0000
  C   C43       1.0  0.02936  0.84352  0.36512  1.0000
  C   C44       1.0  0.47063  0.15647  0.36512  1.0000
  C   C45       1.0  0.79562  0.23326  0.63682  1.0000
  C   C46       1.0  0.70437  0.76674  0.63683  1.0000
  C   C47       1.0  0.20438  0.76674  0.36318  1.0000
  C   C48       1.0  0.29561  0.23325  0.36317  1.0000
  N   N1        1.0  0.02472  0.91557  0.83829  1.0000
  N   N2        1.0  0.47529  0.08443  0.83828  1.0000
  N   N3        1.0  0.97530  0.08444  0.16172  1.0000
  N   N4        1.0  0.52472  0.91557  0.16171  1.0000
  N   N5        1.0  0.75000  0.50000  0.14208  1.0000
  N   N6        1.0  0.25000  0.50000  0.85792  1.0000
  O   O1        1.0  0.06123  0.15180  0.70501  1.0000
  O   O2        1.0  0.43876  0.84820  0.70501  1.0000
  O   O3        1.0  0.93879  0.84820  0.29500  1.0000
  O   O4        1.0  0.56122  0.15180  0.29500  1.0000
  O   O5        1.0  0.99703  0.10514  0.56232  1.0000
  O   O6        1.0  0.50296  0.89485  0.56233  1.0000
  O   O7        1.0  0.00296  0.89485  0.43768  1.0000
  O   O8        1.0  0.49703  0.10514  0.43768  1.0000
  F   F1        1.0  0.79887  0.30948  0.70658  1.0000
  F   F2        1.0  0.70111  0.69051  0.70658  1.0000
  F   F3        1.0  0.20112  0.69051  0.29342  1.0000
  F   F4        1.0  0.29886  0.30947  0.29341  1.0000
  F   F5        1.0  0.78356  0.30139  0.56359  1.0000
  F   F6        1.0  0.71643  0.69861  0.56359  1.0000
  F   F7        1.0  0.21644  0.69861  0.43641  1.0000
  F   F8        1.0  0.28356  0.30139  0.43641  1.0000
  F   F9        1.0  0.63061  0.15879  0.64264  1.0000
  F   F10       1.0  0.86937  0.84120  0.64264  1.0000
  F   F11       1.0  0.36939  0.84120  0.35736  1.0000
  F   F12       1.0  0.13061  0.15878  0.35736  1.0000
