data_image0
_chemical_formula_structural       H28Au4C24N4Cl4
_chemical_formula_sum              "H28 Au4 C24 N4 Cl4"
_cell_length_a       8.23157
_cell_length_b       8.23158
_cell_length_c       12.3295
_cell_angle_alpha    92.7403
_cell_angle_beta     92.7405
_cell_angle_gamma    118.297

_space_group_name_H-M_alt    "P 1"
_space_group_IT_number       1

loop_
  _space_group_symop_operation_xyz
  'x, y, z'

loop_
  _atom_site_type_symbol
  _atom_site_label
  _atom_site_symmetry_multiplicity
  _atom_site_fract_x
  _atom_site_fract_y
  _atom_site_fract_z
  _atom_site_occupancy
  H   H1        1.0  0.93473  0.28992  0.40371  1.0000
  H   H2        1.0  0.71008  0.06527  0.09629  1.0000
  H   H3        1.0  0.06527  0.71008  0.59628  1.0000
  H   H4        1.0  0.28992  0.93473  0.90371  1.0000
  H   H5        1.0  0.51145  0.32980  0.57900  1.0000
  H   H6        1.0  0.67020  0.48855  0.92100  1.0000
  H   H7        1.0  0.48855  0.67020  0.42100  1.0000
  H   H8        1.0  0.32980  0.51145  0.07900  1.0000
  H   H9        1.0  0.50972  0.09128  0.69450  1.0000
  H   H10       1.0  0.90872  0.49028  0.80550  1.0000
  H   H11       1.0  0.49028  0.90872  0.30550  1.0000
  H   H12       1.0  0.09128  0.50972  0.19450  1.0000
  H   H13       1.0  0.71882  0.95288  0.65611  1.0000
  H   H14       1.0  0.04712  0.28118  0.84389  1.0000
  H   H15       1.0  0.28118  0.04712  0.34388  1.0000
  H   H16       1.0  0.95288  0.71882  0.15611  1.0000
  H   H17       1.0  0.59300  0.42304  0.36026  1.0000
  H   H18       1.0  0.57696  0.40700  0.13974  1.0000
  H   H19       1.0  0.40700  0.57696  0.63974  1.0000
  H   H20       1.0  0.42304  0.59300  0.86026  1.0000
  H   H21       1.0  0.83363  0.50523  0.34863  1.0000
  H   H22       1.0  0.49477  0.16637  0.15137  1.0000
  H   H23       1.0  0.16637  0.49477  0.65137  1.0000
  H   H24       1.0  0.50522  0.83363  0.84863  1.0000
  H   H25       1.0  0.75761  0.60036  0.45472  1.0000
  H   H26       1.0  0.39964  0.24239  0.04528  1.0000
  H   H27       1.0  0.24239  0.39964  0.54528  1.0000
  H   H28       1.0  0.60036  0.75761  0.95472  1.0000
  Au  Au1       1.0  0.00000  1.00000  0.50000  1.0000
  Au  Au2       1.0  0.00000  0.00000  0.00000  1.0000
  Au  Au3       1.0  0.95640  0.04360  0.25000  1.0000
  Au  Au4       1.0  0.04361  0.95640  0.75000  1.0000
  C   C1        1.0  0.83649  0.24913  0.46630  1.0000
  C   C2        1.0  0.75087  0.16352  0.03370  1.0000
  C   C3        1.0  0.16351  0.75087  0.53370  1.0000
  C   C4        1.0  0.24913  0.83649  0.96630  1.0000
  C   C5        1.0  0.72197  0.32916  0.47983  1.0000
  C   C6        1.0  0.67083  0.27803  0.02018  1.0000
  C   C7        1.0  0.27803  0.67083  0.52017  1.0000
  C   C8        1.0  0.32916  0.72197  0.97982  1.0000
  C   C9        1.0  0.60257  0.27058  0.56385  1.0000
  C   C10       1.0  0.72942  0.39744  0.93615  1.0000
  C   C11       1.0  0.39744  0.72942  0.43615  1.0000
  C   C12       1.0  0.27058  0.60257  0.06385  1.0000
  C   C13       1.0  0.60096  0.13626  0.62862  1.0000
  C   C14       1.0  0.86374  0.39905  0.87138  1.0000
  C   C15       1.0  0.39904  0.86374  0.37138  1.0000
  C   C16       1.0  0.13626  0.60096  0.12862  1.0000
  C   C17       1.0  0.71648  0.06027  0.60879  1.0000
  C   C18       1.0  0.93973  0.28352  0.89121  1.0000
  C   C19       1.0  0.28352  0.93973  0.39121  1.0000
  C   C20       1.0  0.06027  0.71648  0.10879  1.0000
  C   C21       1.0  0.72740  0.47151  0.40675  1.0000
  C   C22       1.0  0.52849  0.27260  0.09325  1.0000
  C   C23       1.0  0.27260  0.52849  0.59325  1.0000
  C   C24       1.0  0.47151  0.72740  0.90675  1.0000
  N   N1        1.0  0.83308  0.11665  0.52862  1.0000
  N   N2        1.0  0.88335  0.16692  0.97138  1.0000
  N   N3        1.0  0.16692  0.88335  0.47138  1.0000
  N   N4        1.0  0.11665  0.83308  0.02862  1.0000
  Cl  Cl1       1.0  0.68430  0.77408  0.20882  1.0000
  Cl  Cl2       1.0  0.22592  0.31570  0.29118  1.0000
  Cl  Cl3       1.0  0.31570  0.22592  0.79118  1.0000
  Cl  Cl4       1.0  0.77408  0.68430  0.70882  1.0000
