data_image0
_chemical_formula_structural       K8Be4H24C32O36
_chemical_formula_sum              "K8 Be4 H24 C32 O36"
_cell_length_a       8.06276
_cell_length_b       12.615
_cell_length_c       12.8551
_cell_angle_alpha    89.9999
_cell_angle_beta     90
_cell_angle_gamma    89.9999

_space_group_name_H-M_alt    "P 1"
_space_group_IT_number       1

loop_
  _space_group_symop_operation_xyz
  'x, y, z'

loop_
  _atom_site_type_symbol
  _atom_site_label
  _atom_site_symmetry_multiplicity
  _atom_site_fract_x
  _atom_site_fract_y
  _atom_site_fract_z
  _atom_site_occupancy
  K   K1        1.0  0.94779  0.85613  0.94335  1.0000
  K   K2        1.0  0.55222  0.14387  0.94336  1.0000
  K   K3        1.0  0.55221  0.35613  0.55665  1.0000
  K   K4        1.0  0.94779  0.64387  0.55665  1.0000
  K   K5        1.0  0.05221  0.14387  0.05665  1.0000
  K   K6        1.0  0.44779  0.85613  0.05664  1.0000
  K   K7        1.0  0.44779  0.64387  0.44335  1.0000
  K   K8        1.0  0.05221  0.35613  0.44335  1.0000
  Be  Be1       1.0  0.25000  0.00000  0.75705  1.0000
  Be  Be2       1.0  0.25000  0.50000  0.74295  1.0000
  Be  Be3       1.0  0.75000  1.00000  0.24295  1.0000
  Be  Be4       1.0  0.75000  0.50000  0.25705  1.0000
  H   H1        1.0  0.95740  0.15581  0.55022  1.0000
  H   H2        1.0  0.54260  0.84419  0.55022  1.0000
  H   H3        1.0  0.54260  0.65581  0.94978  1.0000
  H   H4        1.0  0.95740  0.34419  0.94978  1.0000
  H   H5        1.0  0.04260  0.84419  0.44978  1.0000
  H   H6        1.0  0.45740  0.15581  0.44978  1.0000
  H   H7        1.0  0.45740  0.34419  0.05022  1.0000
  H   H8        1.0  0.04261  0.65581  0.05022  1.0000
  H   H9        1.0  0.78459  0.10908  0.68917  1.0000
  H   H10       1.0  0.71541  0.89092  0.68917  1.0000
  H   H11       1.0  0.71541  0.60908  0.81083  1.0000
  H   H12       1.0  0.78459  0.39092  0.81083  1.0000
  H   H13       1.0  0.21541  0.89092  0.31083  1.0000
  H   H14       1.0  0.28459  0.10908  0.31083  1.0000
  H   H15       1.0  0.28459  0.39092  0.18917  1.0000
  H   H16       1.0  0.21541  0.60908  0.18917  1.0000
  H   H17       1.0  0.03936  0.69538  0.77792  1.0000
  H   H18       1.0  0.46064  0.30462  0.77792  1.0000
  H   H19       1.0  0.46064  0.19538  0.72208  1.0000
  H   H20       1.0  0.03936  0.80462  0.72208  1.0000
  H   H21       1.0  0.96064  0.30462  0.22208  1.0000
  H   H22       1.0  0.53936  0.69538  0.22208  1.0000
  H   H23       1.0  0.53936  0.80462  0.27792  1.0000
  H   H24       1.0  0.96064  0.19538  0.27792  1.0000
  C   C1        1.0  0.19993  0.15455  0.62372  1.0000
  C   C2        1.0  0.30007  0.84545  0.62372  1.0000
  C   C3        1.0  0.30007  0.65455  0.87628  1.0000
  C   C4        1.0  0.19993  0.34545  0.87628  1.0000
  C   C5        1.0  0.80007  0.84545  0.37628  1.0000
  C   C6        1.0  0.69993  0.15454  0.37628  1.0000
  C   C7        1.0  0.69993  0.34546  0.12372  1.0000
  C   C8        1.0  0.80007  0.65454  0.12372  1.0000
  C   C9        1.0  0.01787  0.13334  0.62302  1.0000
  C   C10       1.0  0.48213  0.86666  0.62302  1.0000
  C   C11       1.0  0.48213  0.63334  0.87698  1.0000
  C   C12       1.0  0.01787  0.36666  0.87698  1.0000
  C   C13       1.0  0.98213  0.86666  0.37698  1.0000
  C   C14       1.0  0.51787  0.13334  0.37698  1.0000
  C   C15       1.0  0.51787  0.36666  0.12302  1.0000
  C   C16       1.0  0.98213  0.63334  0.12302  1.0000
  C   C17       1.0  0.91828  0.10519  0.70239  1.0000
  C   C18       1.0  0.58172  0.89481  0.70239  1.0000
  C   C19       1.0  0.58172  0.60519  0.79761  1.0000
  C   C20       1.0  0.91828  0.39481  0.79761  1.0000
  C   C21       1.0  0.08172  0.89481  0.29761  1.0000
  C   C22       1.0  0.41828  0.10519  0.29761  1.0000
  C   C23       1.0  0.41828  0.39481  0.20239  1.0000
  C   C24       1.0  0.08172  0.60519  0.20239  1.0000
  C   C25       1.0  0.96109  0.07801  0.81203  1.0000
  C   C26       1.0  0.53891  0.92200  0.81203  1.0000
  C   C27       1.0  0.53891  0.57801  0.68797  1.0000
  C   C28       1.0  0.96109  0.42199  0.68797  1.0000
  C   C29       1.0  0.03891  0.92199  0.18797  1.0000
  C   C30       1.0  0.46109  0.07801  0.18797  1.0000
  C   C31       1.0  0.46109  0.42200  0.31203  1.0000
  C   C32       1.0  0.03891  0.57800  0.31203  1.0000
  O   O1        1.0  0.29847  0.10211  0.68525  1.0000
  O   O2        1.0  0.20153  0.89789  0.68525  1.0000
  O   O3        1.0  0.20153  0.60211  0.81475  1.0000
  O   O4        1.0  0.29847  0.39789  0.81475  1.0000
  O   O5        1.0  0.70153  0.89789  0.31475  1.0000
  O   O6        1.0  0.79847  0.10211  0.31475  1.0000
  O   O7        1.0  0.79847  0.39789  0.18525  1.0000
  O   O8        1.0  0.70153  0.60211  0.18525  1.0000
  O   O9        1.0  0.09818  0.02837  0.83367  1.0000
  O   O10       1.0  0.40182  0.97163  0.83367  1.0000
  O   O11       1.0  0.40182  0.52837  0.66633  1.0000
  O   O12       1.0  0.09818  0.47163  0.66633  1.0000
  O   O13       1.0  0.90182  0.97163  0.16633  1.0000
  O   O14       1.0  0.59818  0.02837  0.16633  1.0000
  O   O15       1.0  0.59818  0.47163  0.33367  1.0000
  O   O16       1.0  0.90182  0.52837  0.33367  1.0000
  O   O17       1.0  0.25179  0.22607  0.56442  1.0000
  O   O18       1.0  0.24821  0.77393  0.56443  1.0000
  O   O19       1.0  0.24821  0.72607  0.93557  1.0000
  O   O20       1.0  0.25179  0.27393  0.93558  1.0000
  O   O21       1.0  0.74821  0.77393  0.43557  1.0000
  O   O22       1.0  0.75178  0.22607  0.43557  1.0000
  O   O23       1.0  0.75178  0.27393  0.06443  1.0000
  O   O24       1.0  0.74822  0.72607  0.06443  1.0000
  O   O25       1.0  0.85883  0.10084  0.88165  1.0000
  O   O26       1.0  0.64117  0.89917  0.88165  1.0000
  O   O27       1.0  0.64117  0.60084  0.61835  1.0000
  O   O28       1.0  0.85883  0.39916  0.61835  1.0000
  O   O29       1.0  0.14117  0.89916  0.11835  1.0000
  O   O30       1.0  0.35883  0.10083  0.11835  1.0000
  O   O31       1.0  0.35883  0.39917  0.38165  1.0000
  O   O32       1.0  0.14117  0.60083  0.38165  1.0000
  O   O33       1.0  0.96338  0.75000  0.75000  1.0000
  O   O34       1.0  0.53662  0.25000  0.75000  1.0000
  O   O35       1.0  0.03662  0.25000  0.25000  1.0000
  O   O36       1.0  0.46338  0.75000  0.25000  1.0000
