data_image0
_chemical_formula_structural       K2H48C36N6O4
_chemical_formula_sum              "K2 H48 C36 N6 O4"
_cell_length_a       7.51964
_cell_length_b       10.4656
_cell_length_c       13.1871
_cell_angle_alpha    109.046
_cell_angle_beta     89.7241
_cell_angle_gamma    107.737

_space_group_name_H-M_alt    "P 1"
_space_group_IT_number       1

loop_
  _space_group_symop_operation_xyz
  'x, y, z'

loop_
  _atom_site_type_symbol
  _atom_site_label
  _atom_site_symmetry_multiplicity
  _atom_site_fract_x
  _atom_site_fract_y
  _atom_site_fract_z
  _atom_site_occupancy
  K   K1        1.0  0.21392  0.97405  0.47557  1.0000
  K   K2        1.0  0.78608  0.02594  0.52442  1.0000
  H   H1        1.0  0.03969  0.40375  0.38779  1.0000
  H   H2        1.0  0.96031  0.59625  0.61221  1.0000
  H   H3        1.0  0.93836  0.41942  0.21468  1.0000
  H   H4        1.0  0.06165  0.58058  0.78532  1.0000
  H   H5        1.0  0.88126  0.97762  0.05396  1.0000
  H   H6        1.0  0.11873  0.02238  0.94604  1.0000
  H   H7        1.0  0.98041  0.96101  0.22740  1.0000
  H   H8        1.0  0.01959  0.03898  0.77260  1.0000
  H   H9        1.0  0.41969  0.48358  0.57857  1.0000
  H   H10       1.0  0.58032  0.51644  0.42144  1.0000
  H   H11       1.0  0.61235  0.68219  0.73643  1.0000
  H   H12       1.0  0.38765  0.31781  0.26358  1.0000
  H   H13       1.0  0.31230  0.47529  0.94822  1.0000
  H   H14       1.0  0.68770  0.52470  0.05178  1.0000
  H   H15       1.0  0.12356  0.27350  0.78937  1.0000
  H   H16       1.0  0.87644  0.72650  0.21063  1.0000
  H   H17       1.0  0.83422  0.31662  0.02782  1.0000
  H   H18       1.0  0.16578  0.68337  0.97218  1.0000
  H   H19       1.0  0.71363  0.12987  0.97775  1.0000
  H   H20       1.0  0.28636  0.87012  0.02225  1.0000
  H   H21       1.0  0.95103  0.19510  0.95660  1.0000
  H   H22       1.0  0.04897  0.80490  0.04340  1.0000
  H   H23       1.0  0.55997  0.70056  0.02562  1.0000
  H   H24       1.0  0.44004  0.29944  0.97439  1.0000
  H   H25       1.0  0.57259  0.81846  0.95247  1.0000
  H   H26       1.0  0.42742  0.18154  0.04753  1.0000
  H   H27       1.0  0.74318  0.73173  0.94179  1.0000
  H   H28       1.0  0.25682  0.26826  0.05821  1.0000
  H   H29       1.0  0.71978  0.32231  0.43201  1.0000
  H   H30       1.0  0.28021  0.67769  0.56800  1.0000
  H   H31       1.0  0.47505  0.29347  0.44886  1.0000
  H   H32       1.0  0.52495  0.70653  0.55115  1.0000
  H   H33       1.0  0.62690  0.28766  0.54990  1.0000
  H   H34       1.0  0.37310  0.71234  0.45010  1.0000
  H   H35       1.0  0.38674  0.09073  0.28052  1.0000
  H   H36       1.0  0.61326  0.90927  0.71948  1.0000
  H   H37       1.0  0.63145  0.12656  0.26249  1.0000
  H   H38       1.0  0.36856  0.87344  0.73751  1.0000
  H   H39       1.0  0.46598  0.87937  0.15970  1.0000
  H   H40       1.0  0.53403  0.12063  0.84031  1.0000
  H   H41       1.0  0.60916  0.88343  0.26869  1.0000
  H   H42       1.0  0.39084  0.11657  0.73131  1.0000
  H   H43       1.0  0.23311  0.65041  0.14726  1.0000
  H   H44       1.0  0.76689  0.34959  0.85273  1.0000
  H   H45       1.0  0.15449  0.63259  0.27179  1.0000
  H   H46       1.0  0.84551  0.36740  0.72821  1.0000
  H   H47       1.0  0.39239  0.64384  0.24510  1.0000
  H   H48       1.0  0.60761  0.35616  0.75489  1.0000
  C   C1        1.0  0.01989  0.18130  0.31949  1.0000
  C   C2        1.0  0.98011  0.81870  0.68051  1.0000
  C   C3        1.0  0.00815  0.31108  0.31412  1.0000
  C   C4        1.0  0.99186  0.68892  0.68588  1.0000
  C   C5        1.0  0.95273  0.31947  0.21641  1.0000
  C   C6        1.0  0.04727  0.68053  0.78358  1.0000
  C   C7        1.0  0.90739  0.20115  0.12073  1.0000
  C   C8        1.0  0.09261  0.79885  0.87926  1.0000
  C   C9        1.0  0.91824  0.07204  0.12661  1.0000
  C   C10       1.0  0.08176  0.92796  0.87339  1.0000
  C   C11       1.0  0.97358  0.06204  0.22342  1.0000
  C   C12       1.0  0.02642  0.93796  0.77658  1.0000
  C   C13       1.0  0.25610  0.36499  0.67246  1.0000
  C   C14       1.0  0.74390  0.63502  0.32754  1.0000
  C   C15       1.0  0.39536  0.48300  0.65984  1.0000
  C   C16       1.0  0.60464  0.51701  0.34016  1.0000
  C   C17       1.0  0.50183  0.59449  0.74882  1.0000
  C   C18       1.0  0.49817  0.40552  0.25119  1.0000
  C   C19       1.0  0.47458  0.59517  0.85442  1.0000
  C   C20       1.0  0.52542  0.40483  0.14558  1.0000
  C   C21       1.0  0.33654  0.47795  0.86708  1.0000
  C   C22       1.0  0.66346  0.52205  0.13292  1.0000
  C   C23       1.0  0.23010  0.36421  0.77817  1.0000
  C   C24       1.0  0.76991  0.63579  0.22183  1.0000
  C   C25       1.0  0.84881  0.21161  0.01562  1.0000
  C   C26       1.0  0.15118  0.78838  0.98438  1.0000
  C   C27       1.0  0.59299  0.71727  0.94886  1.0000
  C   C28       1.0  0.40701  0.28273  0.05115  1.0000
  C   C29       1.0  0.59782  0.26269  0.46298  1.0000
  C   C30       1.0  0.40217  0.73731  0.53703  1.0000
  C   C31       1.0  0.51523  0.06753  0.29769  1.0000
  C   C32       1.0  0.48478  0.93247  0.70231  1.0000
  C   C33       1.0  0.48520  0.90978  0.24838  1.0000
  C   C34       1.0  0.51480  0.09022  0.75162  1.0000
  C   C35       1.0  0.27453  0.68168  0.23437  1.0000
  C   C36       1.0  0.72547  0.31832  0.76563  1.0000
  N   N1        1.0  0.06189  0.15758  0.41350  1.0000
  N   N2        1.0  0.93812  0.84242  0.58650  1.0000
  N   N3        1.0  0.13837  0.27399  0.49654  1.0000
  N   N4        1.0  0.86164  0.72602  0.50346  1.0000
  N   N5        1.0  0.14999  0.24629  0.58612  1.0000
  N   N6        1.0  0.85002  0.75372  0.41388  1.0000
  O   O1        1.0  0.55903  0.11180  0.41247  1.0000
  O   O2        1.0  0.44097  0.88820  0.58753  1.0000
  O   O3        1.0  0.32217  0.83273  0.28564  1.0000
  O   O4        1.0  0.67783  0.16726  0.71436  1.0000
