data_image0
_chemical_formula_structural       Cu3H20C12N22O2
_chemical_formula_sum              "Cu3 H20 C12 N22 O2"
_cell_length_a       7.81841
_cell_length_b       8.5173
_cell_length_c       10.8059
_cell_angle_alpha    67.8171
_cell_angle_beta     72.7062
_cell_angle_gamma    87.1299

_space_group_name_H-M_alt    "P 1"
_space_group_IT_number       1

loop_
  _space_group_symop_operation_xyz
  'x, y, z'

loop_
  _atom_site_type_symbol
  _atom_site_label
  _atom_site_symmetry_multiplicity
  _atom_site_fract_x
  _atom_site_fract_y
  _atom_site_fract_z
  _atom_site_occupancy
  Cu  Cu1       1.0  0.49751  0.49851  0.00103  1.0000
  Cu  Cu2       1.0  0.10395  0.35637  0.10946  1.0000
  Cu  Cu3       1.0  0.89813  0.64407  0.89055  1.0000
  H   H1        1.0  0.86543  0.54279  0.30459  1.0000
  H   H2        1.0  0.13561  0.45698  0.69501  1.0000
  H   H3        1.0  0.61495  0.34646  0.55742  1.0000
  H   H4        1.0  0.38545  0.65349  0.44217  1.0000
  H   H5        1.0  0.88958  0.87379  0.43831  1.0000
  H   H6        1.0  0.11073  0.12605  0.56157  1.0000
  H   H7        1.0  0.80809  0.95556  0.29083  1.0000
  H   H8        1.0  0.19227  0.04428  0.70896  1.0000
  H   H9        1.0  0.58308  0.90274  0.57474  1.0000
  H   H10       1.0  0.41680  0.09740  0.42519  1.0000
  H   H11       1.0  0.49497  0.04311  0.66309  1.0000
  H   H12       1.0  0.50540  0.95709  0.33686  1.0000
  H   H13       1.0  0.69567  0.94448  0.68205  1.0000
  H   H14       1.0  0.30457  0.05551  0.31776  1.0000
  H   H15       1.0  0.26666  0.93532  0.11700  1.0000
  H   H16       1.0  0.73360  0.06468  0.88277  1.0000
  H   H17       1.0  0.03907  0.88934  0.12873  1.0000
  H   H18       1.0  0.96122  0.11063  0.87117  1.0000
  H   H19       1.0  0.12814  0.76930  0.26953  1.0000
  H   H20       1.0  0.87224  0.23057  0.73026  1.0000
  C   C1        1.0  0.84688  0.14069  0.37264  1.0000
  C   C2        1.0  0.15340  0.85913  0.62713  1.0000
  C   C3        1.0  0.83227  0.40693  0.35246  1.0000
  C   C4        1.0  0.16832  0.59291  0.64716  1.0000
  C   C5        1.0  0.70882  0.31188  0.47705  1.0000
  C   C6        1.0  0.29165  0.68809  0.52256  1.0000
  C   C7        1.0  0.89953  0.98582  0.34114  1.0000
  C   C8        1.0  0.10078  0.01400  0.65871  1.0000
  C   C9        1.0  0.61722  0.99928  0.60897  1.0000
  C   C10       1.0  0.38299  0.00081  0.39088  1.0000
  C   C11       1.0  0.12972  0.89590  0.18784  1.0000
  C   C12       1.0  0.87061  0.10402  0.81203  1.0000
  N   N1        1.0  0.91620  0.29897  0.28841  1.0000
  N   N2        1.0  0.08425  0.70074  0.71129  1.0000
  N   N3        1.0  0.32546  0.39463  0.94562  1.0000
  N   N4        1.0  0.67382  0.60577  0.05286  1.0000
  N   N5        1.0  0.28600  0.45283  0.17124  1.0000
  N   N6        1.0  0.71223  0.55033  0.82982  1.0000
  N   N7        1.0  0.95503  0.31190  0.00458  1.0000
  N   N8        1.0  0.04414  0.68944  0.99612  1.0000
  N   N9        1.0  0.79952  0.25987  0.05742  1.0000
  N   N10       1.0  0.19966  0.74150  0.94282  1.0000
  N   N11       1.0  0.35757  0.31199  0.87243  1.0000
  N   N12       1.0  0.64197  0.68679  0.12757  1.0000
  N   N13       1.0  0.71982  0.14465  0.48853  1.0000
  N   N14       1.0  0.28047  0.85530  0.51120  1.0000
  N   N15       1.0  0.29012  0.41900  0.28969  1.0000
  N   N16       1.0  0.70954  0.58066  0.71132  1.0000
  N   N17       1.0  0.64664  0.21523  0.10036  1.0000
  N   N18       1.0  0.35250  0.78623  0.89961  1.0000
  N   N19       1.0  0.38530  0.23557  0.80021  1.0000
  N   N20       1.0  0.61418  0.76270  0.20006  1.0000
  N   N21       1.0  0.29069  0.38880  0.40392  1.0000
  N   N22       1.0  0.70926  0.60929  0.59736  1.0000
  O   O1        1.0  0.07803  0.02074  0.24848  1.0000
  O   O2        1.0  0.92227  0.97909  0.75146  1.0000
