data_image0
_chemical_formula_structural       Zn2H32C68N20
_chemical_formula_sum              "Zn2 H32 C68 N20"
_cell_length_a       11.5001
_cell_length_b       12.4779
_cell_length_c       14.739
_cell_angle_alpha    90.0001
_cell_angle_beta     89.9996
_cell_angle_gamma    89.9997

_space_group_name_H-M_alt    "P 1"
_space_group_IT_number       1

loop_
  _space_group_symop_operation_xyz
  'x, y, z'

loop_
  _atom_site_type_symbol
  _atom_site_label
  _atom_site_symmetry_multiplicity
  _atom_site_fract_x
  _atom_site_fract_y
  _atom_site_fract_z
  _atom_site_occupancy
  Zn  Zn1       1.0  0.50000  1.00000  0.25000  1.0000
  Zn  Zn2       1.0  0.50000  0.00000  0.75000  1.0000
  H   H1        1.0  0.31489  0.28295  0.14662  1.0000
  H   H2        1.0  0.31491  0.71705  0.35340  1.0000
  H   H3        1.0  0.68510  0.28295  0.35339  1.0000
  H   H4        1.0  0.68510  0.71705  0.14661  1.0000
  H   H5        1.0  0.68510  0.71705  0.85339  1.0000
  H   H6        1.0  0.68510  0.28295  0.64661  1.0000
  H   H7        1.0  0.31489  0.71704  0.64662  1.0000
  H   H8        1.0  0.31490  0.28295  0.85339  1.0000
  H   H9        1.0  0.16857  0.42573  0.14688  1.0000
  H   H10       1.0  0.16858  0.57428  0.35312  1.0000
  H   H11       1.0  0.83143  0.42573  0.35312  1.0000
  H   H12       1.0  0.83143  0.57428  0.14688  1.0000
  H   H13       1.0  0.83143  0.57427  0.85312  1.0000
  H   H14       1.0  0.83143  0.42572  0.64688  1.0000
  H   H15       1.0  0.16857  0.57427  0.64689  1.0000
  H   H16       1.0  0.16857  0.42572  0.85312  1.0000
  H   H17       1.0  0.30041  0.16022  0.28554  1.0000
  H   H18       1.0  0.30041  0.83977  0.21446  1.0000
  H   H19       1.0  0.69959  0.16022  0.21446  1.0000
  H   H20       1.0  0.69959  0.83978  0.28554  1.0000
  H   H21       1.0  0.69959  0.83978  0.71446  1.0000
  H   H22       1.0  0.69959  0.16022  0.78554  1.0000
  H   H23       1.0  0.30041  0.83978  0.78554  1.0000
  H   H24       1.0  0.30042  0.16023  0.71446  1.0000
  H   H25       1.0  0.08519  0.16895  0.28590  1.0000
  H   H26       1.0  0.08519  0.83105  0.21409  1.0000
  H   H27       1.0  0.91481  0.16895  0.21409  1.0000
  H   H28       1.0  0.91481  0.83105  0.28590  1.0000
  H   H29       1.0  0.91481  0.83105  0.71409  1.0000
  H   H30       1.0  0.91481  0.16895  0.78590  1.0000
  H   H31       1.0  0.08519  0.83105  0.78590  1.0000
  H   H32       1.0  0.08520  0.16895  0.71409  1.0000
  C   C1        1.0  0.46520  0.15285  0.08019  1.0000
  C   C2        1.0  0.46521  0.84715  0.41982  1.0000
  C   C3        1.0  0.53479  0.15286  0.41981  1.0000
  C   C4        1.0  0.53480  0.84715  0.08019  1.0000
  C   C5        1.0  0.53480  0.84715  0.91982  1.0000
  C   C6        1.0  0.53479  0.15285  0.58018  1.0000
  C   C7        1.0  0.46520  0.84715  0.58019  1.0000
  C   C8        1.0  0.46520  0.15285  0.91982  1.0000
  C   C9        1.0  0.41851  0.19219  0.00000  1.0000
  C   C10       1.0  0.41851  0.80782  0.50001  1.0000
  C   C11       1.0  0.58148  0.19219  0.50000  1.0000
  C   C12       1.0  0.58150  0.80782  0.00000  1.0000
  C   C13       1.0  0.32740  0.27297  0.00000  1.0000
  C   C14       1.0  0.32740  0.72703  0.50000  1.0000
  C   C15       1.0  0.67260  0.27297  0.50000  1.0000
  C   C16       1.0  0.67261  0.72703  0.00000  1.0000
  C   C17       1.0  0.28290  0.31405  0.08217  1.0000
  C   C18       1.0  0.28291  0.68595  0.41784  1.0000
  C   C19       1.0  0.71710  0.31405  0.41783  1.0000
  C   C20       1.0  0.71710  0.68595  0.08216  1.0000
  C   C21       1.0  0.71710  0.68595  0.91783  1.0000
  C   C22       1.0  0.71710  0.31405  0.58216  1.0000
  C   C23       1.0  0.28290  0.68594  0.58217  1.0000
  C   C24       1.0  0.28290  0.31405  0.91784  1.0000
  C   C25       1.0  0.20025  0.39485  0.08222  1.0000
  C   C26       1.0  0.20026  0.60516  0.41778  1.0000
  C   C27       1.0  0.79975  0.39485  0.41778  1.0000
  C   C28       1.0  0.79975  0.60516  0.08223  1.0000
  C   C29       1.0  0.79975  0.60515  0.91778  1.0000
  C   C30       1.0  0.79975  0.39484  0.58222  1.0000
  C   C31       1.0  0.20025  0.60515  0.58223  1.0000
  C   C32       1.0  0.20025  0.39484  0.91777  1.0000
  C   C33       1.0  0.15888  0.43670  1.00000  1.0000
  C   C34       1.0  0.15888  0.56330  0.50000  1.0000
  C   C35       1.0  0.84112  0.43670  0.50000  1.0000
  C   C36       1.0  0.84112  0.56330  0.00000  1.0000
  C   C37       1.0  0.06714  0.52454  1.00000  1.0000
  C   C38       1.0  0.06714  0.47546  0.50000  1.0000
  C   C39       1.0  0.93286  0.52454  0.50000  1.0000
  C   C40       1.0  0.93286  0.47546  1.00000  1.0000
  C   C41       1.0  0.07872  0.59316  0.08054  1.0000
  C   C42       1.0  0.07872  0.40684  0.41945  1.0000
  C   C43       1.0  0.92128  0.59316  0.41945  1.0000
  C   C44       1.0  0.92128  0.40684  0.08055  1.0000
  C   C45       1.0  0.92128  0.40684  0.91946  1.0000
  C   C46       1.0  0.92128  0.59316  0.58055  1.0000
  C   C47       1.0  0.07872  0.40683  0.58054  1.0000
  C   C48       1.0  0.07872  0.59316  0.91945  1.0000
  C   C49       1.0  0.24867  0.08959  0.26903  1.0000
  C   C50       1.0  0.24867  0.91040  0.23097  1.0000
  C   C51       1.0  0.75132  0.08960  0.23096  1.0000
  C   C52       1.0  0.75132  0.91041  0.26903  1.0000
  C   C53       1.0  0.75133  0.91041  0.73097  1.0000
  C   C54       1.0  0.75133  0.08960  0.76903  1.0000
  C   C55       1.0  0.24867  0.91040  0.76903  1.0000
  C   C56       1.0  0.24867  0.08959  0.73097  1.0000
  C   C57       1.0  0.12782  0.09346  0.26923  1.0000
  C   C58       1.0  0.12782  0.90655  0.23076  1.0000
  C   C59       1.0  0.87217  0.09345  0.23076  1.0000
  C   C60       1.0  0.87217  0.90654  0.26923  1.0000
  C   C61       1.0  0.87217  0.90654  0.73076  1.0000
  C   C62       1.0  0.87218  0.09345  0.76923  1.0000
  C   C63       1.0  0.12782  0.90655  0.76923  1.0000
  C   C64       1.0  0.12783  0.09346  0.73076  1.0000
  C   C65       1.0  0.06433  1.00000  0.24999  1.0000
  C   C66       1.0  0.93566  0.00000  0.24999  1.0000
  C   C67       1.0  0.93567  0.00001  0.74999  1.0000
  C   C68       1.0  0.06433  1.00000  0.75000  1.0000
  N   N1        1.0  0.50451  0.12154  0.14884  1.0000
  N   N2        1.0  0.50452  0.87847  0.35116  1.0000
  N   N3        1.0  0.49547  0.12154  0.35115  1.0000
  N   N4        1.0  0.49549  0.87846  0.14885  1.0000
  N   N5        1.0  0.49548  0.87846  0.85116  1.0000
  N   N6        1.0  0.49549  0.12154  0.64885  1.0000
  N   N7        1.0  0.50452  0.87846  0.64885  1.0000
  N   N8        1.0  0.50451  0.12153  0.85116  1.0000
  N   N9        1.0  0.09030  0.64568  0.14525  1.0000
  N   N10       1.0  0.09030  0.35432  0.35475  1.0000
  N   N11       1.0  0.90970  0.64568  0.35475  1.0000
  N   N12       1.0  0.90970  0.35433  0.14525  1.0000
  N   N13       1.0  0.90970  0.35432  0.85475  1.0000
  N   N14       1.0  0.90970  0.64567  0.64525  1.0000
  N   N15       1.0  0.09030  0.35433  0.64524  1.0000
  N   N16       1.0  0.09030  0.64567  0.85475  1.0000
  N   N17       1.0  0.30889  0.00000  0.25000  1.0000
  N   N18       1.0  0.69110  1.00000  0.25000  1.0000
  N   N19       1.0  0.69111  0.99999  0.75000  1.0000
  N   N20       1.0  0.30890  0.00001  0.75000  1.0000
