data_image0
_chemical_formula_structural       NiH28C30N8O6
_chemical_formula_sum              "Ni1 H28 C30 N8 O6"
_cell_length_a       7.59413
_cell_length_b       8.86127
_cell_length_c       11.0284
_cell_angle_alpha    88.4074
_cell_angle_beta     81.0371
_cell_angle_gamma    83.2386

_space_group_name_H-M_alt    "P 1"
_space_group_IT_number       1

loop_
  _space_group_symop_operation_xyz
  'x, y, z'

loop_
  _atom_site_type_symbol
  _atom_site_label
  _atom_site_symmetry_multiplicity
  _atom_site_fract_x
  _atom_site_fract_y
  _atom_site_fract_z
  _atom_site_occupancy
  Ni  Ni1       1.0  0.50001  0.00001  0.49999  1.0000
  H   H1        1.0  0.17237  0.26529  0.23823  1.0000
  H   H2        1.0  0.82762  0.73472  0.76177  1.0000
  H   H3        1.0  0.83999  0.82720  0.52591  1.0000
  H   H4        1.0  0.16002  0.17281  0.47411  1.0000
  H   H5        1.0  0.95035  0.74887  0.40461  1.0000
  H   H6        1.0  0.04964  0.25113  0.59541  1.0000
  H   H7        1.0  0.54799  0.72422  0.32424  1.0000
  H   H8        1.0  0.45201  0.27578  0.67574  1.0000
  H   H9        1.0  0.20738  0.82003  0.66046  1.0000
  H   H10       1.0  0.79264  0.17998  0.33954  1.0000
  H   H11       1.0  0.14299  0.54070  0.57167  1.0000
  H   H12       1.0  0.85703  0.45931  0.42833  1.0000
  H   H13       1.0  0.34468  0.36724  0.39501  1.0000
  H   H14       1.0  0.65529  0.63276  0.60499  1.0000
  H   H15       1.0  0.47480  0.46694  0.27707  1.0000
  H   H16       1.0  0.52519  0.53304  0.72294  1.0000
  H   H17       1.0  0.88877  0.25015  0.08594  1.0000
  H   H18       1.0  0.11122  0.74984  0.91407  1.0000
  H   H19       1.0  0.63381  0.41740  0.01888  1.0000
  H   H20       1.0  0.36618  0.58259  0.98112  1.0000
  H   H21       1.0  0.58890  0.69408  0.06318  1.0000
  H   H22       1.0  0.41110  0.30592  0.93680  1.0000
  H   H23       1.0  0.79649  0.81049  0.17804  1.0000
  H   H24       1.0  0.20351  0.18951  0.82194  1.0000
  H   H25       1.0  0.19515  0.96286  0.10857  1.0000
  H   H26       1.0  0.80485  0.03714  0.89143  1.0000
  H   H27       1.0  0.72675  0.07537  0.11892  1.0000
  H   H28       1.0  0.27326  0.92462  0.88108  1.0000
  C   C1        1.0  0.44469  0.71614  0.40279  1.0000
  C   C2        1.0  0.55531  0.28387  0.59720  1.0000
  C   C3        1.0  0.26716  0.75883  0.57793  1.0000
  C   C4        1.0  0.73286  0.24118  0.42208  1.0000
  C   C5        1.0  0.23394  0.62217  0.53589  1.0000
  C   C6        1.0  0.76608  0.37784  0.46410  1.0000
  C   C7        1.0  0.34835  0.47382  0.34196  1.0000
  C   C8        1.0  0.65165  0.52617  0.65805  1.0000
  C   C9        1.0  0.18943  0.49805  0.27526  1.0000
  C   C10       1.0  0.81056  0.50196  0.72474  1.0000
  C   C11       1.0  0.98155  0.43751  0.17130  1.0000
  C   C12       1.0  0.01844  0.56249  0.82871  1.0000
  C   C13       1.0  0.86675  0.37065  0.10746  1.0000
  C   C14       1.0  0.13323  0.62935  0.89255  1.0000
  C   C15       1.0  0.72527  0.46583  0.06987  1.0000
  C   C16       1.0  0.27471  0.53416  0.93012  1.0000
  C   C17       1.0  0.70076  0.62293  0.09435  1.0000
  C   C18       1.0  0.29923  0.37706  0.90565  1.0000
  C   C19       1.0  0.81689  0.68970  0.15725  1.0000
  C   C20       1.0  0.18310  0.31029  0.84274  1.0000
  C   C21       1.0  0.95945  0.59574  0.19573  1.0000
  C   C22       1.0  0.04054  0.40426  0.80427  1.0000
  C   C23       1.0  0.40674  0.04540  0.26329  1.0000
  C   C24       1.0  0.59326  0.95460  0.73671  1.0000
  C   C25       1.0  0.32782  0.98021  0.06007  1.0000
  C   C26       1.0  0.67218  0.01978  0.93992  1.0000
  C   C27       1.0  0.45596  0.02332  0.12704  1.0000
  C   C28       1.0  0.54404  0.97668  0.87295  1.0000
  C   C29       1.0  0.62807  0.04257  0.06597  1.0000
  C   C30       1.0  0.37194  0.95743  0.93402  1.0000
  N   N1        1.0  0.39883  0.81605  0.49393  1.0000
  N   N2        1.0  0.60120  0.18396  0.50606  1.0000
  N   N3        1.0  0.34740  0.59749  0.42575  1.0000
  N   N4        1.0  0.65260  0.40252  0.57424  1.0000
  N   N5        1.0  0.12961  0.37895  0.22322  1.0000
  N   N6        1.0  0.87038  0.62105  0.77679  1.0000
  N   N7        1.0  0.09294  0.63028  0.26030  1.0000
  N   N8        1.0  0.90706  0.36973  0.73970  1.0000
  O   O1        1.0  0.53746  0.00794  0.32452  1.0000
  O   O2        1.0  0.46255  0.99206  0.67548  1.0000
  O   O3        1.0  0.24808  0.09479  0.30736  1.0000
  O   O4        1.0  0.75193  0.90521  0.69263  1.0000
  O   O5        1.0  0.83556  0.75584  0.46038  1.0000
  O   O6        1.0  0.16447  0.24411  0.53967  1.0000
