data_image0
_chemical_formula_structural       CoH24C30N4Cl2O6
_chemical_formula_sum              "Co1 H24 C30 N4 Cl2 O6"
_cell_length_a       7.51385
_cell_length_b       9.74163
_cell_length_c       9.87851
_cell_angle_alpha    82.5506
_cell_angle_beta     77.515
_cell_angle_gamma    73.7562

_space_group_name_H-M_alt    "P 1"
_space_group_IT_number       1

loop_
  _space_group_symop_operation_xyz
  'x, y, z'

loop_
  _atom_site_type_symbol
  _atom_site_label
  _atom_site_symmetry_multiplicity
  _atom_site_fract_x
  _atom_site_fract_y
  _atom_site_fract_z
  _atom_site_occupancy
  Co  Co1       1.0  0.50000  0.50000  0.50000  1.0000
  H   H1        1.0  0.86799  0.42690  0.62301  1.0000
  H   H2        1.0  0.13201  0.57310  0.37699  1.0000
  H   H3        1.0  0.80038  0.55781  0.52068  1.0000
  H   H4        1.0  0.19962  0.44219  0.47932  1.0000
  H   H5        1.0  0.84649  0.55548  0.79377  1.0000
  H   H6        1.0  0.15350  0.44453  0.20622  1.0000
  H   H7        1.0  0.79663  0.24583  0.04263  1.0000
  H   H8        1.0  0.20337  0.75417  0.95738  1.0000
  H   H9        1.0  0.51579  0.33120  0.25631  1.0000
  H   H10       1.0  0.48421  0.66880  0.74369  1.0000
  H   H11       1.0  0.67541  0.24892  0.73245  1.0000
  H   H12       1.0  0.32460  0.75108  0.26756  1.0000
  H   H13       1.0  0.91853  0.78962  0.14203  1.0000
  H   H14       1.0  0.08147  0.21038  0.85798  1.0000
  H   H15       1.0  0.53326  0.09305  0.16501  1.0000
  H   H16       1.0  0.46674  0.90695  0.83499  1.0000
  H   H17       1.0  0.63403  0.93147  0.25470  1.0000
  H   H18       1.0  0.36596  0.06853  0.74530  1.0000
  H   H19       1.0  0.82415  0.83061  0.43697  1.0000
  H   H20       1.0  0.17585  0.16939  0.56303  1.0000
  H   H21       1.0  0.82323  0.99923  0.82064  1.0000
  H   H22       1.0  0.17678  0.00077  0.17936  1.0000
  H   H23       1.0  0.89755  0.79537  0.67540  1.0000
  H   H24       1.0  0.10246  0.20463  0.32460  1.0000
  C   C1        1.0  0.89241  0.53877  0.13282  1.0000
  C   C2        1.0  0.10758  0.46124  0.86717  1.0000
  C   C3        1.0  0.78918  0.57023  0.27870  1.0000
  C   C4        1.0  0.21081  0.42977  0.72130  1.0000
  C   C5        1.0  0.66638  0.17891  0.53548  1.0000
  C   C6        1.0  0.33362  0.82109  0.46452  1.0000
  C   C7        1.0  0.91462  0.53153  0.88422  1.0000
  C   C8        1.0  0.08536  0.46847  0.11578  1.0000
  C   C9        1.0  0.70845  0.06050  0.45355  1.0000
  C   C10       1.0  0.29155  0.93950  0.54645  1.0000
  C   C11       1.0  0.80930  0.57051  0.01421  1.0000
  C   C12       1.0  0.19070  0.42949  0.98578  1.0000
  C   C13       1.0  0.83537  0.01908  0.10401  1.0000
  C   C14       1.0  0.16464  0.98092  0.89599  1.0000
  C   C15       1.0  0.88495  0.13746  0.02478  1.0000
  C   C16       1.0  0.11505  0.86255  0.97522  1.0000
  C   C17       1.0  0.57662  0.26016  0.33773  1.0000
  C   C18       1.0  0.42338  0.73984  0.66228  1.0000
  C   C19       1.0  0.70813  0.15855  0.66907  1.0000
  C   C20       1.0  0.29188  0.84144  0.33093  1.0000
  C   C21       1.0  0.95263  0.88195  0.07824  1.0000
  C   C22       1.0  0.04738  0.11805  0.92177  1.0000
  C   C23       1.0  0.65588  0.03647  0.21225  1.0000
  C   C24       1.0  0.34413  0.96353  0.78775  1.0000
  C   C25       1.0  0.79174  0.92085  0.50067  1.0000
  C   C26       1.0  0.20826  0.07915  0.49932  1.0000
  C   C27       1.0  0.79006  0.01908  0.71682  1.0000
  C   C28       1.0  0.20995  0.98092  0.28317  1.0000
  C   C29       1.0  0.83159  0.90253  0.63414  1.0000
  C   C30       1.0  0.16841  0.09747  0.36585  1.0000
  N   N1        1.0  0.58431  0.30220  0.45896  1.0000
  N   N2        1.0  0.41569  0.69780  0.54104  1.0000
  N   N3        1.0  0.64968  0.11645  0.32916  1.0000
  N   N4        1.0  0.35032  0.88355  0.67084  1.0000
  Cl  Cl1       1.0  0.57522  0.66625  0.02329  1.0000
  Cl  Cl2       1.0  0.42477  0.33375  0.97671  1.0000
  O   O1        1.0  0.63062  0.53874  0.31391  1.0000
  O   O2        1.0  0.36936  0.46126  0.68609  1.0000
  O   O3        1.0  0.75437  0.50142  0.60651  1.0000
  O   O4        1.0  0.24563  0.49858  0.39349  1.0000
  O   O5        1.0  0.86990  0.61769  0.35568  1.0000
  O   O6        1.0  0.13009  0.38231  0.64432  1.0000
