data_image0
_chemical_formula_structural       Cd2H38C40S2N6O16
_chemical_formula_sum              "Cd2 H38 C40 S2 N6 O16"
_cell_length_a       8.32001
_cell_length_b       10.2237
_cell_length_c       13.8304
_cell_angle_alpha    99.8162
_cell_angle_beta     100.941
_cell_angle_gamma    104.574

_space_group_name_H-M_alt    "P 1"
_space_group_IT_number       1

loop_
  _space_group_symop_operation_xyz
  'x, y, z'

loop_
  _atom_site_type_symbol
  _atom_site_label
  _atom_site_symmetry_multiplicity
  _atom_site_fract_x
  _atom_site_fract_y
  _atom_site_fract_z
  _atom_site_occupancy
  Cd  Cd1       1.0  0.77788  0.38993  0.49473  1.0000
  Cd  Cd2       1.0  0.22211  0.61007  0.50527  1.0000
  H   H1        1.0  0.54463  0.21562  0.55320  1.0000
  H   H2        1.0  0.45537  0.78438  0.44680  1.0000
  H   H3        1.0  0.44278  0.32685  0.53672  1.0000
  H   H4        1.0  0.55722  0.67315  0.46328  1.0000
  H   H5        1.0  0.22164  0.98792  0.01696  1.0000
  H   H6        1.0  0.77836  0.01208  0.98304  1.0000
  H   H7        1.0  0.38936  0.97142  0.10030  1.0000
  H   H8        1.0  0.61064  0.02858  0.89971  1.0000
  H   H9        1.0  0.48419  0.14785  0.33981  1.0000
  H   H10       1.0  0.51580  0.85215  0.66019  1.0000
  H   H11       1.0  0.72121  0.54872  0.32336  1.0000
  H   H12       1.0  0.27878  0.45127  0.67664  1.0000
  H   H13       1.0  0.52418  0.52193  0.15640  1.0000
  H   H14       1.0  0.47582  0.47807  0.84360  1.0000
  H   H15       1.0  0.29493  0.29192  0.07798  1.0000
  H   H16       1.0  0.70507  0.70808  0.92202  1.0000
  H   H17       1.0  0.10772  0.08746  0.13515  1.0000
  H   H18       1.0  0.89227  0.91254  0.86485  1.0000
  H   H19       1.0  0.21358  0.02002  0.23086  1.0000
  H   H20       1.0  0.78642  0.97998  0.76914  1.0000
  H   H21       1.0  0.03210  0.82463  0.09745  1.0000
  H   H22       1.0  0.96790  0.17536  0.90254  1.0000
  H   H23       1.0  0.22677  0.79366  0.15595  1.0000
  H   H24       1.0  0.77323  0.20634  0.84405  1.0000
  H   H25       1.0  0.89135  0.61438  0.76470  1.0000
  H   H26       1.0  0.10865  0.38562  0.23530  1.0000
  H   H27       1.0  0.00824  0.41416  0.75895  1.0000
  H   H28       1.0  0.99178  0.58584  0.24105  1.0000
  H   H29       1.0  0.22302  0.40841  0.91435  1.0000
  H   H30       1.0  0.77699  0.59159  0.08565  1.0000
  H   H31       1.0  0.30495  0.60753  0.06677  1.0000
  H   H32       1.0  0.69506  0.39248  0.93323  1.0000
  H   H33       1.0  0.75474  0.88146  0.50786  1.0000
  H   H34       1.0  0.24526  0.11853  0.49214  1.0000
  H   H35       1.0  0.11860  0.22792  0.72758  1.0000
  H   H36       1.0  0.88140  0.77208  0.27242  1.0000
  H   H37       1.0  0.14567  0.81333  0.73128  1.0000
  H   H38       1.0  0.85433  0.18668  0.26872  1.0000
  C   C1        1.0  0.37104  0.20265  0.20314  1.0000
  C   C2        1.0  0.62896  0.79735  0.79686  1.0000
  C   C3        1.0  0.48809  0.22729  0.29581  1.0000
  C   C4        1.0  0.51191  0.77271  0.70419  1.0000
  C   C5        1.0  0.62144  0.45152  0.28648  1.0000
  C   C6        1.0  0.37856  0.54847  0.71353  1.0000
  C   C7        1.0  0.51094  0.43513  0.19326  1.0000
  C   C8        1.0  0.48906  0.56487  0.80674  1.0000
  C   C9        1.0  0.38467  0.30897  0.15056  1.0000
  C   C10       1.0  0.61533  0.69103  0.84944  1.0000
  C   C11       1.0  0.22881  0.06856  0.16701  1.0000
  C   C12       1.0  0.77119  0.93144  0.83299  1.0000
  C   C13       1.0  0.15897  0.81918  0.08890  1.0000
  C   C14       1.0  0.84102  0.18082  0.91110  1.0000
  C   C15       1.0  0.13476  0.70980  0.99517  1.0000
  C   C16       1.0  0.86524  0.29020  0.00483  1.0000
  C   C17       1.0  0.98278  0.60926  0.83086  1.0000
  C   C18       1.0  0.01722  0.39074  0.16913  1.0000
  C   C19       1.0  0.04867  0.49623  0.82794  1.0000
  C   C20       1.0  0.95134  0.50378  0.17206  1.0000
  C   C21       1.0  0.16661  0.49395  0.91357  1.0000
  C   C22       1.0  0.83340  0.50605  0.08642  1.0000
  C   C23       1.0  0.21198  0.60346  0.99847  1.0000
  C   C24       1.0  0.78802  0.39655  0.00154  1.0000
  C   C25       1.0  0.94203  0.83028  0.61520  1.0000
  C   C26       1.0  0.05797  0.16972  0.38480  1.0000
  C   C27       1.0  0.86299  0.92049  0.57370  1.0000
  C   C28       1.0  0.13701  0.07951  0.42630  1.0000
  C   C29       1.0  0.92720  0.06361  0.61306  1.0000
  C   C30       1.0  0.07280  0.93638  0.38694  1.0000
  C   C31       1.0  0.06787  0.11643  0.69680  1.0000
  C   C32       1.0  0.93213  0.88357  0.30320  1.0000
  C   C33       1.0  0.14241  0.02575  0.74028  1.0000
  C   C34       1.0  0.85759  0.97426  0.25972  1.0000
  C   C35       1.0  0.08364  0.88317  0.69878  1.0000
  C   C36       1.0  0.91636  0.11683  0.30122  1.0000
  C   C37       1.0  0.87673  0.67812  0.57022  1.0000
  C   C38       1.0  0.12327  0.32188  0.42978  1.0000
  C   C39       1.0  0.84731  0.15999  0.56460  1.0000
  C   C40       1.0  0.15269  0.84001  0.43540  1.0000
  S   S1        1.0  0.30147  0.09469  0.85679  1.0000
  S   S2        1.0  0.69853  0.90531  0.14321  1.0000
  N   N1        1.0  0.61044  0.34884  0.33654  1.0000
  N   N2        1.0  0.38955  0.65116  0.66346  1.0000
  N   N3        1.0  0.25738  0.96289  0.08696  1.0000
  N   N4        1.0  0.74262  0.03711  0.91304  1.0000
  N   N5        1.0  0.02307  0.71417  0.91235  1.0000
  N   N6        1.0  0.97693  0.28583  0.08765  1.0000
  O   O1        1.0  0.97642  0.60301  0.58909  1.0000
  O   O2        1.0  0.02359  0.39699  0.41091  1.0000
  O   O3        1.0  0.72469  0.62429  0.51599  1.0000
  O   O4        1.0  0.27531  0.37570  0.48401  1.0000
  O   O5        1.0  0.70653  0.11197  0.49885  1.0000
  O   O6        1.0  0.29347  0.88803  0.50114  1.0000
  O   O7        1.0  0.93217  0.28976  0.59405  1.0000
  O   O8        1.0  0.06783  0.71024  0.40595  1.0000
  O   O9        1.0  0.39953  0.23348  0.85412  1.0000
  O   O10       1.0  0.60047  0.76652  0.14588  1.0000
  O   O11       1.0  0.19884  0.09561  0.93363  1.0000
  O   O12       1.0  0.80116  0.90440  0.06637  1.0000
  O   O13       1.0  0.40091  0.99437  0.86411  1.0000
  O   O14       1.0  0.59909  0.00563  0.13589  1.0000
  O   O15       1.0  0.55231  0.31430  0.57238  1.0000
  O   O16       1.0  0.44768  0.68570  0.42762  1.0000
