data_image0
_chemical_formula_structural       CoH28C30N8O6
_chemical_formula_sum              "Co1 H28 C30 N8 O6"
_cell_length_a       7.52203
_cell_length_b       8.68017
_cell_length_c       11.1497
_cell_angle_alpha    89.9115
_cell_angle_beta     79.584
_cell_angle_gamma    80.4535

_space_group_name_H-M_alt    "P 1"
_space_group_IT_number       1

loop_
  _space_group_symop_operation_xyz
  'x, y, z'

loop_
  _atom_site_type_symbol
  _atom_site_label
  _atom_site_symmetry_multiplicity
  _atom_site_fract_x
  _atom_site_fract_y
  _atom_site_fract_z
  _atom_site_occupancy
  Co  Co1       1.0  0.99999  0.50000  0.00000  1.0000
  H   H1        1.0  0.33537  0.24381  0.26120  1.0000
  H   H2        1.0  0.66463  0.75617  0.73881  1.0000
  H   H3        1.0  0.67678  0.63991  0.96217  1.0000
  H   H4        1.0  0.32321  0.36010  0.03783  1.0000
  H   H5        1.0  0.59796  0.70778  0.09893  1.0000
  H   H6        1.0  0.40205  0.29221  0.90107  1.0000
  H   H7        1.0  0.96086  0.78905  0.17482  1.0000
  H   H8        1.0  0.03915  0.21097  0.82518  1.0000
  H   H9        1.0  0.31494  0.65754  0.83877  1.0000
  H   H10       1.0  0.68506  0.34245  0.16122  1.0000
  H   H11       1.0  0.38294  0.94209  0.92381  1.0000
  H   H12       1.0  0.61708  0.05788  0.07619  1.0000
  H   H13       1.0  0.03878  0.05040  0.21809  1.0000
  H   H14       1.0  0.96123  0.94960  0.78190  1.0000
  H   H15       1.0  0.17564  0.13919  0.09915  1.0000
  H   H16       1.0  0.82439  0.86080  0.90085  1.0000
  H   H17       1.0  0.72898  0.68009  0.31880  1.0000
  H   H18       1.0  0.27103  0.31991  0.68121  1.0000
  H   H19       1.0  0.92137  0.79910  0.44062  1.0000
  H   H20       1.0  0.07864  0.20091  0.55939  1.0000
  H   H21       1.0  0.86057  0.08412  0.48934  1.0000
  H   H22       1.0  0.13944  0.91589  0.51065  1.0000
  H   H23       1.0  0.59976  0.25787  0.42173  1.0000
  H   H24       1.0  0.40024  0.74213  0.57827  1.0000
  H   H25       1.0  0.78851  0.40902  0.37946  1.0000
  H   H26       1.0  0.21149  0.59098  0.62054  1.0000
  H   H27       1.0  0.30053  0.55826  0.39231  1.0000
  H   H28       1.0  0.69947  0.44173  0.60769  1.0000
  C   C1        1.0  0.06720  0.78844  0.09507  1.0000
  C   C2        1.0  0.93281  0.21156  0.90494  1.0000
  C   C3        1.0  0.25211  0.72704  0.92058  1.0000
  C   C4        1.0  0.74789  0.27295  0.07941  1.0000
  C   C5        1.0  0.28814  0.86590  0.96133  1.0000
  C   C6        1.0  0.71186  0.13410  0.03867  1.0000
  C   C7        1.0  0.16963  0.03276  0.15275  1.0000
  C   C8        1.0  0.83039  0.96723  0.84724  1.0000
  C   C9        1.0  0.32800  0.00432  0.21956  1.0000
  C   C10       1.0  0.67201  0.99568  0.78044  1.0000
  C   C11       1.0  0.55798  0.90247  0.30074  1.0000
  C   C12       1.0  0.44203  0.09753  0.69926  1.0000
  C   C13       1.0  0.70126  0.80484  0.34110  1.0000
  C   C14       1.0  0.29875  0.19516  0.65890  1.0000
  C   C15       1.0  0.80915  0.87313  0.40800  1.0000
  C   C16       1.0  0.19085  0.12688  0.59201  1.0000
  C   C17       1.0  0.77526  0.03506  0.43532  1.0000
  C   C18       1.0  0.22474  0.96496  0.56469  1.0000
  C   C19       1.0  0.63128  0.13371  0.39732  1.0000
  C   C20       1.0  0.36872  0.86630  0.60268  1.0000
  C   C21       1.0  0.52536  0.06521  0.32925  1.0000
  C   C22       1.0  0.47463  0.93479  0.67075  1.0000
  C   C23       1.0  0.10509  0.46125  0.23631  1.0000
  C   C24       1.0  0.89490  0.53877  0.76369  1.0000
  C   C25       1.0  0.88016  0.44896  0.43325  1.0000
  C   C26       1.0  0.11983  0.55102  0.56675  1.0000
  C   C27       1.0  0.04975  0.48034  0.37266  1.0000
  C   C28       1.0  0.95023  0.51965  0.62735  1.0000
  C   C29       1.0  0.16991  0.53157  0.44043  1.0000
  C   C30       1.0  0.83006  0.46842  0.55956  1.0000
  N   N1        1.0  0.11371  0.68036  0.00490  1.0000
  N   N2        1.0  0.88628  0.31965  0.99511  1.0000
  N   N3        1.0  0.17029  0.90269  0.07125  1.0000
  N   N4        1.0  0.82972  0.09730  0.92875  1.0000
  N   N5        1.0  0.43176  0.86763  0.23186  1.0000
  N   N6        1.0  0.56825  0.13237  0.76814  1.0000
  N   N7        1.0  0.37739  0.12634  0.27665  1.0000
  N   N8        1.0  0.62263  0.87365  0.72335  1.0000
  O   O1        1.0  0.97428  0.48899  0.17568  1.0000
  O   O2        1.0  0.02571  0.51101  0.82433  1.0000
  O   O3        1.0  0.27415  0.41930  0.19269  1.0000
  O   O4        1.0  0.72584  0.58071  0.80730  1.0000
  O   O5        1.0  0.70965  0.68118  0.03658  1.0000
  O   O6        1.0  0.29035  0.31882  0.96342  1.0000
