data_image0
_chemical_formula_structural       Ca8H8C28O40
_chemical_formula_sum              "Ca8 H8 C28 O40"
_cell_length_a       7.27187
_cell_length_b       9.36288
_cell_length_c       15.0492
_cell_angle_alpha    90
_cell_angle_beta     90.0001
_cell_angle_gamma    90

_space_group_name_H-M_alt    "P 1"
_space_group_IT_number       1

loop_
  _space_group_symop_operation_xyz
  'x, y, z'

loop_
  _atom_site_type_symbol
  _atom_site_label
  _atom_site_symmetry_multiplicity
  _atom_site_fract_x
  _atom_site_fract_y
  _atom_site_fract_z
  _atom_site_occupancy
  Ca  Ca1       1.0  0.75000  0.49469  0.68475  1.0000
  Ca  Ca2       1.0  0.25000  0.99468  0.81526  1.0000
  Ca  Ca3       1.0  0.75000  0.00531  0.18474  1.0000
  Ca  Ca4       1.0  0.25000  0.50532  0.31526  1.0000
  Ca  Ca5       1.0  0.75000  0.87417  0.76687  1.0000
  Ca  Ca6       1.0  0.25000  0.37417  0.73313  1.0000
  Ca  Ca7       1.0  0.75000  0.62582  0.26687  1.0000
  Ca  Ca8       1.0  0.25000  0.12583  0.23313  1.0000
  H   H1        1.0  0.75000  0.47497  0.49350  1.0000
  H   H2        1.0  0.25000  0.97497  0.00650  1.0000
  H   H3        1.0  0.75000  0.02503  0.99350  1.0000
  H   H4        1.0  0.25000  0.52503  0.50650  1.0000
  H   H5        1.0  0.75000  0.30635  0.51205  1.0000
  H   H6        1.0  0.25000  0.80635  0.98795  1.0000
  H   H7        1.0  0.75000  0.19365  0.01205  1.0000
  H   H8        1.0  0.25000  0.69365  0.48795  1.0000
  C   C1        1.0  0.75000  0.96124  0.55754  1.0000
  C   C2        1.0  0.25000  0.46124  0.94246  1.0000
  C   C3        1.0  0.75000  0.53876  0.05754  1.0000
  C   C4        1.0  0.25000  0.03876  0.44246  1.0000
  C   C5        1.0  0.75000  0.80458  0.55424  1.0000
  C   C6        1.0  0.25000  0.30458  0.94576  1.0000
  C   C7        1.0  0.75000  0.69542  0.05424  1.0000
  C   C8        1.0  0.25000  0.19542  0.44576  1.0000
  C   C9        1.0  0.75000  0.76085  0.46161  1.0000
  C   C10       1.0  0.25000  0.26085  0.03839  1.0000
  C   C11       1.0  0.75000  0.73915  0.96161  1.0000
  C   C12       1.0  0.25000  0.23915  0.53839  1.0000
  C   C13       1.0  0.75000  0.89065  0.40708  1.0000
  C   C14       1.0  0.25000  0.39065  0.09292  1.0000
  C   C15       1.0  0.75000  0.60935  0.90709  1.0000
  C   C16       1.0  0.25000  0.10936  0.59292  1.0000
  C   C17       1.0  0.75000  0.01832  0.46546  1.0000
  C   C18       1.0  0.25000  0.51832  0.03454  1.0000
  C   C19       1.0  0.75000  0.48168  0.96546  1.0000
  C   C20       1.0  0.25000  0.98168  0.53454  1.0000
  C   C21       1.0  0.14309  0.69506  0.72522  1.0000
  C   C22       1.0  0.85691  0.19506  0.77478  1.0000
  C   C23       1.0  0.35691  0.80494  0.22522  1.0000
  C   C24       1.0  0.64309  0.30494  0.27478  1.0000
  C   C25       1.0  0.85691  0.30494  0.27478  1.0000
  C   C26       1.0  0.14309  0.80494  0.22521  1.0000
  C   C27       1.0  0.64309  0.19506  0.77479  1.0000
  C   C28       1.0  0.35691  0.69506  0.72522  1.0000
  O   O1        1.0  0.75000  0.02969  0.62897  1.0000
  O   O2        1.0  0.25000  0.52969  0.87103  1.0000
  O   O3        1.0  0.75000  0.47031  0.12897  1.0000
  O   O4        1.0  0.25000  0.97031  0.37103  1.0000
  O   O5        1.0  0.75000  0.72883  0.62364  1.0000
  O   O6        1.0  0.25000  0.22883  0.87636  1.0000
  O   O7        1.0  0.75000  0.77117  0.12364  1.0000
  O   O8        1.0  0.25000  0.27117  0.37636  1.0000
  O   O9        1.0  0.75000  0.63656  0.42872  1.0000
  O   O10       1.0  0.25000  0.13656  0.07128  1.0000
  O   O11       1.0  0.75000  0.86344  0.92872  1.0000
  O   O12       1.0  0.25000  0.36345  0.57128  1.0000
  O   O13       1.0  0.75000  0.88488  0.32343  1.0000
  O   O14       1.0  0.25000  0.38488  0.17657  1.0000
  O   O15       1.0  0.75000  0.61512  0.82343  1.0000
  O   O16       1.0  0.25000  0.11512  0.67657  1.0000
  O   O17       1.0  0.75000  0.14650  0.44282  1.0000
  O   O18       1.0  0.25000  0.64650  0.05718  1.0000
  O   O19       1.0  0.75000  0.35350  0.94282  1.0000
  O   O20       1.0  0.25000  0.85350  0.55718  1.0000
  O   O21       1.0  0.06494  0.58248  0.69847  1.0000
  O   O22       1.0  0.93506  0.08248  0.80153  1.0000
  O   O23       1.0  0.43506  0.91752  0.19847  1.0000
  O   O24       1.0  0.56494  0.41752  0.30153  1.0000
  O   O25       1.0  0.93506  0.41752  0.30153  1.0000
  O   O26       1.0  0.06494  0.91752  0.19847  1.0000
  O   O27       1.0  0.56494  0.08248  0.80153  1.0000
  O   O28       1.0  0.43506  0.58248  0.69847  1.0000
  O   O29       1.0  0.06472  0.80675  0.75412  1.0000
  O   O30       1.0  0.93528  0.30675  0.74588  1.0000
  O   O31       1.0  0.43528  0.69325  0.25412  1.0000
  O   O32       1.0  0.56472  0.19325  0.24588  1.0000
  O   O33       1.0  0.93528  0.19325  0.24588  1.0000
  O   O34       1.0  0.06472  0.69325  0.25412  1.0000
  O   O35       1.0  0.56472  0.30675  0.74588  1.0000
  O   O36       1.0  0.43528  0.80675  0.75412  1.0000
  O   O37       1.0  0.75000  0.40145  0.54090  1.0000
  O   O38       1.0  0.25000  0.90144  0.95910  1.0000
  O   O39       1.0  0.75000  0.09856  0.04090  1.0000
  O   O40       1.0  0.25000  0.59856  0.45910  1.0000
