data_image0
_chemical_formula_structural       Zn8H32C32I16N16
_chemical_formula_sum              "Zn8 H32 C32 I16 N16"
_cell_length_a       6.44827
_cell_length_b       14.25
_cell_length_c       19.0575
_cell_angle_alpha    90.0005
_cell_angle_beta     90.1849
_cell_angle_gamma    90.0003

_space_group_name_H-M_alt    "P 1"
_space_group_IT_number       1

loop_
  _space_group_symop_operation_xyz
  'x, y, z'

loop_
  _atom_site_type_symbol
  _atom_site_label
  _atom_site_symmetry_multiplicity
  _atom_site_fract_x
  _atom_site_fract_y
  _atom_site_fract_z
  _atom_site_occupancy
  Zn  Zn1       1.0  0.16841  0.26853  0.91619  1.0000
  Zn  Zn2       1.0  0.83159  0.76853  0.58381  1.0000
  Zn  Zn3       1.0  0.83158  0.73147  0.08381  1.0000
  Zn  Zn4       1.0  0.16841  0.23147  0.41619  1.0000
  Zn  Zn5       1.0  0.61542  0.27048  0.66837  1.0000
  Zn  Zn6       1.0  0.38459  0.77047  0.83163  1.0000
  Zn  Zn7       1.0  0.38459  0.72953  0.33163  1.0000
  Zn  Zn8       1.0  0.61542  0.22953  0.16837  1.0000
  H   H1        1.0  0.94288  0.23632  0.77897  1.0000
  H   H2        1.0  0.05712  0.73631  0.72102  1.0000
  H   H3        1.0  0.05712  0.76369  0.22102  1.0000
  H   H4        1.0  0.94289  0.26368  0.27897  1.0000
  H   H5        1.0  0.54322  0.46014  0.74133  1.0000
  H   H6        1.0  0.45679  0.96014  0.75867  1.0000
  H   H7        1.0  0.45678  0.53986  0.25867  1.0000
  H   H8        1.0  0.54320  0.03986  0.24134  1.0000
  H   H9        1.0  0.68292  0.54410  0.84835  1.0000
  H   H10       1.0  0.31708  0.04410  0.65165  1.0000
  H   H11       1.0  0.31708  0.45590  0.15165  1.0000
  H   H12       1.0  0.68292  0.95590  0.34835  1.0000
  H   H13       1.0  0.95226  0.45810  0.92157  1.0000
  H   H14       1.0  0.04775  0.95810  0.57843  1.0000
  H   H15       1.0  0.04774  0.54190  0.07843  1.0000
  H   H16       1.0  0.95226  0.04190  0.42157  1.0000
  H   H17       1.0  0.91990  0.29103  0.05256  1.0000
  H   H18       1.0  0.08010  0.79103  0.44743  1.0000
  H   H19       1.0  0.08009  0.70897  0.94743  1.0000
  H   H20       1.0  0.91990  0.20897  0.55257  1.0000
  H   H21       1.0  0.93696  0.08434  0.89799  1.0000
  H   H22       1.0  0.06302  0.58434  0.60201  1.0000
  H   H23       1.0  0.06303  0.91566  0.10201  1.0000
  H   H24       1.0  0.93697  0.41566  0.39799  1.0000
  H   H25       1.0  0.71686  0.97827  0.97382  1.0000
  H   H26       1.0  0.28313  0.47827  0.52618  1.0000
  H   H27       1.0  0.28314  0.02173  0.02618  1.0000
  H   H28       1.0  0.71686  0.52173  0.47381  1.0000
  H   H29       1.0  0.59764  0.04374  0.09117  1.0000
  H   H30       1.0  0.40237  0.54374  0.40883  1.0000
  H   H31       1.0  0.40236  0.95625  0.90883  1.0000
  H   H32       1.0  0.59763  0.45626  0.59117  1.0000
  C   C1        1.0  0.88396  0.30491  0.79494  1.0000
  C   C2        1.0  0.11605  0.80491  0.70507  1.0000
  C   C3        1.0  0.11604  0.69509  0.20506  1.0000
  C   C4        1.0  0.88396  0.19509  0.29494  1.0000
  C   C5        1.0  0.66569  0.42992  0.77391  1.0000
  C   C6        1.0  0.33433  0.92992  0.72610  1.0000
  C   C7        1.0  0.33432  0.57008  0.22609  1.0000
  C   C8        1.0  0.66567  0.07008  0.27391  1.0000
  C   C9        1.0  0.74076  0.47528  0.83325  1.0000
  C   C10       1.0  0.25924  0.97528  0.66675  1.0000
  C   C11       1.0  0.25925  0.52473  0.16675  1.0000
  C   C12       1.0  0.74076  0.02473  0.33325  1.0000
  C   C13       1.0  0.88826  0.42850  0.87331  1.0000
  C   C14       1.0  0.11176  0.92850  0.62670  1.0000
  C   C15       1.0  0.11175  0.57150  0.12669  1.0000
  C   C16       1.0  0.88825  0.07150  0.37331  1.0000
  C   C17       1.0  0.87161  0.22165  0.03433  1.0000
  C   C18       1.0  0.12840  0.72165  0.46567  1.0000
  C   C19       1.0  0.12839  0.77835  0.96567  1.0000
  C   C20       1.0  0.87160  0.27836  0.53434  1.0000
  C   C21       1.0  0.88049  0.10622  0.94948  1.0000
  C   C22       1.0  0.11950  0.60621  0.55052  1.0000
  C   C23       1.0  0.11951  0.89378  0.05052  1.0000
  C   C24       1.0  0.88049  0.39379  0.44948  1.0000
  C   C25       1.0  0.75827  0.04867  0.99113  1.0000
  C   C26       1.0  0.24172  0.54867  0.50887  1.0000
  C   C27       1.0  0.24172  0.95133  0.00887  1.0000
  C   C28       1.0  0.75828  0.45133  0.49113  1.0000
  C   C29       1.0  0.69355  0.08438  0.05522  1.0000
  C   C30       1.0  0.30646  0.58438  0.44478  1.0000
  C   C31       1.0  0.30646  0.91561  0.94478  1.0000
  C   C32       1.0  0.69354  0.41562  0.55521  1.0000
  I   I1        1.0  0.36334  0.14742  0.84256  1.0000
  I   I2        1.0  0.63666  0.64742  0.65744  1.0000
  I   I3        1.0  0.63666  0.85258  0.15744  1.0000
  I   I4        1.0  0.36334  0.35258  0.34256  1.0000
  I   I5        1.0  0.36260  0.37687  0.99740  1.0000
  I   I6        1.0  0.63741  0.87687  0.50260  1.0000
  I   I7        1.0  0.63740  0.62313  0.00260  1.0000
  I   I8        1.0  0.36259  0.12313  0.49740  1.0000
  I   I9        1.0  0.76273  0.10531  0.67777  1.0000
  I   I10       1.0  0.23727  0.60530  0.82223  1.0000
  I   I11       1.0  0.23727  0.89469  0.32223  1.0000
  I   I12       1.0  0.76273  0.39470  0.17777  1.0000
  I   I13       1.0  0.24861  0.34133  0.65886  1.0000
  I   I14       1.0  0.75139  0.84132  0.84114  1.0000
  I   I15       1.0  0.75139  0.65867  0.34113  1.0000
  I   I16       1.0  0.24862  0.15867  0.15886  1.0000
  N   N1        1.0  0.95886  0.34319  0.85394  1.0000
  N   N2        1.0  0.04115  0.84319  0.64606  1.0000
  N   N3        1.0  0.04114  0.65681  0.14606  1.0000
  N   N4        1.0  0.95886  0.15681  0.35394  1.0000
  N   N5        1.0  0.73821  0.34489  0.75477  1.0000
  N   N6        1.0  0.26179  0.84489  0.74523  1.0000
  N   N7        1.0  0.26179  0.65511  0.24523  1.0000
  N   N8        1.0  0.73821  0.15511  0.25477  1.0000
  N   N9        1.0  0.74656  0.17150  0.07585  1.0000
  N   N10       1.0  0.25343  0.67150  0.42415  1.0000
  N   N11       1.0  0.25343  0.82849  0.92414  1.0000
  N   N12       1.0  0.74657  0.32850  0.57585  1.0000
  N   N13       1.0  0.94105  0.19155  0.97204  1.0000
  N   N14       1.0  0.05894  0.69155  0.52795  1.0000
  N   N15       1.0  0.05894  0.80845  0.02795  1.0000
  N   N16       1.0  0.94105  0.30845  0.47205  1.0000
