data_image0
_chemical_formula_structural       Zn4H16C16I8N8
_chemical_formula_sum              "Zn4 H16 C16 I8 N8"
_cell_length_a       7.46947
_cell_length_b       9.59571
_cell_length_c       13.3809
_cell_angle_alpha    90
_cell_angle_beta     90.0002
_cell_angle_gamma    112.331

_space_group_name_H-M_alt    "P 1"
_space_group_IT_number       1

loop_
  _space_group_symop_operation_xyz
  'x, y, z'

loop_
  _atom_site_type_symbol
  _atom_site_label
  _atom_site_symmetry_multiplicity
  _atom_site_fract_x
  _atom_site_fract_y
  _atom_site_fract_z
  _atom_site_occupancy
  Zn  Zn1       1.0  0.49303  0.71840  0.61683  1.0000
  Zn  Zn2       1.0  0.50698  0.78160  0.11683  1.0000
  Zn  Zn3       1.0  0.50697  0.28160  0.38317  1.0000
  Zn  Zn4       1.0  0.49303  0.21840  0.88317  1.0000
  H   H1        1.0  0.57608  0.51146  0.76758  1.0000
  H   H2        1.0  0.42392  0.98854  0.26758  1.0000
  H   H3        1.0  0.42392  0.48854  0.23242  1.0000
  H   H4        1.0  0.57608  0.01146  0.73242  1.0000
  H   H5        1.0  0.14705  0.08062  0.74331  1.0000
  H   H6        1.0  0.85295  0.41938  0.24331  1.0000
  H   H7        1.0  0.85295  0.91938  0.25669  1.0000
  H   H8        1.0  0.14705  0.58062  0.75669  1.0000
  H   H9        1.0  0.00889  0.16222  0.59386  1.0000
  H   H10       1.0  0.99110  0.33778  0.09386  1.0000
  H   H11       1.0  0.99111  0.83778  0.40614  1.0000
  H   H12       1.0  0.00889  0.66222  0.90614  1.0000
  H   H13       1.0  0.16386  0.43746  0.54320  1.0000
  H   H14       1.0  0.83614  0.06255  0.04320  1.0000
  H   H15       1.0  0.83614  0.56255  0.45680  1.0000
  H   H16       1.0  0.16386  0.93745  0.95680  1.0000
  C   C1        1.0  0.44683  0.43375  0.73022  1.0000
  C   C2        1.0  0.55317  0.06626  0.23022  1.0000
  C   C3        1.0  0.55317  0.56625  0.26978  1.0000
  C   C4        1.0  0.44683  0.93374  0.76978  1.0000
  C   C5        1.0  0.21150  0.19577  0.71542  1.0000
  C   C6        1.0  0.78850  0.30423  0.21542  1.0000
  C   C7        1.0  0.78850  0.80423  0.28458  1.0000
  C   C8        1.0  0.21150  0.69577  0.78458  1.0000
  C   C9        1.0  0.13351  0.24083  0.63350  1.0000
  C   C10       1.0  0.86649  0.25917  0.13350  1.0000
  C   C11       1.0  0.86649  0.75917  0.36650  1.0000
  C   C12       1.0  0.13351  0.74083  0.86650  1.0000
  C   C13       1.0  0.21869  0.39085  0.60510  1.0000
  C   C14       1.0  0.78131  0.10915  0.10510  1.0000
  C   C15       1.0  0.78131  0.60915  0.39490  1.0000
  C   C16       1.0  0.21869  0.89085  0.89490  1.0000
  I   I1        1.0  0.33619  0.74832  0.45424  1.0000
  I   I2        1.0  0.66381  0.75168  0.95423  1.0000
  I   I3        1.0  0.66381  0.25168  0.54576  1.0000
  I   I4        1.0  0.33619  0.24832  0.04576  1.0000
  I   I5        1.0  0.85631  0.80432  0.64441  1.0000
  I   I6        1.0  0.14369  0.69568  0.14441  1.0000
  I   I7        1.0  0.14369  0.19568  0.35559  1.0000
  I   I8        1.0  0.85631  0.30432  0.85559  1.0000
  N   N1        1.0  0.37386  0.48714  0.65453  1.0000
  N   N2        1.0  0.62614  0.01286  0.15453  1.0000
  N   N3        1.0  0.62614  0.51286  0.34547  1.0000
  N   N4        1.0  0.37386  0.98713  0.84547  1.0000
  N   N5        1.0  0.36941  0.29167  0.76317  1.0000
  N   N6        1.0  0.63059  0.20833  0.26317  1.0000
  N   N7        1.0  0.63059  0.70832  0.23683  1.0000
  N   N8        1.0  0.36941  0.79167  0.73683  1.0000
