data_image0
_chemical_formula_structural       Er2H26C36N6O16
_chemical_formula_sum              "Er2 H26 C36 N6 O16"
_cell_length_a       5.85874
_cell_length_b       10.4359
_cell_length_c       14.5911
_cell_angle_alpha    112.004
_cell_angle_beta     87.9476
_cell_angle_gamma    97.2332

_space_group_name_H-M_alt    "P 1"
_space_group_IT_number       1

loop_
  _space_group_symop_operation_xyz
  'x, y, z'

loop_
  _atom_site_type_symbol
  _atom_site_label
  _atom_site_symmetry_multiplicity
  _atom_site_fract_x
  _atom_site_fract_y
  _atom_site_fract_z
  _atom_site_occupancy
  Er  Er1       1.0  0.38641  0.25437  0.51327  1.0000
  Er  Er2       1.0  0.61360  0.74563  0.48673  1.0000
  H   H1        1.0  0.13130  0.02239  0.57875  1.0000
  H   H2        1.0  0.86871  0.97762  0.42125  1.0000
  H   H3        1.0  0.39446  0.04425  0.60440  1.0000
  H   H4        1.0  0.60555  0.95575  0.39560  1.0000
  H   H5        1.0  0.74380  0.44153  0.47351  1.0000
  H   H6        1.0  0.25621  0.55846  0.52648  1.0000
  H   H7        1.0  0.86828  0.31793  0.47537  1.0000
  H   H8        1.0  0.13173  0.68207  0.52463  1.0000
  H   H9        1.0  0.51877  0.01904  0.16544  1.0000
  H   H10       1.0  0.48121  0.98096  0.83456  1.0000
  H   H11       1.0  0.36641  0.90989  0.98963  1.0000
  H   H12       1.0  0.63358  0.09010  0.01037  1.0000
  H   H13       1.0  0.83324  0.92111  0.25825  1.0000
  H   H14       1.0  0.16672  0.07889  0.74175  1.0000
  H   H15       1.0  0.59784  0.73414  0.98602  1.0000
  H   H16       1.0  0.40215  0.26585  0.01397  1.0000
  H   H17       1.0  0.42470  0.61913  0.81642  1.0000
  H   H18       1.0  0.57530  0.38086  0.18357  1.0000
  H   H19       1.0  0.08032  0.72922  0.70316  1.0000
  H   H20       1.0  0.91970  0.27079  0.29684  1.0000
  H   H21       1.0  0.55083  0.28689  0.77793  1.0000
  H   H22       1.0  0.44917  0.71311  0.22207  1.0000
  H   H23       1.0  0.61958  0.39874  0.96166  1.0000
  H   H24       1.0  0.38042  0.60126  0.03834  1.0000
  H   H25       1.0  0.25909  0.42667  0.74136  1.0000
  H   H26       1.0  0.74091  0.57333  0.25865  1.0000
  C   C1        1.0  0.25368  0.04637  0.33190  1.0000
  C   C2        1.0  0.74630  0.95363  0.66811  1.0000
  C   C3        1.0  0.18647  0.97718  0.22589  1.0000
  C   C4        1.0  0.81351  0.02282  0.77411  1.0000
  C   C5        1.0  0.33970  0.97387  0.14928  1.0000
  C   C6        1.0  0.66028  0.02613  0.85072  1.0000
  C   C7        1.0  0.25711  0.91389  0.05223  1.0000
  C   C8        1.0  0.74286  0.08611  0.94777  1.0000
  C   C9        1.0  0.02611  0.85650  0.03403  1.0000
  C   C10       1.0  0.97387  0.14350  0.96598  1.0000
  C   C11       1.0  0.95733  0.91858  0.20033  1.0000
  C   C12       1.0  0.04265  0.08142  0.79966  1.0000
  C   C13       1.0  0.92660  0.79034  0.93276  1.0000
  C   C14       1.0  0.07339  0.20966  0.06724  1.0000
  C   C15       1.0  0.69653  0.73002  0.92078  1.0000
  C   C16       1.0  0.30346  0.26997  0.07922  1.0000
  C   C17       1.0  0.60283  0.66579  0.82664  1.0000
  C   C18       1.0  0.39718  0.33421  0.17335  1.0000
  C   C19       1.0  0.74033  0.66307  0.74580  1.0000
  C   C20       1.0  0.25968  0.33693  0.25420  1.0000
  C   C21       1.0  0.96795  0.72912  0.76457  1.0000
  C   C22       1.0  0.03205  0.27088  0.23543  1.0000
  C   C23       1.0  0.64932  0.58348  0.64352  1.0000
  C   C24       1.0  0.35069  0.41653  0.35647  1.0000
  C   C25       1.0  0.87310  0.29106  0.63628  1.0000
  C   C26       1.0  0.12691  0.70893  0.36372  1.0000
  C   C27       1.0  0.90245  0.34752  0.74556  1.0000
  C   C28       1.0  0.09754  0.65248  0.25444  1.0000
  C   C29       1.0  0.71963  0.33896  0.80841  1.0000
  C   C30       1.0  0.28038  0.66105  0.19160  1.0000
  C   C31       1.0  0.75677  0.39979  0.90975  1.0000
  C   C32       1.0  0.24324  0.60020  0.09025  1.0000
  C   C33       1.0  0.97667  0.46649  0.94618  1.0000
  C   C34       1.0  0.02333  0.53352  0.05382  1.0000
  C   C35       1.0  0.11524  0.41661  0.78888  1.0000
  C   C36       1.0  0.88476  0.58338  0.21112  1.0000
  N   N1        1.0  0.87872  0.85841  0.10791  1.0000
  N   N2        1.0  0.12126  0.14159  0.89210  1.0000
  N   N3        1.0  0.06073  0.79042  0.85552  1.0000
  N   N4        1.0  0.93926  0.20958  0.14448  1.0000
  N   N5        1.0  0.15395  0.47435  0.88610  1.0000
  N   N6        1.0  0.84605  0.52566  0.11390  1.0000
  O   O1        1.0  0.09886  0.08302  0.39769  1.0000
  O   O2        1.0  0.90114  0.91698  0.60232  1.0000
  O   O3        1.0  0.46693  0.07798  0.35831  1.0000
  O   O4        1.0  0.53306  0.92202  0.64169  1.0000
  O   O5        1.0  0.49929  0.47896  0.63014  1.0000
  O   O6        1.0  0.50073  0.52104  0.36985  1.0000
  O   O7        1.0  0.73121  0.62088  0.57305  1.0000
  O   O8        1.0  0.26881  0.37913  0.42695  1.0000
  O   O9        1.0  0.67880  0.22642  0.59967  1.0000
  O   O10       1.0  0.32123  0.77358  0.40032  1.0000
  O   O11       1.0  0.04105  0.31306  0.58337  1.0000
  O   O12       1.0  0.95897  0.68695  0.41663  1.0000
  O   O13       1.0  0.27650  0.08344  0.57978  1.0000
  O   O14       1.0  0.72351  0.91656  0.42022  1.0000
  O   O15       1.0  0.73043  0.33882  0.44915  1.0000
  O   O16       1.0  0.26958  0.66117  0.55084  1.0000
