data_image0
_chemical_formula_structural       Gd2H26C36N6O16
_chemical_formula_sum              "Gd2 H26 C36 N6 O16"
_cell_length_a       5.90757
_cell_length_b       10.4703
_cell_length_c       14.7118
_cell_angle_alpha    112.972
_cell_angle_beta     87.1441
_cell_angle_gamma    96.8346

_space_group_name_H-M_alt    "P 1"
_space_group_IT_number       1

loop_
  _space_group_symop_operation_xyz
  'x, y, z'

loop_
  _atom_site_type_symbol
  _atom_site_label
  _atom_site_symmetry_multiplicity
  _atom_site_fract_x
  _atom_site_fract_y
  _atom_site_fract_z
  _atom_site_occupancy
  Gd  Gd1       1.0  0.38430  0.25214  0.01299  1.0000
  Gd  Gd2       1.0  0.61569  0.74786  0.98701  1.0000
  H   H1        1.0  0.86848  0.31869  0.97890  1.0000
  H   H2        1.0  0.13151  0.68132  0.02110  1.0000
  H   H3        1.0  0.74276  0.43907  0.97311  1.0000
  H   H4        1.0  0.25723  0.56093  0.02690  1.0000
  H   H5        1.0  0.13019  0.02156  0.08277  1.0000
  H   H6        1.0  0.86980  0.97844  0.91723  1.0000
  H   H7        1.0  0.39107  0.04440  0.10789  1.0000
  H   H8        1.0  0.60891  0.95560  0.89211  1.0000
  H   H9        1.0  0.51388  0.01408  0.66046  1.0000
  H   H10       1.0  0.48612  0.98592  0.33954  1.0000
  H   H11       1.0  0.36216  0.90745  0.48590  1.0000
  H   H12       1.0  0.63786  0.09254  0.51410  1.0000
  H   H13       1.0  0.83580  0.92075  0.75684  1.0000
  H   H14       1.0  0.16419  0.07926  0.24317  1.0000
  H   H15       1.0  0.60177  0.73346  0.48712  1.0000
  H   H16       1.0  0.39824  0.26653  0.51288  1.0000
  H   H17       1.0  0.42800  0.61830  0.31900  1.0000
  H   H18       1.0  0.57202  0.38169  0.68100  1.0000
  H   H19       1.0  0.07303  0.72933  0.20212  1.0000
  H   H20       1.0  0.92696  0.27068  0.79788  1.0000
  H   H21       1.0  0.55249  0.28779  0.28177  1.0000
  H   H22       1.0  0.44750  0.71220  0.71823  1.0000
  H   H23       1.0  0.62414  0.39837  0.46494  1.0000
  H   H24       1.0  0.37587  0.60162  0.53505  1.0000
  H   H25       1.0  0.24960  0.43009  0.24037  1.0000
  H   H26       1.0  0.75040  0.56991  0.75963  1.0000
  C   C1        1.0  0.25469  0.04142  0.82776  1.0000
  C   C2        1.0  0.74531  0.95859  0.17224  1.0000
  C   C3        1.0  0.18564  0.97436  0.72251  1.0000
  C   C4        1.0  0.81435  0.02564  0.27749  1.0000
  C   C5        1.0  0.33637  0.97034  0.64505  1.0000
  C   C6        1.0  0.66362  0.02966  0.35495  1.0000
  C   C7        1.0  0.25376  0.91157  0.54877  1.0000
  C   C8        1.0  0.74625  0.08842  0.45123  1.0000
  C   C9        1.0  0.02485  0.85545  0.53201  1.0000
  C   C10       1.0  0.97516  0.14456  0.46799  1.0000
  C   C11       1.0  0.95847  0.91771  0.69843  1.0000
  C   C12       1.0  0.04153  0.08229  0.30156  1.0000
  C   C13       1.0  0.92487  0.78941  0.43172  1.0000
  C   C14       1.0  0.07514  0.21059  0.56828  1.0000
  C   C15       1.0  0.69780  0.72919  0.42130  1.0000
  C   C16       1.0  0.30221  0.27080  0.57870  1.0000
  C   C17       1.0  0.60359  0.66533  0.32804  1.0000
  C   C18       1.0  0.39644  0.33467  0.67196  1.0000
  C   C19       1.0  0.73758  0.66327  0.24646  1.0000
  C   C20       1.0  0.26244  0.33673  0.75354  1.0000
  C   C21       1.0  0.96265  0.72884  0.26388  1.0000
  C   C22       1.0  0.03736  0.27116  0.73613  1.0000
  C   C23       1.0  0.64605  0.58541  0.14467  1.0000
  C   C24       1.0  0.35396  0.41459  0.85533  1.0000
  C   C25       1.0  0.86699  0.29227  0.13815  1.0000
  C   C26       1.0  0.13299  0.70773  0.86185  1.0000
  C   C27       1.0  0.89838  0.34895  0.24695  1.0000
  C   C28       1.0  0.10161  0.65104  0.75305  1.0000
  C   C29       1.0  0.71938  0.33992  0.31107  1.0000
  C   C30       1.0  0.28062  0.66007  0.68893  1.0000
  C   C31       1.0  0.75820  0.40009  0.41198  1.0000
  C   C32       1.0  0.24180  0.59990  0.58802  1.0000
  C   C33       1.0  0.97569  0.46691  0.44650  1.0000
  C   C34       1.0  0.02432  0.53309  0.55349  1.0000
  C   C35       1.0  0.10891  0.41852  0.28852  1.0000
  C   C36       1.0  0.89108  0.58147  0.71148  1.0000
  N   N1        1.0  0.87987  0.85829  0.60671  1.0000
  N   N2        1.0  0.12013  0.14171  0.39329  1.0000
  N   N3        1.0  0.05592  0.78951  0.35390  1.0000
  N   N4        1.0  0.94409  0.21050  0.64610  1.0000
  N   N5        1.0  0.14899  0.47592  0.38522  1.0000
  N   N6        1.0  0.85102  0.52408  0.61477  1.0000
  O   O1        1.0  0.10237  0.07601  0.89568  1.0000
  O   O2        1.0  0.89761  0.92399  0.10432  1.0000
  O   O3        1.0  0.46647  0.07266  0.85147  1.0000
  O   O4        1.0  0.53353  0.92735  0.14853  1.0000
  O   O5        1.0  0.49312  0.48364  0.13114  1.0000
  O   O6        1.0  0.50688  0.51636  0.86886  1.0000
  O   O7        1.0  0.72999  0.62143  0.07465  1.0000
  O   O8        1.0  0.27001  0.37858  0.92535  1.0000
  O   O9        1.0  0.67540  0.22691  0.10314  1.0000
  O   O10       1.0  0.32459  0.77308  0.89685  1.0000
  O   O11       1.0  0.03104  0.31450  0.08395  1.0000
  O   O12       1.0  0.96894  0.68550  0.91604  1.0000
  O   O13       1.0  0.73507  0.33643  0.94917  1.0000
  O   O14       1.0  0.26492  0.66357  0.05084  1.0000
  O   O15       1.0  0.27450  0.08062  0.08152  1.0000
  O   O16       1.0  0.72549  0.91938  0.91848  1.0000
