data_image0
_chemical_formula_structural       Tb2H26C36N6O16
_chemical_formula_sum              "Tb2 H26 C36 N6 O16"
_cell_length_a       5.88648
_cell_length_b       10.4772
_cell_length_c       14.6966
_cell_angle_alpha    113.043
_cell_angle_beta     87.0783
_cell_angle_gamma    96.8904

_space_group_name_H-M_alt    "P 1"
_space_group_IT_number       1

loop_
  _space_group_symop_operation_xyz
  'x, y, z'

loop_
  _atom_site_type_symbol
  _atom_site_label
  _atom_site_symmetry_multiplicity
  _atom_site_fract_x
  _atom_site_fract_y
  _atom_site_fract_z
  _atom_site_occupancy
  Tb  Tb1       1.0  0.38337  0.25282  0.51303  1.0000
  Tb  Tb2       1.0  0.61664  0.74718  0.48697  1.0000
  H   H1        1.0  0.86767  0.31810  0.47828  1.0000
  H   H2        1.0  0.13235  0.68190  0.52172  1.0000
  H   H3        1.0  0.74146  0.43845  0.47270  1.0000
  H   H4        1.0  0.25855  0.56155  0.52729  1.0000
  H   H5        1.0  0.12982  0.02150  0.58197  1.0000
  H   H6        1.0  0.87019  0.97850  0.41803  1.0000
  H   H7        1.0  0.39194  0.04428  0.60633  1.0000
  H   H8        1.0  0.60807  0.95572  0.39367  1.0000
  H   H9        1.0  0.51566  0.01645  0.16136  1.0000
  H   H10       1.0  0.48432  0.98355  0.83865  1.0000
  H   H11       1.0  0.36404  0.90888  0.98639  1.0000
  H   H12       1.0  0.63594  0.09113  0.01361  1.0000
  H   H13       1.0  0.83527  0.92021  0.25738  1.0000
  H   H14       1.0  0.16471  0.07978  0.74263  1.0000
  H   H15       1.0  0.60209  0.73248  0.98711  1.0000
  H   H16       1.0  0.39791  0.26752  0.01288  1.0000
  H   H17       1.0  0.42808  0.61664  0.81894  1.0000
  H   H18       1.0  0.57193  0.38337  0.18105  1.0000
  H   H19       1.0  0.07343  0.72997  0.70155  1.0000
  H   H20       1.0  0.92658  0.27003  0.29845  1.0000
  H   H21       1.0  0.55085  0.28606  0.78170  1.0000
  H   H22       1.0  0.44914  0.71394  0.21830  1.0000
  H   H23       1.0  0.62346  0.39673  0.96502  1.0000
  H   H24       1.0  0.37653  0.60326  0.03498  1.0000
  H   H25       1.0  0.24849  0.43139  0.73954  1.0000
  H   H26       1.0  0.75150  0.56861  0.26047  1.0000
  C   C1        1.0  0.25538  0.04247  0.32869  1.0000
  C   C2        1.0  0.74460  0.95752  0.67131  1.0000
  C   C3        1.0  0.18643  0.97501  0.22320  1.0000
  C   C4        1.0  0.81358  0.02498  0.77680  1.0000
  C   C5        1.0  0.33790  0.97179  0.14578  1.0000
  C   C6        1.0  0.66209  0.02822  0.85423  1.0000
  C   C7        1.0  0.25536  0.91265  0.04931  1.0000
  C   C8        1.0  0.74463  0.08735  0.95069  1.0000
  C   C9        1.0  0.02607  0.85565  0.03235  1.0000
  C   C10       1.0  0.97393  0.14435  0.96764  1.0000
  C   C11       1.0  0.95867  0.91752  0.19896  1.0000
  C   C12       1.0  0.04132  0.08247  0.80104  1.0000
  C   C13       1.0  0.92621  0.78941  0.93176  1.0000
  C   C14       1.0  0.07376  0.21058  0.06823  1.0000
  C   C15       1.0  0.69860  0.72848  0.92127  1.0000
  C   C16       1.0  0.30139  0.27151  0.07873  1.0000
  C   C17       1.0  0.60406  0.66430  0.82790  1.0000
  C   C18       1.0  0.39593  0.33571  0.17210  1.0000
  C   C19       1.0  0.73814  0.66295  0.74625  1.0000
  C   C20       1.0  0.26185  0.33706  0.25377  1.0000
  C   C21       1.0  0.96364  0.72917  0.76361  1.0000
  C   C22       1.0  0.03637  0.27084  0.23639  1.0000
  C   C23       1.0  0.64577  0.58526  0.64441  1.0000
  C   C24       1.0  0.35424  0.41474  0.35558  1.0000
  C   C25       1.0  0.86566  0.29240  0.63770  1.0000
  C   C26       1.0  0.13435  0.70761  0.36230  1.0000
  C   C27       1.0  0.89727  0.34890  0.74657  1.0000
  C   C28       1.0  0.10274  0.65110  0.25343  1.0000
  C   C29       1.0  0.71822  0.33894  0.81084  1.0000
  C   C30       1.0  0.28179  0.66106  0.18916  1.0000
  C   C31       1.0  0.75753  0.39920  0.91188  1.0000
  C   C32       1.0  0.24248  0.60080  0.08813  1.0000
  C   C33       1.0  0.97547  0.46688  0.94639  1.0000
  C   C34       1.0  0.02453  0.53312  0.05361  1.0000
  C   C35       1.0  0.10813  0.41933  0.78803  1.0000
  C   C36       1.0  0.89187  0.58067  0.21198  1.0000
  N   N1        1.0  0.88039  0.85786  0.10700  1.0000
  N   N2        1.0  0.11959  0.14213  0.89300  1.0000
  N   N3        1.0  0.05737  0.78989  0.85375  1.0000
  N   N4        1.0  0.94263  0.21011  0.14625  1.0000
  N   N5        1.0  0.14872  0.47660  0.88486  1.0000
  N   N6        1.0  0.85127  0.52340  0.11514  1.0000
  O   O1        1.0  0.10212  0.07748  0.39659  1.0000
  O   O2        1.0  0.89787  0.92252  0.60342  1.0000
  O   O3        1.0  0.46783  0.07387  0.35262  1.0000
  O   O4        1.0  0.53215  0.92612  0.64739  1.0000
  O   O5        1.0  0.49233  0.48341  0.63083  1.0000
  O   O6        1.0  0.50768  0.51658  0.36917  1.0000
  O   O7        1.0  0.72961  0.62151  0.57436  1.0000
  O   O8        1.0  0.27040  0.37849  0.42563  1.0000
  O   O9        1.0  0.67295  0.22773  0.60270  1.0000
  O   O10       1.0  0.32708  0.77227  0.39730  1.0000
  O   O11       1.0  0.03065  0.31423  0.58343  1.0000
  O   O12       1.0  0.96935  0.68578  0.41658  1.0000
  O   O13       1.0  0.73294  0.33591  0.44922  1.0000
  O   O14       1.0  0.26707  0.66409  0.55078  1.0000
  O   O15       1.0  0.27424  0.08097  0.58079  1.0000
  O   O16       1.0  0.72577  0.91903  0.41921  1.0000
