data_image0
_chemical_formula_structural       Cu3H24C14N22O2
_chemical_formula_sum              "Cu3 H24 C14 N22 O2"
_cell_length_a       7.70135
_cell_length_b       8.51172
_cell_length_c       11.059
_cell_angle_alpha    91.5239
_cell_angle_beta     107.44
_cell_angle_gamma    93.5233

_space_group_name_H-M_alt    "P 1"
_space_group_IT_number       1

loop_
  _space_group_symop_operation_xyz
  'x, y, z'

loop_
  _atom_site_type_symbol
  _atom_site_label
  _atom_site_symmetry_multiplicity
  _atom_site_fract_x
  _atom_site_fract_y
  _atom_site_fract_z
  _atom_site_occupancy
  Cu  Cu1       1.0  0.49883  0.49883  0.49976  1.0000
  Cu  Cu2       1.0  0.10595  0.35423  0.42390  1.0000
  Cu  Cu3       1.0  0.89560  0.64556  0.57622  1.0000
  H   H1        1.0  0.69317  0.27475  0.95614  1.0000
  H   H2        1.0  0.30698  0.72544  0.04397  1.0000
  H   H3        1.0  0.87918  0.02629  0.39402  1.0000
  H   H4        1.0  0.12070  0.97350  0.60593  1.0000
  H   H5        1.0  0.92901  0.89561  0.28123  1.0000
  H   H6        1.0  0.07125  0.10423  0.71883  1.0000
  H   H7        1.0  0.92499  0.58603  0.25231  1.0000
  H   H8        1.0  0.07560  0.41387  0.74792  1.0000
  H   H9        1.0  0.71916  0.57595  0.12198  1.0000
  H   H10       1.0  0.28097  0.42371  0.87861  1.0000
  H   H11       1.0  0.93168  0.58116  0.09193  1.0000
  H   H12       1.0  0.06810  0.41899  0.90808  1.0000
  H   H13       1.0  0.78853  0.84711  0.09950  1.0000
  H   H14       1.0  0.21197  0.15284  0.90016  1.0000
  H   H15       1.0  0.82467  0.92941  0.96307  1.0000
  H   H16       1.0  0.17459  0.07100  0.03638  1.0000
  H   H17       1.0  0.60691  0.92522  0.98506  1.0000
  H   H18       1.0  0.39284  0.07472  0.01517  1.0000
  H   H19       1.0  0.40129  0.02694  0.38581  1.0000
  H   H20       1.0  0.59869  0.97340  0.61411  1.0000
  H   H21       1.0  0.24249  0.06942  0.23850  1.0000
  H   H22       1.0  0.75705  0.93061  0.76142  1.0000
  H   H23       1.0  0.23727  0.87435  0.29676  1.0000
  H   H24       1.0  0.76286  0.12576  0.70339  1.0000
  C   C1        1.0  0.76876  0.25013  0.05266  1.0000
  C   C2        1.0  0.23151  0.74987  0.94744  1.0000
  C   C3        1.0  0.84948  0.36063  0.15409  1.0000
  C   C4        1.0  0.15100  0.63925  0.84608  1.0000
  C   C5        1.0  0.95646  0.01484  0.32595  1.0000
  C   C6        1.0  0.04349  0.98504  0.67403  1.0000
  C   C7        1.0  0.80197  0.10153  0.10057  1.0000
  C   C8        1.0  0.19809  0.89843  0.89943  1.0000
  C   C9        1.0  0.85748  0.53572  0.15602  1.0000
  C   C10       1.0  0.14281  0.46418  0.84425  1.0000
  C   C11       1.0  0.75358  0.94291  0.03476  1.0000
  C   C12       1.0  0.24631  0.05714  0.96508  1.0000
  C   C13       1.0  0.26204  0.00095  0.32392  1.0000
  C   C14       1.0  0.73789  0.99921  0.67611  1.0000
  N   N1        1.0  0.67158  0.61214  0.42131  1.0000
  N   N2        1.0  0.32813  0.38789  0.57931  1.0000
  N   N3        1.0  0.92636  0.28344  0.25926  1.0000
  N   N4        1.0  0.07410  0.71634  0.74088  1.0000
  N   N5        1.0  0.89738  0.12623  0.22605  1.0000
  N   N6        1.0  0.10271  0.87360  0.77396  1.0000
  N   N7        1.0  0.28363  0.46494  0.34399  1.0000
  N   N8        1.0  0.71604  0.53558  0.65537  1.0000
  N   N9        1.0  0.78418  0.28052  0.48443  1.0000
  N   N10       1.0  0.21540  0.72050  0.51513  1.0000
  N   N11       1.0  0.94531  0.31384  0.52997  1.0000
  N   N12       1.0  0.05424  0.68709  0.46951  1.0000
  N   N13       1.0  0.62260  0.70857  0.34139  1.0000
  N   N14       1.0  0.37716  0.29110  0.65878  1.0000
  N   N15       1.0  0.30527  0.42216  0.24390  1.0000
  N   N16       1.0  0.69538  0.57701  0.75615  1.0000
  N   N17       1.0  0.62604  0.25235  0.44654  1.0000
  N   N18       1.0  0.37343  0.74897  0.55289  1.0000
  N   N19       1.0  0.57485  0.79751  0.26232  1.0000
  N   N20       1.0  0.42428  0.20236  0.73815  1.0000
  N   N21       1.0  0.32413  0.38561  0.14711  1.0000
  N   N22       1.0  0.67666  0.61341  0.85299  1.0000
  O   O1        1.0  0.14213  0.04643  0.39450  1.0000
  O   O2        1.0  0.85781  0.95362  0.60560  1.0000
