data_image0
_chemical_formula_structural       K2H48C24Br6O12
_chemical_formula_sum              "K2 H48 C24 Br6 O12"
_cell_length_a       7.9535
_cell_length_b       8.95202
_cell_length_c       14.028
_cell_angle_alpha    104.389
_cell_angle_beta     90
_cell_angle_gamma    90

_space_group_name_H-M_alt    "P 1"
_space_group_IT_number       1

loop_
  _space_group_symop_operation_xyz
  'x, y, z'

loop_
  _atom_site_type_symbol
  _atom_site_label
  _atom_site_symmetry_multiplicity
  _atom_site_fract_x
  _atom_site_fract_y
  _atom_site_fract_z
  _atom_site_occupancy
  K   K1        1.0  0.50000  0.50000  0.50000  1.0000
  K   K2        1.0  1.00000  0.00000  0.00000  1.0000
  H   H1        1.0  0.36615  0.79771  0.81402  1.0000
  H   H2        1.0  0.86615  0.70229  0.68597  1.0000
  H   H3        1.0  0.63385  0.20229  0.18598  1.0000
  H   H4        1.0  0.13385  0.29771  0.31402  1.0000
  H   H5        1.0  0.57415  0.77141  0.76546  1.0000
  H   H6        1.0  0.07415  0.72859  0.73454  1.0000
  H   H7        1.0  0.42585  0.22859  0.23454  1.0000
  H   H8        1.0  0.92585  0.27141  0.26546  1.0000
  H   H9        1.0  0.46927  0.55818  0.83996  1.0000
  H   H10       1.0  0.96927  0.94182  0.66004  1.0000
  H   H11       1.0  0.53073  0.44182  0.16004  1.0000
  H   H12       1.0  0.03073  0.05818  0.33996  1.0000
  H   H13       1.0  0.31395  0.51156  0.74454  1.0000
  H   H14       1.0  0.81395  0.98844  0.75546  1.0000
  H   H15       1.0  0.68605  0.48844  0.25546  1.0000
  H   H16       1.0  0.18605  0.01156  0.24454  1.0000
  H   H17       1.0  0.44044  0.26526  0.69312  1.0000
  H   H18       1.0  0.94044  0.23474  0.80688  1.0000
  H   H19       1.0  0.55956  0.73474  0.30688  1.0000
  H   H20       1.0  0.05956  0.76526  0.19312  1.0000
  H   H21       1.0  0.61459  0.30924  0.77639  1.0000
  H   H22       1.0  0.11459  0.19076  0.72361  1.0000
  H   H23       1.0  0.38541  0.69076  0.22361  1.0000
  H   H24       1.0  0.88541  0.80924  0.27639  1.0000
  H   H25       1.0  0.80613  0.28446  0.62586  1.0000
  H   H26       1.0  0.30613  0.21554  0.87414  1.0000
  H   H27       1.0  0.19387  0.71554  0.37414  1.0000
  H   H28       1.0  0.69387  0.78446  0.12586  1.0000
  H   H29       1.0  0.70442  0.11057  0.63520  1.0000
  H   H30       1.0  0.20442  0.38943  0.86480  1.0000
  H   H31       1.0  0.29558  0.88943  0.36480  1.0000
  H   H32       1.0  0.79558  0.61057  0.13520  1.0000
  H   H33       1.0  0.70527  0.00072  0.46043  1.0000
  H   H34       1.0  0.20528  0.49928  0.03957  1.0000
  H   H35       1.0  0.29472  0.99928  0.53957  1.0000
  H   H36       1.0  0.79473  0.50072  0.96043  1.0000
  H   H37       1.0  0.82704  0.16525  0.45164  1.0000
  H   H38       1.0  0.32704  0.33475  0.04836  1.0000
  H   H39       1.0  0.17296  0.83475  0.54836  1.0000
  H   H40       1.0  0.67296  0.66525  0.95164  1.0000
  H   H41       1.0  0.32535  0.96466  0.70495  1.0000
  H   H42       1.0  0.82535  0.53534  0.79505  1.0000
  H   H43       1.0  0.67465  0.03534  0.29505  1.0000
  H   H44       1.0  0.17465  0.46466  0.20495  1.0000
  H   H45       1.0  0.52191  0.91686  0.64162  1.0000
  H   H46       1.0  0.02191  0.58314  0.85838  1.0000
  H   H47       1.0  0.47809  0.08314  0.35838  1.0000
  H   H48       1.0  0.97809  0.41686  0.14162  1.0000
  C   C1        1.0  0.44453  0.72573  0.75524  1.0000
  C   C2        1.0  0.94453  0.77428  0.74476  1.0000
  C   C3        1.0  0.55547  0.27428  0.24476  1.0000
  C   C4        1.0  0.05547  0.22572  0.25524  1.0000
  C   C5        1.0  0.44070  0.56116  0.76339  1.0000
  C   C6        1.0  0.94070  0.93884  0.73661  1.0000
  C   C7        1.0  0.55930  0.43884  0.23661  1.0000
  C   C8        1.0  0.05930  0.06116  0.26339  1.0000
  C   C9        1.0  0.56801  0.31601  0.70321  1.0000
  C   C10       1.0  0.06801  0.18399  0.79679  1.0000
  C   C11       1.0  0.43199  0.68398  0.29679  1.0000
  C   C12       1.0  0.93199  0.81601  0.20321  1.0000
  C   C13       1.0  0.68268  0.22678  0.62366  1.0000
  C   C14       1.0  0.18268  0.27322  0.87634  1.0000
  C   C15       1.0  0.31732  0.77322  0.37634  1.0000
  C   C16       1.0  0.81732  0.72678  0.12366  1.0000
  C   C17       1.0  0.69781  0.11989  0.45137  1.0000
  C   C18       1.0  0.19781  0.38011  0.04863  1.0000
  C   C19       1.0  0.30218  0.88011  0.54863  1.0000
  C   C20       1.0  0.80218  0.61989  0.95137  1.0000
  C   C21       1.0  0.38899  0.88146  0.64429  1.0000
  C   C22       1.0  0.88899  0.61854  0.85571  1.0000
  C   C23       1.0  0.61101  0.11854  0.35571  1.0000
  C   C24       1.0  0.11101  0.38146  0.14429  1.0000
  Br  Br1       1.0  0.83177  0.72488  0.46405  1.0000
  Br  Br2       1.0  0.33177  0.77512  0.03595  1.0000
  Br  Br3       1.0  0.16823  0.27512  0.53595  1.0000
  Br  Br4       1.0  0.66823  0.22488  0.96405  1.0000
  Br  Br5       1.0  0.00000  0.50000  0.50000  1.0000
  Br  Br6       1.0  0.50000  1.00000  1.00000  1.0000
  O   O1        1.0  0.38117  0.73020  0.66052  1.0000
  O   O2        1.0  0.88117  0.76980  0.83948  1.0000
  O   O3        1.0  0.61883  0.26980  0.33948  1.0000
  O   O4        1.0  0.11883  0.23020  0.16052  1.0000
  O   O5        1.0  0.56128  0.47290  0.69674  1.0000
  O   O6        1.0  0.06128  0.02710  0.80326  1.0000
  O   O7        1.0  0.43872  0.52710  0.30326  1.0000
  O   O8        1.0  0.93872  0.97290  0.19674  1.0000
  O   O9        1.0  0.60382  0.21438  0.53060  1.0000
  O   O10       1.0  0.10382  0.28562  0.96940  1.0000
  O   O11       1.0  0.39618  0.78562  0.46940  1.0000
  O   O12       1.0  0.89618  0.71438  0.03060  1.0000
