data_image0
_chemical_formula_structural       Ag2H34C40N4O8
_chemical_formula_sum              "Ag2 H34 C40 N4 O8"
_cell_length_a       8.3551
_cell_length_b       9.77945
_cell_length_c       11.7658
_cell_angle_alpha    89.408
_cell_angle_beta     73.9015
_cell_angle_gamma    77.6286

_space_group_name_H-M_alt    "P 1"
_space_group_IT_number       1

loop_
  _space_group_symop_operation_xyz
  'x, y, z'

loop_
  _atom_site_type_symbol
  _atom_site_label
  _atom_site_symmetry_multiplicity
  _atom_site_fract_x
  _atom_site_fract_y
  _atom_site_fract_z
  _atom_site_occupancy
  Ag  Ag1       1.0  0.63823  0.44682  0.55437  1.0000
  Ag  Ag2       1.0  0.36177  0.55318  0.44563  1.0000
  H   H1        1.0  0.53628  0.30296  0.78412  1.0000
  H   H2        1.0  0.46372  0.69704  0.21588  1.0000
  H   H3        1.0  0.31687  0.34245  0.98363  1.0000
  H   H4        1.0  0.68313  0.65755  0.01637  1.0000
  H   H5        1.0  0.09533  0.56797  0.02695  1.0000
  H   H6        1.0  0.90466  0.43203  0.97305  1.0000
  H   H7        1.0  0.34136  0.69386  0.68140  1.0000
  H   H8        1.0  0.65863  0.30614  0.31860  1.0000
  H   H9        1.0  0.12888  0.87355  0.86039  1.0000
  H   H10       1.0  0.87112  0.12645  0.13961  1.0000
  H   H11       1.0  0.99256  0.78606  0.81024  1.0000
  H   H12       1.0  0.00744  0.21394  0.18976  1.0000
  H   H13       1.0  0.75323  0.82367  0.19962  1.0000
  H   H14       1.0  0.24677  0.17634  0.80038  1.0000
  H   H15       1.0  0.50424  0.01643  0.28045  1.0000
  H   H16       1.0  0.49576  0.98357  0.71954  1.0000
  H   H17       1.0  0.60993  0.21157  0.94544  1.0000
  H   H18       1.0  0.39007  0.78844  0.05456  1.0000
  H   H19       1.0  0.85950  0.01763  0.86400  1.0000
  H   H20       1.0  0.14050  0.98237  0.13600  1.0000
  H   H21       1.0  0.37756  0.24311  0.33605  1.0000
  H   H22       1.0  0.62244  0.75689  0.66395  1.0000
  H   H23       1.0  0.24907  0.14311  0.29027  1.0000
  H   H24       1.0  0.75093  0.85689  0.70973  1.0000
  H   H25       1.0  0.98319  0.26392  0.43041  1.0000
  H   H26       1.0  0.01681  0.73607  0.56959  1.0000
  H   H27       1.0  0.28148  0.49982  0.17665  1.0000
  H   H28       1.0  0.71852  0.50018  0.82335  1.0000
  H   H29       1.0  0.03271  0.70662  0.23633  1.0000
  H   H30       1.0  0.96729  0.29338  0.76368  1.0000
  H   H31       1.0  0.76881  0.67857  0.39597  1.0000
  H   H32       1.0  0.23119  0.32143  0.60403  1.0000
  H   H33       1.0  0.68561  0.92704  0.49259  1.0000
  H   H34       1.0  0.31440  0.07296  0.50740  1.0000
  C   C1        1.0  0.43986  0.40058  0.80935  1.0000
  C   C2        1.0  0.56014  0.59942  0.19065  1.0000
  C   C3        1.0  0.31729  0.42257  0.91865  1.0000
  C   C4        1.0  0.68271  0.57743  0.08135  1.0000
  C   C5        1.0  0.19425  0.54797  0.94286  1.0000
  C   C6        1.0  0.80575  0.45203  0.05714  1.0000
  C   C7        1.0  0.19772  0.64808  0.85739  1.0000
  C   C8        1.0  0.80228  0.35192  0.14261  1.0000
  C   C9        1.0  0.32837  0.61910  0.75117  1.0000
  C   C10       1.0  0.67163  0.38090  0.24883  1.0000
  C   C11       1.0  0.06655  0.78362  0.87509  1.0000
  C   C12       1.0  0.93345  0.21638  0.12491  1.0000
  C   C13       1.0  0.82191  0.90592  0.02693  1.0000
  C   C14       1.0  0.17809  0.09408  0.97306  1.0000
  C   C15       1.0  0.72054  0.90871  0.14393  1.0000
  C   C16       1.0  0.27946  0.09130  0.85607  1.0000
  C   C17       1.0  0.57935  0.01785  0.18906  1.0000
  C   C18       1.0  0.42064  0.98215  0.81094  1.0000
  C   C19       1.0  0.53822  0.12688  0.11697  1.0000
  C   C20       1.0  0.46178  0.87312  0.88303  1.0000
  C   C21       1.0  0.64079  0.12535  0.00048  1.0000
  C   C22       1.0  0.35921  0.87465  0.99951  1.0000
  C   C23       1.0  0.78170  0.01545  0.95483  1.0000
  C   C24       1.0  0.21830  0.98455  0.04517  1.0000
  C   C25       1.0  0.29886  0.23965  0.27472  1.0000
  C   C26       1.0  0.70114  0.76035  0.72528  1.0000
  C   C27       1.0  0.15400  0.36606  0.30013  1.0000
  C   C28       1.0  0.84600  0.63394  0.69987  1.0000
  C   C29       1.0  0.00216  0.36050  0.38612  1.0000
  C   C30       1.0  0.99784  0.63950  0.61388  1.0000
  C   C31       1.0  0.16570  0.49241  0.24499  1.0000
  C   C32       1.0  0.83430  0.50759  0.75501  1.0000
  C   C33       1.0  0.02741  0.60696  0.27803  1.0000
  C   C34       1.0  0.97259  0.39304  0.72197  1.0000
  C   C35       1.0  0.88171  0.59333  0.36590  1.0000
  C   C36       1.0  0.11829  0.40667  0.63410  1.0000
  C   C37       1.0  0.60318  0.15830  0.51224  1.0000
  C   C38       1.0  0.39682  0.84170  0.48776  1.0000
  C   C39       1.0  0.57577  0.01358  0.49930  1.0000
  C   C40       1.0  0.42424  0.98642  0.50070  1.0000
  N   N1        1.0  0.44625  0.49804  0.72729  1.0000
  N   N2        1.0  0.55375  0.50196  0.27271  1.0000
  N   N3        1.0  0.86964  0.47148  0.41881  1.0000
  N   N4        1.0  0.13036  0.52852  0.58119  1.0000
  O   O1        1.0  0.73416  0.16947  0.54298  1.0000
  O   O2        1.0  0.26584  0.83054  0.45703  1.0000
  O   O3        1.0  0.49141  0.26109  0.49297  1.0000
  O   O4        1.0  0.50860  0.73891  0.50703  1.0000
  O   O5        1.0  0.95621  0.79198  0.99251  1.0000
  O   O6        1.0  0.04379  0.20802  0.00749  1.0000
  O   O7        1.0  0.40046  0.23827  0.15418  1.0000
  O   O8        1.0  0.59953  0.76173  0.84582  1.0000
