data_image0
_chemical_formula_structural       Ag2H40C36S2N6O6
_chemical_formula_sum              "Ag2 H40 C36 S2 N6 O6"
_cell_length_a       7.2576
_cell_length_b       7.25757
_cell_length_c       15.749
_cell_angle_alpha    93.9144
_cell_angle_beta     93.9143
_cell_angle_gamma    93.0736

_space_group_name_H-M_alt    "P 1"
_space_group_IT_number       1

loop_
  _space_group_symop_operation_xyz
  'x, y, z'

loop_
  _atom_site_type_symbol
  _atom_site_label
  _atom_site_symmetry_multiplicity
  _atom_site_fract_x
  _atom_site_fract_y
  _atom_site_fract_z
  _atom_site_occupancy
  Ag  Ag1       1.0  0.68812  0.49923  0.08488  1.0000
  Ag  Ag2       1.0  0.49923  0.68812  0.58488  1.0000
  H   H1        1.0  0.13778  0.25709  0.28910  1.0000
  H   H2        1.0  0.25709  0.13777  0.78910  1.0000
  H   H3        1.0  0.38280  0.16986  0.19434  1.0000
  H   H4        1.0  0.16986  0.38280  0.69434  1.0000
  H   H5        1.0  0.29645  0.99451  0.05356  1.0000
  H   H6        1.0  0.99450  0.29645  0.55356  1.0000
  H   H7        1.0  0.06732  0.84979  0.94877  1.0000
  H   H8        1.0  0.84978  0.06731  0.44876  1.0000
  H   H9        1.0  0.48823  0.87402  0.98859  1.0000
  H   H10       1.0  0.87402  0.48822  0.48859  1.0000
  H   H11       1.0  0.56408  0.04429  0.12911  1.0000
  H   H12       1.0  0.04429  0.56407  0.62911  1.0000
  H   H13       1.0  0.81139  0.34758  0.95034  1.0000
  H   H14       1.0  0.34758  0.81138  0.45034  1.0000
  H   H15       1.0  0.99095  0.20129  0.92333  1.0000
  H   H16       1.0  0.20129  0.99095  0.42333  1.0000
  H   H17       1.0  0.97871  0.42101  0.87969  1.0000
  H   H18       1.0  0.42100  0.97871  0.37969  1.0000
  H   H19       1.0  0.86697  0.68483  0.20472  1.0000
  H   H20       1.0  0.68483  0.86696  0.70471  1.0000
  H   H21       1.0  0.07843  0.80587  0.24368  1.0000
  H   H22       1.0  0.80587  0.07843  0.74367  1.0000
  H   H23       1.0  0.02458  0.57951  0.27472  1.0000
  H   H24       1.0  0.57951  0.02458  0.77472  1.0000
  H   H25       1.0  0.56083  0.70272  0.20205  1.0000
  H   H26       1.0  0.70272  0.56083  0.70205  1.0000
  H   H27       1.0  0.41513  0.60260  0.27445  1.0000
  H   H28       1.0  0.60260  0.41513  0.77445  1.0000
  H   H29       1.0  0.37116  0.82312  0.23705  1.0000
  H   H30       1.0  0.82312  0.37116  0.73704  1.0000
  H   H31       1.0  0.51058  0.40501  0.94019  1.0000
  H   H32       1.0  0.40500  0.51058  0.44019  1.0000
  H   H33       1.0  0.30161  0.41619  0.87514  1.0000
  H   H34       1.0  0.41619  0.30161  0.37514  1.0000
  H   H35       1.0  0.34468  0.21204  0.92795  1.0000
  H   H36       1.0  0.21203  0.34468  0.42795  1.0000
  H   H37       1.0  0.59090  0.75052  0.85856  1.0000
  H   H38       1.0  0.75052  0.59090  0.35856  1.0000
  H   H39       1.0  0.82409  0.71745  0.84438  1.0000
  H   H40       1.0  0.71745  0.82409  0.34438  1.0000
  C   C1        1.0  0.91654  0.14354  0.20210  1.0000
  C   C2        1.0  0.14353  0.91654  0.70210  1.0000
  C   C3        1.0  0.10097  0.18328  0.22744  1.0000
  C   C4        1.0  0.18327  0.10096  0.72743  1.0000
  C   C5        1.0  0.23917  0.13099  0.17344  1.0000
  C   C6        1.0  0.13099  0.23916  0.67344  1.0000
  C   C7        1.0  0.19093  0.03590  0.09575  1.0000
  C   C8        1.0  0.03589  0.19093  0.59575  1.0000
  C   C9        1.0  0.95625  0.89082  0.98819  1.0000
  C   C10       1.0  0.89082  0.95625  0.48818  1.0000
  C   C11       1.0  0.77210  0.84674  0.95936  1.0000
  C   C12       1.0  0.84673  0.77209  0.45936  1.0000
  C   C13       1.0  0.63168  0.90701  0.01228  1.0000
  C   C14       1.0  0.90701  0.63167  0.51228  1.0000
  C   C15       1.0  0.67457  0.00342  0.09008  1.0000
  C   C16       1.0  0.00341  0.67456  0.59008  1.0000
  C   C17       1.0  0.86090  0.04750  0.12151  1.0000
  C   C18       1.0  0.04749  0.86089  0.62151  1.0000
  C   C19       1.0  0.00288  0.98954  0.06772  1.0000
  C   C20       1.0  0.98954  0.00288  0.56772  1.0000
  C   C21       1.0  0.07663  0.43408  0.01097  1.0000
  C   C22       1.0  0.43407  0.07662  0.51097  1.0000
  C   C23       1.0  0.10415  0.58876  0.14615  1.0000
  C   C24       1.0  0.58875  0.10414  0.64615  1.0000
  C   C25       1.0  0.29847  0.59518  0.14518  1.0000
  C   C26       1.0  0.59517  0.29847  0.64518  1.0000
  C   C27       1.0  0.27138  0.44256  0.00970  1.0000
  C   C28       1.0  0.44256  0.27137  0.50970  1.0000
  C   C29       1.0  0.95775  0.34590  0.93689  1.0000
  C   C30       1.0  0.34590  0.95774  0.43689  1.0000
  C   C31       1.0  0.01432  0.66938  0.22127  1.0000
  C   C32       1.0  0.66937  0.01431  0.72127  1.0000
  C   C33       1.0  0.41718  0.68558  0.21869  1.0000
  C   C34       1.0  0.68557  0.41718  0.71869  1.0000
  C   C35       1.0  0.36199  0.36428  0.93414  1.0000
  C   C36       1.0  0.36427  0.36200  0.43414  1.0000
  S   S1        1.0  0.75229  0.21882  0.27434  1.0000
  S   S2        1.0  0.21882  0.75229  0.77434  1.0000
  N   N1        1.0  0.99622  0.50726  0.07935  1.0000
  N   N2        1.0  0.50725  0.99621  0.57935  1.0000
  N   N3        1.0  0.37921  0.52102  0.07708  1.0000
  N   N4        1.0  0.52101  0.37921  0.57708  1.0000
  N   N5        1.0  0.72249  0.74352  0.88451  1.0000
  N   N6        1.0  0.74352  0.72249  0.38451  1.0000
  O   O1        1.0  0.63670  0.34674  0.22823  1.0000
  O   O2        1.0  0.34674  0.63670  0.72823  1.0000
  O   O3        1.0  0.85795  0.31246  0.34952  1.0000
  O   O4        1.0  0.31246  0.85795  0.84952  1.0000
  O   O5        1.0  0.64462  0.05085  0.29371  1.0000
  O   O6        1.0  0.05085  0.64461  0.79371  1.0000
