data_image0
_chemical_formula_structural       Cu4H48C44S4N16O12
_chemical_formula_sum              "Cu4 H48 C44 S4 N16 O12"
_cell_length_a       10.3585
_cell_length_b       11.1222
_cell_length_c       11.6291
_cell_angle_alpha    89.997
_cell_angle_beta     104.23
_cell_angle_gamma    89.9996

_space_group_name_H-M_alt    "P 1"
_space_group_IT_number       1

loop_
  _space_group_symop_operation_xyz
  'x, y, z'

loop_
  _atom_site_type_symbol
  _atom_site_label
  _atom_site_symmetry_multiplicity
  _atom_site_fract_x
  _atom_site_fract_y
  _atom_site_fract_z
  _atom_site_occupancy
  Cu  Cu1       1.0  0.36564  0.75735  0.17089  1.0000
  Cu  Cu2       1.0  0.63438  0.25740  0.32908  1.0000
  Cu  Cu3       1.0  0.63443  0.24264  0.82907  1.0000
  Cu  Cu4       1.0  0.36562  0.74262  0.67093  1.0000
  H   H1        1.0  0.26960  0.37476  0.25838  1.0000
  H   H2        1.0  0.73037  0.87479  0.24159  1.0000
  H   H3        1.0  0.73042  0.62528  0.74163  1.0000
  H   H4        1.0  0.26952  0.12522  0.75841  1.0000
  H   H5        1.0  0.14194  0.22238  0.11864  1.0000
  H   H6        1.0  0.85798  0.72239  0.38135  1.0000
  H   H7        1.0  0.85807  0.77763  0.88139  1.0000
  H   H8        1.0  0.14190  0.27760  0.61864  1.0000
  H   H9        1.0  0.07171  0.48138  0.83611  1.0000
  H   H10       1.0  0.92822  0.98137  0.66388  1.0000
  H   H11       1.0  0.92829  0.51859  0.16389  1.0000
  H   H12       1.0  0.07175  0.01861  0.33612  1.0000
  H   H13       1.0  0.12658  0.67926  0.86664  1.0000
  H   H14       1.0  0.87328  0.17925  0.63338  1.0000
  H   H15       1.0  0.87327  0.32075  0.13341  1.0000
  H   H16       1.0  0.12664  0.82074  0.36666  1.0000
  H   H17       1.0  0.12658  0.91706  0.98392  1.0000
  H   H18       1.0  0.87338  0.41710  0.51611  1.0000
  H   H19       1.0  0.87342  0.08289  0.01610  1.0000
  H   H20       1.0  0.12664  0.58290  0.48390  1.0000
  H   H21       1.0  0.19596  0.87307  0.86481  1.0000
  H   H22       1.0  0.80396  0.37307  0.63519  1.0000
  H   H23       1.0  0.80403  0.12694  0.13518  1.0000
  H   H24       1.0  0.19604  0.62694  0.36483  1.0000
  H   H25       1.0  0.41941  0.92619  0.97470  1.0000
  H   H26       1.0  0.58054  0.42618  0.52527  1.0000
  H   H27       1.0  0.58059  0.07382  0.02532  1.0000
  H   H28       1.0  0.41948  0.57381  0.47473  1.0000
  H   H29       1.0  0.31598  0.05178  0.98705  1.0000
  H   H30       1.0  0.68394  0.55180  0.51294  1.0000
  H   H31       1.0  0.68400  0.94822  0.01295  1.0000
  H   H32       1.0  0.31607  0.44820  0.48706  1.0000
  H   H33       1.0  0.30326  0.10493  0.19162  1.0000
  H   H34       1.0  0.69670  0.60497  0.30835  1.0000
  H   H35       1.0  0.69673  0.89509  0.80836  1.0000
  H   H36       1.0  0.30330  0.39503  0.69164  1.0000
  H   H37       1.0  0.33240  0.98954  0.30122  1.0000
  H   H38       1.0  0.66763  0.48955  0.19878  1.0000
  H   H39       1.0  0.66756  0.01051  0.69878  1.0000
  H   H40       1.0  0.33238  0.51045  0.80121  1.0000
  H   H41       1.0  0.19213  0.97914  0.17603  1.0000
  H   H42       1.0  0.80787  0.47918  0.32401  1.0000
  H   H43       1.0  0.80783  0.02090  0.82396  1.0000
  H   H44       1.0  0.19214  0.52082  0.67598  1.0000
  H   H45       1.0  0.47638  0.96593  0.17332  1.0000
  H   H46       1.0  0.52358  0.46596  0.32664  1.0000
  H   H47       1.0  0.52358  0.03412  0.82668  1.0000
  H   H48       1.0  0.47644  0.53407  0.67337  1.0000
  C   C1        1.0  0.18860  0.54597  0.00480  1.0000
  C   C2        1.0  0.81137  0.04601  0.49517  1.0000
  C   C3        1.0  0.81141  0.45401  0.99517  1.0000
  C   C4        1.0  0.18860  0.95399  0.50484  1.0000
  C   C5        1.0  0.25196  0.51469  0.12637  1.0000
  C   C6        1.0  0.74808  0.01476  0.37360  1.0000
  C   C7        1.0  0.74810  0.48530  0.87360  1.0000
  C   C8        1.0  0.25194  0.98528  0.62641  1.0000
  C   C9        1.0  0.22823  0.39657  0.16522  1.0000
  C   C10       1.0  0.77176  0.89661  0.33477  1.0000
  C   C11       1.0  0.77180  0.60345  0.83479  1.0000
  C   C12       1.0  0.22818  0.10340  0.66524  1.0000
  C   C13       1.0  0.15899  0.31201  0.08828  1.0000
  C   C14       1.0  0.84096  0.81203  0.41171  1.0000
  C   C15       1.0  0.84103  0.68798  0.91174  1.0000
  C   C16       1.0  0.15897  0.18797  0.58829  1.0000
  C   C17       1.0  0.10741  0.34190  0.96790  1.0000
  C   C18       1.0  0.89256  0.84192  0.53208  1.0000
  C   C19       1.0  0.89263  0.65808  0.03212  1.0000
  C   C20       1.0  0.10741  0.15808  0.46791  1.0000
  C   C21       1.0  0.11862  0.45842  0.92798  1.0000
  C   C22       1.0  0.88134  0.95843  0.57202  1.0000
  C   C23       1.0  0.88140  0.54155  0.07202  1.0000
  C   C24       1.0  0.11863  0.04157  0.42799  1.0000
  C   C25       1.0  0.18510  0.66634  0.95844  1.0000
  C   C26       1.0  0.81485  0.16635  0.54154  1.0000
  C   C27       1.0  0.81486  0.33366  0.04155  1.0000
  C   C28       1.0  0.18512  0.83365  0.45848  1.0000
  C   C29       1.0  0.21566  0.87917  0.96182  1.0000
  C   C30       1.0  0.78431  0.37918  0.53818  1.0000
  C   C31       1.0  0.78435  0.12081  0.03818  1.0000
  C   C32       1.0  0.21570  0.62082  0.46182  1.0000
  C   C33       1.0  0.33718  0.95672  0.01127  1.0000
  C   C34       1.0  0.66277  0.45674  0.48872  1.0000
  C   C35       1.0  0.66280  0.04327  0.98874  1.0000
  C   C36       1.0  0.33725  0.54327  0.51127  1.0000
  C   C37       1.0  0.29639  0.00771  0.20628  1.0000
  C   C38       1.0  0.70360  0.50774  0.29373  1.0000
  C   C39       1.0  0.70357  0.99232  0.79372  1.0000
  C   C40       1.0  0.29641  0.49226  0.70627  1.0000
  C   C41       1.0  0.51395  0.72070  0.93593  1.0000
  C   C42       1.0  0.48608  0.22068  0.56408  1.0000
  C   C43       1.0  0.48605  0.27932  0.06408  1.0000
  C   C44       1.0  0.51395  0.77928  0.43591  1.0000
  S   S1        1.0  0.57934  0.71366  0.07728  1.0000
  S   S2        1.0  0.42074  0.21356  0.42272  1.0000
  S   S3        1.0  0.42081  0.28648  0.92272  1.0000
  S   S4        1.0  0.57923  0.78651  0.57726  1.0000
  N   N1        1.0  0.23920  0.75975  0.01709  1.0000
  N   N2        1.0  0.76081  0.25978  0.48291  1.0000
  N   N3        1.0  0.76086  0.24023  0.98289  1.0000
  N   N4        1.0  0.23919  0.74023  0.51711  1.0000
  N   N5        1.0  0.37878  0.94114  0.14139  1.0000
  N   N6        1.0  0.62119  0.44117  0.35859  1.0000
  N   N7        1.0  0.62118  0.05887  0.85861  1.0000
  N   N8        1.0  0.37884  0.55884  0.64141  1.0000
  N   N9        1.0  0.04363  0.25190  0.88578  1.0000
  N   N10       1.0  0.95638  0.75191  0.61419  1.0000
  N   N11       1.0  0.95642  0.74806  0.11423  1.0000
  N   N12       1.0  0.04363  0.24808  0.38579  1.0000
  N   N13       1.0  0.46537  0.72699  0.83272  1.0000
  N   N14       1.0  0.53460  0.22702  0.66730  1.0000
  N   N15       1.0  0.53444  0.27290  0.16733  1.0000
  N   N16       1.0  0.46551  0.77279  0.33267  1.0000
  O   O1        1.0  0.32639  0.58691  0.20171  1.0000
  O   O2        1.0  0.67374  0.08701  0.29821  1.0000
  O   O3        1.0  0.67371  0.41305  0.79823  1.0000
  O   O4        1.0  0.32638  0.91306  0.70178  1.0000
  O   O5        1.0  0.04440  0.14498  0.92026  1.0000
  O   O6        1.0  0.95564  0.64498  0.57970  1.0000
  O   O7        1.0  0.95566  0.85500  0.07977  1.0000
  O   O8        1.0  0.04436  0.35503  0.42027  1.0000
  O   O9        1.0  0.99045  0.28286  0.78101  1.0000
  O   O10       1.0  0.00956  0.78287  0.71895  1.0000
  O   O11       1.0  0.00959  0.71709  0.21900  1.0000
  O   O12       1.0  0.99050  0.21714  0.28102  1.0000
