data_image0
_chemical_formula_structural       Zn2H24C20S4N16
_chemical_formula_sum              "Zn2 H24 C20 S4 N16"
_cell_length_a       5.75891
_cell_length_b       8.38219
_cell_length_c       18.0351
_cell_angle_alpha    98.9964
_cell_angle_beta     90.026
_cell_angle_gamma    110.056

_space_group_name_H-M_alt    "P 1"
_space_group_IT_number       1

loop_
  _space_group_symop_operation_xyz
  'x, y, z'

loop_
  _atom_site_type_symbol
  _atom_site_label
  _atom_site_symmetry_multiplicity
  _atom_site_fract_x
  _atom_site_fract_y
  _atom_site_fract_z
  _atom_site_occupancy
  Zn  Zn1       1.0  0.29414  0.00035  0.24962  1.0000
  Zn  Zn2       1.0  0.70590  0.99965  0.75038  1.0000
  H   H1        1.0  0.21620  0.37005  0.22161  1.0000
  H   H2        1.0  0.84867  0.63041  0.27813  1.0000
  H   H3        1.0  0.78382  0.62996  0.77838  1.0000
  H   H4        1.0  0.15136  0.36958  0.72186  1.0000
  H   H5        1.0  0.00933  0.07679  0.39651  1.0000
  H   H6        1.0  0.93010  0.92318  0.10318  1.0000
  H   H7        1.0  0.99071  0.92321  0.60349  1.0000
  H   H8        1.0  0.06987  0.07684  0.89683  1.0000
  H   H9        1.0  0.59181  0.31657  0.39871  1.0000
  H   H10       1.0  0.27336  0.68138  0.10168  1.0000
  H   H11       1.0  0.40820  0.68342  0.60130  1.0000
  H   H12       1.0  0.72659  0.31864  0.89834  1.0000
  H   H13       1.0  0.72052  0.21536  0.45841  1.0000
  H   H14       1.0  0.50181  0.78377  0.04192  1.0000
  H   H15       1.0  0.27949  0.78460  0.54158  1.0000
  H   H16       1.0  0.49813  0.21625  0.95810  1.0000
  H   H17       1.0  0.92418  0.59887  0.44476  1.0000
  H   H18       1.0  0.32610  0.40013  0.05512  1.0000
  H   H19       1.0  0.07587  0.40110  0.55525  1.0000
  H   H20       1.0  0.67386  0.59990  0.94489  1.0000
  H   H21       1.0  0.74239  0.50931  0.51734  1.0000
  H   H22       1.0  0.23245  0.48967  0.98274  1.0000
  H   H23       1.0  0.25762  0.49064  0.48266  1.0000
  H   H24       1.0  0.76747  0.51035  0.01727  1.0000
  C   C1        1.0  0.13130  0.32190  0.27118  1.0000
  C   C2        1.0  0.81081  0.67846  0.22864  1.0000
  C   C3        1.0  0.86873  0.67811  0.72881  1.0000
  C   C4        1.0  0.18920  0.32154  0.77135  1.0000
  C   C5        1.0  0.03324  0.17209  0.35988  1.0000
  C   C6        1.0  0.85974  0.82795  0.13989  1.0000
  C   C7        1.0  0.96678  0.82790  0.64011  1.0000
  C   C8        1.0  0.14024  0.17206  0.86011  1.0000
  C   C9        1.0  0.76452  0.32284  0.42681  1.0000
  C   C10       1.0  0.43993  0.67610  0.07343  1.0000
  C   C11       1.0  0.23550  0.67713  0.57319  1.0000
  C   C12       1.0  0.56002  0.32392  0.92659  1.0000
  C   C13       1.0  0.88347  0.49473  0.47834  1.0000
  C   C14       1.0  0.38850  0.50462  0.02170  1.0000
  C   C15       1.0  0.11656  0.50523  0.52167  1.0000
  C   C16       1.0  0.61144  0.49541  0.97831  1.0000
  C   C17       1.0  0.64972  0.13229  0.12583  1.0000
  C   C18       1.0  0.51825  0.86810  0.37336  1.0000
  C   C19       1.0  0.35028  0.86775  0.87416  1.0000
  C   C20       1.0  0.48178  0.13188  0.62663  1.0000
  S   S1        1.0  0.85214  0.19308  0.06513  1.0000
  S   S2        1.0  0.65868  0.80685  0.43428  1.0000
  S   S3        1.0  0.14788  0.80697  0.93487  1.0000
  S   S4        1.0  0.34133  0.19309  0.56570  1.0000
  N   N1        1.0  0.16393  0.18642  0.29822  1.0000
  N   N2        1.0  0.97756  0.81405  0.20140  1.0000
  N   N3        1.0  0.83609  0.81358  0.70177  1.0000
  N   N4        1.0  0.02244  0.18596  0.79859  1.0000
  N   N5        1.0  0.98813  0.38992  0.31278  1.0000
  N   N6        1.0  0.59912  0.60991  0.18730  1.0000
  N   N7        1.0  0.01188  0.61008  0.68722  1.0000
  N   N8        1.0  0.40088  0.39010  0.81270  1.0000
  N   N9        1.0  0.92693  0.29228  0.36843  1.0000
  N   N10       1.0  0.63379  0.70738  0.13163  1.0000
  N   N11       1.0  0.07307  0.70771  0.63156  1.0000
  N   N12       1.0  0.36619  0.29263  0.86838  1.0000
  N   N13       1.0  0.50283  0.08387  0.17088  1.0000
  N   N14       1.0  0.42051  0.91687  0.32820  1.0000
  N   N15       1.0  0.49716  0.91616  0.82910  1.0000
  N   N16       1.0  0.57953  0.08313  0.67180  1.0000
