data_image0
_chemical_formula_structural       Sn2H60C64N4Cl4O4
_chemical_formula_sum              "Sn2 H60 C64 N4 Cl4 O4"
_cell_length_a       7.18613
_cell_length_b       14.0257
_cell_length_c       14.5473
_cell_angle_alpha    89.9996
_cell_angle_beta     90.6439
_cell_angle_gamma    90.0002

_space_group_name_H-M_alt    "P 1"
_space_group_IT_number       1

loop_
  _space_group_symop_operation_xyz
  'x, y, z'

loop_
  _atom_site_type_symbol
  _atom_site_label
  _atom_site_symmetry_multiplicity
  _atom_site_fract_x
  _atom_site_fract_y
  _atom_site_fract_z
  _atom_site_occupancy
  Sn  Sn1       1.0  0.49998  0.49999  0.50001  1.0000
  Sn  Sn2       1.0  0.50002  1.00000  1.00000  1.0000
  H   H1        1.0  0.92151  0.34013  0.40478  1.0000
  H   H2        1.0  0.07850  0.84013  0.09523  1.0000
  H   H3        1.0  0.07850  0.65987  0.59523  1.0000
  H   H4        1.0  0.92149  0.15988  0.90477  1.0000
  H   H5        1.0  0.93672  0.24417  0.26052  1.0000
  H   H6        1.0  0.06330  0.74417  0.23949  1.0000
  H   H7        1.0  0.06329  0.75583  0.73949  1.0000
  H   H8        1.0  0.93671  0.25584  0.76051  1.0000
  H   H9        1.0  0.66393  0.14779  0.21060  1.0000
  H   H10       1.0  0.33609  0.64779  0.28940  1.0000
  H   H11       1.0  0.33608  0.85222  0.78940  1.0000
  H   H12       1.0  0.66392  0.35222  0.71060  1.0000
  H   H13       1.0  0.37567  0.14827  0.30301  1.0000
  H   H14       1.0  0.62435  0.64827  0.19698  1.0000
  H   H15       1.0  0.62435  0.85173  0.69698  1.0000
  H   H16       1.0  0.37565  0.35173  0.80301  1.0000
  H   H17       1.0  0.35896  0.24565  0.44591  1.0000
  H   H18       1.0  0.64104  0.74565  0.05409  1.0000
  H   H19       1.0  0.64104  0.75434  0.55409  1.0000
  H   H20       1.0  0.35895  0.25434  0.94590  1.0000
  H   H21       1.0  0.77031  0.37542  0.54727  1.0000
  H   H22       1.0  0.22969  0.87542  0.95274  1.0000
  H   H23       1.0  0.22968  0.62458  0.45274  1.0000
  H   H24       1.0  0.77031  0.12458  0.04726  1.0000
  H   H25       1.0  0.54198  0.32825  0.57200  1.0000
  H   H26       1.0  0.45802  0.82825  0.92800  1.0000
  H   H27       1.0  0.45802  0.67174  0.42801  1.0000
  H   H28       1.0  0.54197  0.17175  0.07200  1.0000
  H   H29       1.0  0.64815  0.46168  0.29412  1.0000
  H   H30       1.0  0.35185  0.96168  0.20589  1.0000
  H   H31       1.0  0.35185  0.53832  0.70588  1.0000
  H   H32       1.0  0.64815  0.03832  0.79411  1.0000
  H   H33       1.0  0.19183  0.39740  0.10852  1.0000
  H   H34       1.0  0.80817  0.89740  0.39148  1.0000
  H   H35       1.0  0.80817  0.60260  0.89148  1.0000
  H   H36       1.0  0.19183  0.10260  0.60852  1.0000
  H   H37       1.0  0.97592  0.42832  0.23960  1.0000
  H   H38       1.0  0.02408  0.92832  0.26040  1.0000
  H   H39       1.0  0.02407  0.57169  0.76040  1.0000
  H   H40       1.0  0.97593  0.07169  0.73960  1.0000
  H   H41       1.0  0.11068  0.46884  0.39394  1.0000
  H   H42       1.0  0.88932  0.96884  0.10606  1.0000
  H   H43       1.0  0.88931  0.53116  0.60606  1.0000
  H   H44       1.0  0.11069  0.03116  0.89394  1.0000
  H   H45       1.0  0.65181  0.34294  0.12466  1.0000
  H   H46       1.0  0.34819  0.84293  0.37535  1.0000
  H   H47       1.0  0.34819  0.65707  0.87534  1.0000
  H   H48       1.0  0.65181  0.15707  0.62466  1.0000
  H   H49       1.0  0.50476  0.40799  0.04741  1.0000
  H   H50       1.0  0.49524  0.90799  0.45259  1.0000
  H   H51       1.0  0.49523  0.59201  0.95259  1.0000
  H   H52       1.0  0.50477  0.09201  0.54741  1.0000
  H   H53       1.0  0.79402  0.35770  0.98637  1.0000
  H   H54       1.0  0.20597  0.85770  0.51363  1.0000
  H   H55       1.0  0.20597  0.64230  0.01363  1.0000
  H   H56       1.0  0.79404  0.14230  0.48637  1.0000
  H   H57       1.0  0.93586  0.62602  0.11489  1.0000
  H   H58       1.0  0.06415  0.12602  0.38511  1.0000
  H   H59       1.0  0.06413  0.37398  0.88510  1.0000
  H   H60       1.0  0.93586  0.87398  0.61489  1.0000
  C   C1        1.0  0.80158  0.29870  0.38148  1.0000
  C   C2        1.0  0.19843  0.79870  0.11852  1.0000
  C   C3        1.0  0.19843  0.70130  0.61852  1.0000
  C   C4        1.0  0.80157  0.20130  0.88148  1.0000
  C   C5        1.0  0.80969  0.24496  0.30097  1.0000
  C   C6        1.0  0.19033  0.74497  0.19904  1.0000
  C   C7        1.0  0.19032  0.75503  0.69904  1.0000
  C   C8        1.0  0.80967  0.25504  0.80096  1.0000
  C   C9        1.0  0.65625  0.19101  0.27251  1.0000
  C   C10       1.0  0.34377  0.69101  0.22749  1.0000
  C   C11       1.0  0.34376  0.80900  0.72749  1.0000
  C   C12       1.0  0.65624  0.30900  0.77251  1.0000
  C   C13       1.0  0.49429  0.19137  0.32480  1.0000
  C   C14       1.0  0.50572  0.69137  0.17520  1.0000
  C   C15       1.0  0.50571  0.80863  0.67520  1.0000
  C   C16       1.0  0.49428  0.30863  0.82480  1.0000
  C   C17       1.0  0.48602  0.24506  0.40532  1.0000
  C   C18       1.0  0.51398  0.74506  0.09468  1.0000
  C   C19       1.0  0.51398  0.75493  0.59468  1.0000
  C   C20       1.0  0.48601  0.25493  0.90532  1.0000
  C   C21       1.0  0.63960  0.29993  0.43494  1.0000
  C   C22       1.0  0.36041  0.79993  0.06507  1.0000
  C   C23       1.0  0.36040  0.70007  0.56507  1.0000
  C   C24       1.0  0.63959  0.20007  0.93493  1.0000
  C   C25       1.0  0.63174  0.35880  0.51917  1.0000
  C   C26       1.0  0.36827  0.85880  0.98084  1.0000
  C   C27       1.0  0.36826  0.64120  0.48084  1.0000
  C   C28       1.0  0.63173  0.14120  0.01916  1.0000
  C   C29       1.0  0.50110  0.45023  0.27880  1.0000
  C   C30       1.0  0.49890  0.95024  0.22120  1.0000
  C   C31       1.0  0.49890  0.54976  0.72120  1.0000
  C   C32       1.0  0.50110  0.04976  0.77880  1.0000
  C   C33       1.0  0.43831  0.42506  0.19088  1.0000
  C   C34       1.0  0.56169  0.92506  0.30912  1.0000
  C   C35       1.0  0.56169  0.57494  0.80912  1.0000
  C   C36       1.0  0.43832  0.07494  0.69088  1.0000
  C   C37       1.0  0.24690  0.41556  0.17645  1.0000
  C   C38       1.0  0.75310  0.91556  0.32355  1.0000
  C   C39       1.0  0.75310  0.58444  0.82355  1.0000
  C   C40       1.0  0.24690  0.08444  0.67645  1.0000
  C   C41       1.0  0.12616  0.43201  0.24915  1.0000
  C   C42       1.0  0.87384  0.93200  0.25085  1.0000
  C   C43       1.0  0.87384  0.56800  0.75085  1.0000
  C   C44       1.0  0.12616  0.06800  0.74915  1.0000
  C   C45       1.0  0.19959  0.45536  0.33496  1.0000
  C   C46       1.0  0.80041  0.95536  0.16504  1.0000
  C   C47       1.0  0.80040  0.54464  0.66504  1.0000
  C   C48       1.0  0.19960  0.04464  0.83496  1.0000
  C   C49       1.0  0.57566  0.41071  0.11500  1.0000
  C   C50       1.0  0.42434  0.91070  0.38500  1.0000
  C   C51       1.0  0.42433  0.58930  0.88499  1.0000
  C   C52       1.0  0.57566  0.08930  0.61500  1.0000
  C   C53       1.0  0.88341  0.41991  0.99362  1.0000
  C   C54       1.0  0.11659  0.91991  0.50639  1.0000
  C   C55       1.0  0.11659  0.58009  0.00638  1.0000
  C   C56       1.0  0.88342  0.08009  0.49362  1.0000
  C   C57       1.0  0.84707  0.49151  0.05807  1.0000
  C   C58       1.0  0.15293  0.99150  0.44193  1.0000
  C   C59       1.0  0.15292  0.50850  0.94192  1.0000
  C   C60       1.0  0.84708  0.00850  0.55807  1.0000
  C   C61       1.0  0.96359  0.57123  0.06382  1.0000
  C   C62       1.0  0.03642  0.07123  0.43617  1.0000
  C   C63       1.0  0.03640  0.42878  0.93617  1.0000
  C   C64       1.0  0.96359  0.92877  0.56383  1.0000
  N   N1        1.0  0.38451  0.46381  0.34906  1.0000
  N   N2        1.0  0.61549  0.96381  0.15094  1.0000
  N   N3        1.0  0.61549  0.53619  0.65094  1.0000
  N   N4        1.0  0.38451  0.03619  0.84906  1.0000
  Cl  Cl1       1.0  0.20175  0.43074  0.57252  1.0000
  Cl  Cl2       1.0  0.79825  0.93075  0.92748  1.0000
  Cl  Cl3       1.0  0.79823  0.56925  0.42748  1.0000
  Cl  Cl4       1.0  0.20177  0.06925  0.07252  1.0000
  O   O1        1.0  0.70306  0.48935  0.11937  1.0000
  O   O2        1.0  0.29693  0.98935  0.38063  1.0000
  O   O3        1.0  0.29692  0.51066  0.88062  1.0000
  O   O4        1.0  0.70308  0.01066  0.61937  1.0000
