data_image0
_chemical_formula_structural       K4H20C24S4O14
_chemical_formula_sum              "K4 H20 C24 S4 O14"
_cell_length_a       5.7412
_cell_length_b       10.0836
_cell_length_c       14.618
_cell_angle_alpha    86.2832
_cell_angle_beta     77.4629
_cell_angle_gamma    73.4928

_space_group_name_H-M_alt    "P 1"
_space_group_IT_number       1

loop_
  _space_group_symop_operation_xyz
  'x, y, z'

loop_
  _atom_site_type_symbol
  _atom_site_label
  _atom_site_symmetry_multiplicity
  _atom_site_fract_x
  _atom_site_fract_y
  _atom_site_fract_z
  _atom_site_occupancy
  K   K1        1.0  0.92369  0.63112  0.49871  1.0000
  K   K2        1.0  0.55311  0.36818  0.49930  1.0000
  K   K3        1.0  0.57603  0.99882  0.66644  1.0000
  K   K4        1.0  0.16906  0.00012  0.49252  1.0000
  H   H1        1.0  0.73612  0.58163  0.89498  1.0000
  H   H2        1.0  0.30726  0.42332  0.89511  1.0000
  H   H3        1.0  0.77975  0.57356  0.02351  1.0000
  H   H4        1.0  0.35394  0.42493  0.02251  1.0000
  H   H5        1.0  0.70902  0.92101  0.42681  1.0000
  H   H6        1.0  0.62983  0.07885  0.42689  1.0000
  H   H7        1.0  0.67684  0.58822  0.73402  1.0000
  H   H8        1.0  0.25581  0.41500  0.73415  1.0000
  H   H9        1.0  0.83891  0.57564  0.18443  1.0000
  H   H10       1.0  0.41535  0.42367  0.18335  1.0000
  H   H11       1.0  0.91308  0.82422  0.82351  1.0000
  H   H12       1.0  0.74099  0.17006  0.82454  1.0000
  H   H13       1.0  0.08074  0.82133  0.27120  1.0000
  H   H14       1.0  0.89578  0.18186  0.27260  1.0000
  H   H15       1.0  0.96607  0.81383  0.98593  1.0000
  H   H16       1.0  0.78429  0.18111  0.98648  1.0000
  H   H17       1.0  0.01938  0.82249  0.11114  1.0000
  H   H18       1.0  0.83345  0.18112  0.11289  1.0000
  H   H19       1.0  0.41912  0.91993  0.89384  1.0000
  H   H20       1.0  0.32121  0.07903  0.89072  1.0000
  C   C1        1.0  0.35757  0.69942  0.95517  1.0000
  C   C2        1.0  0.05369  0.30078  0.95557  1.0000
  C   C3        1.0  0.39514  0.69967  0.05251  1.0000
  C   C4        1.0  0.09119  0.30115  0.05286  1.0000
  C   C5        1.0  0.55350  0.63503  0.88136  1.0000
  C   C6        1.0  0.18154  0.36738  0.88168  1.0000
  C   C7        1.0  0.62495  0.63058  0.07626  1.0000
  C   C8        1.0  0.25406  0.36924  0.07588  1.0000
  C   C9        1.0  0.52204  0.63873  0.78943  1.0000
  C   C10       1.0  0.15446  0.36282  0.78977  1.0000
  C   C11       1.0  0.66082  0.63126  0.16741  1.0000
  C   C12       1.0  0.29106  0.36881  0.16695  1.0000
  C   C13       1.0  0.29116  0.70795  0.76835  1.0000
  C   C14       1.0  0.99675  0.29082  0.76885  1.0000
  C   C15       1.0  0.46548  0.70206  0.23728  1.0000
  C   C16       1.0  0.16514  0.29890  0.23744  1.0000
  C   C17       1.0  0.09247  0.77010  0.83981  1.0000
  C   C18       1.0  0.86356  0.22640  0.84036  1.0000
  C   C19       1.0  0.23516  0.77006  0.21616  1.0000
  C   C20       1.0  0.00026  0.23216  0.21706  1.0000
  C   C21       1.0  0.12558  0.76491  0.93187  1.0000
  C   C22       1.0  0.89164  0.23209  0.93239  1.0000
  C   C23       1.0  0.20184  0.76880  0.12481  1.0000
  C   C24       1.0  0.96480  0.23349  0.12582  1.0000
  S   S1        1.0  0.26209  0.72123  0.64885  1.0000
  S   S2        1.0  0.98210  0.27729  0.64932  1.0000
  S   S3        1.0  0.50926  0.70910  0.35359  1.0000
  S   S4        1.0  0.21680  0.29165  0.35368  1.0000
  O   O1        1.0  0.46190  0.00186  0.86403  1.0000
  O   O2        1.0  0.70401  0.99975  0.46492  1.0000
  O   O3        1.0  0.29670  0.58080  0.61721  1.0000
  O   O4        1.0  0.87841  0.41785  0.61692  1.0000
  O   O5        1.0  0.25746  0.75733  0.41126  1.0000
  O   O6        1.0  0.01267  0.24386  0.41174  1.0000
  O   O7        1.0  0.46065  0.78303  0.60091  1.0000
  O   O8        1.0  0.24241  0.21498  0.60197  1.0000
  O   O9        1.0  0.65288  0.81077  0.35018  1.0000
  O   O10       1.0  0.46115  0.18939  0.35060  1.0000
  O   O11       1.0  0.01310  0.81317  0.64680  1.0000
  O   O12       1.0  0.82412  0.18577  0.64732  1.0000
  O   O13       1.0  0.64788  0.57039  0.37788  1.0000
  O   O14       1.0  0.21865  0.43013  0.37727  1.0000
