data_image0
_chemical_formula_structural       K4H28C28S4O20
_chemical_formula_sum              "K4 H28 C28 S4 O20"
_cell_length_a       6.37945
_cell_length_b       10.0285
_cell_length_c       16.1741
_cell_angle_alpha    95.8048
_cell_angle_beta     89.9978
_cell_angle_gamma    108.544

_space_group_name_H-M_alt    "P 1"
_space_group_IT_number       1

loop_
  _space_group_symop_operation_xyz
  'x, y, z'

loop_
  _atom_site_type_symbol
  _atom_site_label
  _atom_site_symmetry_multiplicity
  _atom_site_fract_x
  _atom_site_fract_y
  _atom_site_fract_z
  _atom_site_occupancy
  K   K1        1.0  0.76159  0.01198  0.90297  1.0000
  K   K2        1.0  0.74985  0.98783  0.59723  1.0000
  K   K3        1.0  0.23841  0.98801  0.09704  1.0000
  K   K4        1.0  0.25013  0.01218  0.40277  1.0000
  H   H1        1.0  0.62575  0.19711  0.75488  1.0000
  H   H2        1.0  0.42959  0.80283  0.74545  1.0000
  H   H3        1.0  0.37425  0.80289  0.24512  1.0000
  H   H4        1.0  0.57041  0.19717  0.25456  1.0000
  H   H5        1.0  0.29505  0.56224  0.94291  1.0000
  H   H6        1.0  0.73309  0.43759  0.55717  1.0000
  H   H7        1.0  0.70495  0.43777  0.05709  1.0000
  H   H8        1.0  0.26691  0.56241  0.44283  1.0000
  H   H9        1.0  0.60583  0.42826  0.76610  1.0000
  H   H10       1.0  0.17874  0.57181  0.73439  1.0000
  H   H11       1.0  0.39417  0.57173  0.23390  1.0000
  H   H12       1.0  0.82125  0.42819  0.26561  1.0000
  H   H13       1.0  0.80678  0.68196  0.81143  1.0000
  H   H14       1.0  0.12550  0.31812  0.68892  1.0000
  H   H15       1.0  0.19322  0.31803  0.18856  1.0000
  H   H16       1.0  0.87450  0.68188  0.31109  1.0000
  H   H17       1.0  0.43958  0.38264  0.91624  1.0000
  H   H18       1.0  0.05746  0.61690  0.58382  1.0000
  H   H19       1.0  0.56041  0.61736  0.08376  1.0000
  H   H20       1.0  0.94255  0.38311  0.41618  1.0000
  H   H21       1.0  0.27821  0.35364  0.00847  1.0000
  H   H22       1.0  0.92511  0.64612  0.49164  1.0000
  H   H23       1.0  0.72180  0.64636  0.99153  1.0000
  H   H24       1.0  0.07489  0.35389  0.50836  1.0000
  H   H25       1.0  0.32934  0.20843  0.94759  1.0000
  H   H26       1.0  0.12168  0.79114  0.55255  1.0000
  H   H27       1.0  0.67066  0.79157  0.05241  1.0000
  H   H28       1.0  0.87832  0.20886  0.44745  1.0000
  C   C1        1.0  0.06329  0.63549  0.87915  1.0000
  C   C2        1.0  0.42817  0.36439  0.62104  1.0000
  C   C3        1.0  0.93672  0.36451  0.12085  1.0000
  C   C4        1.0  0.57183  0.63561  0.37896  1.0000
  C   C5        1.0  0.14500  0.53096  0.90392  1.0000
  C   C6        1.0  0.61450  0.46886  0.59628  1.0000
  C   C7        1.0  0.85500  0.46903  0.09608  1.0000
  C   C8        1.0  0.38550  0.53114  0.40372  1.0000
  C   C9        1.0  0.03434  0.38921  0.87709  1.0000
  C   C10       1.0  0.64589  0.61065  0.62315  1.0000
  C   C11       1.0  0.96566  0.61079  0.12291  1.0000
  C   C12       1.0  0.35410  0.38936  0.37684  1.0000
  C   C13       1.0  0.83999  0.35211  0.82557  1.0000
  C   C14       1.0  0.48889  0.64784  0.67477  1.0000
  C   C15       1.0  0.16001  0.64788  0.17443  1.0000
  C   C16       1.0  0.51111  0.35216  0.32523  1.0000
  C   C17       1.0  0.75755  0.45793  0.80424  1.0000
  C   C18       1.0  0.30065  0.54209  0.69617  1.0000
  C   C19       1.0  0.24246  0.54207  0.19576  1.0000
  C   C20       1.0  0.69934  0.45792  0.30383  1.0000
  C   C21       1.0  0.86941  0.60004  0.83020  1.0000
  C   C22       1.0  0.26997  0.39998  0.67006  1.0000
  C   C23       1.0  0.13059  0.39995  0.16980  1.0000
  C   C24       1.0  0.73003  0.60002  0.32994  1.0000
  C   C25       1.0  0.29940  0.30930  0.94516  1.0000
  C   C26       1.0  0.99071  0.69034  0.55496  1.0000
  C   C27       1.0  0.70060  0.69070  0.05484  1.0000
  C   C28       1.0  0.00929  0.30966  0.44504  1.0000
  S   S1        1.0  0.21853  0.81625  0.90362  1.0000
  S   S2        1.0  0.40220  0.18363  0.59640  1.0000
  S   S3        1.0  0.78146  0.18375  0.09638  1.0000
  S   S4        1.0  0.59780  0.81637  0.40360  1.0000
  O   O1        1.0  0.09959  0.27826  0.89551  1.0000
  O   O2        1.0  0.82215  0.72150  0.60467  1.0000
  O   O3        1.0  0.90041  0.72174  0.10449  1.0000
  O   O4        1.0  0.17785  0.27850  0.39533  1.0000
  O   O5        1.0  0.74298  0.21267  0.79973  1.0000
  O   O6        1.0  0.53155  0.78728  0.70069  1.0000
  O   O7        1.0  0.25702  0.78733  0.20027  1.0000
  O   O8        1.0  0.46844  0.21272  0.29931  1.0000
  O   O9        1.0  0.38076  0.82404  0.97010  1.0000
  O   O10       1.0  0.55652  0.17579  0.52987  1.0000
  O   O11       1.0  0.61924  0.17595  0.02990  1.0000
  O   O12       1.0  0.44348  0.82421  0.47013  1.0000
  O   O13       1.0  0.06061  0.89036  0.92956  1.0000
  O   O14       1.0  0.17006  0.10988  0.57050  1.0000
  O   O15       1.0  0.93939  0.10964  0.07044  1.0000
  O   O16       1.0  0.82994  0.89013  0.42950  1.0000
  O   O17       1.0  0.32864  0.86591  0.82647  1.0000
  O   O18       1.0  0.46264  0.13379  0.67349  1.0000
  O   O19       1.0  0.67137  0.13409  0.17354  1.0000
  O   O20       1.0  0.53736  0.86622  0.32652  1.0000
