data_image0
_chemical_formula_structural       K4H32C28S4O22
_chemical_formula_sum              "K4 H32 C28 S4 O22"
_cell_length_a       6.19927
_cell_length_b       10.4027
_cell_length_c       16.0499
_cell_angle_alpha    97.1913
_cell_angle_beta     89.9839
_cell_angle_gamma    107.307

_space_group_name_H-M_alt    "P 1"
_space_group_IT_number       1

loop_
  _space_group_symop_operation_xyz
  'x, y, z'

loop_
  _atom_site_type_symbol
  _atom_site_label
  _atom_site_symmetry_multiplicity
  _atom_site_fract_x
  _atom_site_fract_y
  _atom_site_fract_z
  _atom_site_occupancy
  K   K1        1.0  0.75079  0.97247  0.10638  1.0000
  K   K2        1.0  0.77838  0.02773  0.39343  1.0000
  K   K3        1.0  0.24922  0.02752  0.89362  1.0000
  K   K4        1.0  0.22162  0.97226  0.60657  1.0000
  H   H1        1.0  0.39618  0.78561  0.24050  1.0000
  H   H2        1.0  0.61036  0.21492  0.25949  1.0000
  H   H3        1.0  0.60382  0.21439  0.75950  1.0000
  H   H4        1.0  0.38963  0.78508  0.74051  1.0000
  H   H5        1.0  0.72778  0.42818  0.05559  1.0000
  H   H6        1.0  0.29928  0.57180  0.44439  1.0000
  H   H7        1.0  0.27222  0.57182  0.94441  1.0000
  H   H8        1.0  0.70071  0.42820  0.55561  1.0000
  H   H9        1.0  0.14749  0.56076  0.23132  1.0000
  H   H10       1.0  0.58750  0.44004  0.26850  1.0000
  H   H11       1.0  0.85250  0.43924  0.76868  1.0000
  H   H12       1.0  0.41250  0.55996  0.73151  1.0000
  H   H13       1.0  0.10863  0.31654  0.18838  1.0000
  H   H14       1.0  0.79300  0.68421  0.31142  1.0000
  H   H15       1.0  0.89137  0.68346  0.81162  1.0000
  H   H16       1.0  0.20700  0.31579  0.68858  1.0000
  H   H17       1.0  0.05267  0.60908  0.08234  1.0000
  H   H18       1.0  0.44301  0.39094  0.41759  1.0000
  H   H19       1.0  0.94733  0.39092  0.91766  1.0000
  H   H20       1.0  0.55698  0.60906  0.58241  1.0000
  H   H21       1.0  0.90835  0.61844  0.98671  1.0000
  H   H22       1.0  0.28938  0.38189  0.51324  1.0000
  H   H23       1.0  0.09165  0.38157  0.01329  1.0000
  H   H24       1.0  0.71062  0.61811  0.48676  1.0000
  H   H25       1.0  0.09800  0.76862  0.04285  1.0000
  H   H26       1.0  0.32899  0.23158  0.45723  1.0000
  H   H27       1.0  0.90200  0.23138  0.95715  1.0000
  H   H28       1.0  0.67101  0.76841  0.54277  1.0000
  H   H29       1.0  0.16582  0.06358  0.22821  1.0000
  H   H30       1.0  0.10271  0.93656  0.27184  1.0000
  H   H31       1.0  0.83418  0.93641  0.77179  1.0000
  H   H32       1.0  0.89730  0.06344  0.72816  1.0000
  C   C1        1.0  0.41805  0.35950  0.11994  1.0000
  C   C2        1.0  0.05892  0.64088  0.37996  1.0000
  C   C3        1.0  0.58194  0.64050  0.88006  1.0000
  C   C4        1.0  0.94108  0.35913  0.62004  1.0000
  C   C5        1.0  0.60255  0.45910  0.09383  1.0000
  C   C6        1.0  0.14341  0.54108  0.40607  1.0000
  C   C7        1.0  0.39745  0.54090  0.90617  1.0000
  C   C8        1.0  0.85658  0.45892  0.59393  1.0000
  C   C9        1.0  0.25274  0.39459  0.16882  1.0000
  C   C10       1.0  0.85868  0.60605  0.33109  1.0000
  C   C11       1.0  0.74726  0.60541  0.83118  1.0000
  C   C12       1.0  0.14133  0.39395  0.66892  1.0000
  C   C13       1.0  0.27478  0.53155  0.19315  1.0000
  C   C14       1.0  0.74368  0.46913  0.30677  1.0000
  C   C15       1.0  0.72523  0.46845  0.80685  1.0000
  C   C16       1.0  0.25633  0.53088  0.69323  1.0000
  C   C17       1.0  0.62397  0.59611  0.11821  1.0000
  C   C18       1.0  0.02770  0.40411  0.38173  1.0000
  C   C19       1.0  0.37603  0.40389  0.88180  1.0000
  C   C20       1.0  0.97230  0.59589  0.61827  1.0000
  C   C21       1.0  0.46015  0.63294  0.16966  1.0000
  C   C22       1.0  0.82722  0.36750  0.33026  1.0000
  C   C23       1.0  0.53985  0.36706  0.83034  1.0000
  C   C24       1.0  0.17279  0.63249  0.66974  1.0000
  C   C25       1.0  0.97382  0.67127  0.04945  1.0000
  C   C26       1.0  0.30208  0.32891  0.45056  1.0000
  C   C27       1.0  0.02617  0.32873  0.95055  1.0000
  C   C28       1.0  0.69791  0.67108  0.54944  1.0000
  S   S1        1.0  0.39772  0.18532  0.09672  1.0000
  S   S2        1.0  0.21310  0.81493  0.40334  1.0000
  S   S3        1.0  0.60228  0.81468  0.90328  1.0000
  S   S4        1.0  0.78691  0.18507  0.59667  1.0000
  O   O1        1.0  0.57382  0.17285  0.03816  1.0000
  O   O2        1.0  0.40129  0.82707  0.46194  1.0000
  O   O3        1.0  0.42618  0.82716  0.96183  1.0000
  O   O4        1.0  0.59871  0.17292  0.53807  1.0000
  O   O5        1.0  0.16716  0.11470  0.06322  1.0000
  O   O6        1.0  0.05322  0.88574  0.43681  1.0000
  O   O7        1.0  0.83284  0.88530  0.93677  1.0000
  O   O8        1.0  0.94678  0.11426  0.56319  1.0000
  O   O9        1.0  0.43572  0.14123  0.17946  1.0000
  O   O10       1.0  0.29560  0.85909  0.32063  1.0000
  O   O11       1.0  0.56428  0.85876  0.82053  1.0000
  O   O12       1.0  0.70443  0.14091  0.67937  1.0000
  O   O13       1.0  0.49302  0.76742  0.19297  1.0000
  O   O14       1.0  0.72537  0.23305  0.30698  1.0000
  O   O15       1.0  0.50697  0.23258  0.80703  1.0000
  O   O16       1.0  0.27463  0.76695  0.69302  1.0000
  O   O17       1.0  0.79626  0.70212  0.09761  1.0000
  O   O18       1.0  0.09374  0.29801  0.40239  1.0000
  O   O19       1.0  0.20374  0.29788  0.90239  1.0000
  O   O20       1.0  0.90625  0.70199  0.59761  1.0000
  O   O21       1.0  0.03309  0.99996  0.25001  1.0000
  O   O22       1.0  0.96692  0.00003  0.74999  1.0000
