data_image0
_chemical_formula_structural       Co2H24C20N8
_chemical_formula_sum              "Co2 H24 C20 N8"
_cell_length_a       7.2613
_cell_length_b       8.73476
_cell_length_c       8.73479
_cell_angle_alpha    89.9996
_cell_angle_beta     90.0002
_cell_angle_gamma    90

_space_group_name_H-M_alt    "P 1"
_space_group_IT_number       1

loop_
  _space_group_symop_operation_xyz
  'x, y, z'

loop_
  _atom_site_type_symbol
  _atom_site_label
  _atom_site_symmetry_multiplicity
  _atom_site_fract_x
  _atom_site_fract_y
  _atom_site_fract_z
  _atom_site_occupancy
  Co  Co1       1.0  1.00000  1.00000  0.00000  1.0000
  Co  Co2       1.0  0.50000  0.00000  1.00000  1.0000
  H   H1        1.0  0.94411  0.71325  0.73761  1.0000
  H   H2        1.0  0.94412  0.28674  0.26239  1.0000
  H   H3        1.0  0.55588  0.28675  0.73761  1.0000
  H   H4        1.0  0.44412  0.26239  0.28674  1.0000
  H   H5        1.0  0.05589  0.26239  0.71325  1.0000
  H   H6        1.0  0.05589  0.73761  0.28675  1.0000
  H   H7        1.0  0.44412  0.73761  0.71326  1.0000
  H   H8        1.0  0.55588  0.71326  0.26239  1.0000
  H   H9        1.0  0.95905  0.52099  0.80618  1.0000
  H   H10       1.0  0.95905  0.47901  0.19382  1.0000
  H   H11       1.0  0.54095  0.47901  0.80618  1.0000
  H   H12       1.0  0.45905  0.19383  0.47901  1.0000
  H   H13       1.0  0.04096  0.19382  0.52099  1.0000
  H   H14       1.0  0.04096  0.80618  0.47901  1.0000
  H   H15       1.0  0.45905  0.80617  0.52099  1.0000
  H   H16       1.0  0.54096  0.52099  0.19382  1.0000
  H   H17       1.0  0.82347  0.65910  0.90393  1.0000
  H   H18       1.0  0.82347  0.34089  0.09606  1.0000
  H   H19       1.0  0.67653  0.34090  0.90394  1.0000
  H   H20       1.0  0.32347  0.09607  0.34090  1.0000
  H   H21       1.0  0.17653  0.09606  0.65910  1.0000
  H   H22       1.0  0.17653  0.90394  0.34090  1.0000
  H   H23       1.0  0.32347  0.90393  0.65910  1.0000
  H   H24       1.0  0.67653  0.65911  0.09606  1.0000
  C   C1        1.0  0.25000  0.58328  0.00000  1.0000
  C   C2        1.0  0.25000  0.41672  0.00000  1.0000
  C   C3        1.0  0.75000  0.00000  0.41672  1.0000
  C   C4        1.0  0.75000  0.00000  0.58328  1.0000
  C   C5        1.0  0.11861  0.68151  0.93302  1.0000
  C   C6        1.0  0.11862  0.31848  0.06698  1.0000
  C   C7        1.0  0.38138  0.31849  0.93302  1.0000
  C   C8        1.0  0.61862  0.06698  0.31849  1.0000
  C   C9        1.0  0.88138  0.06698  0.68151  1.0000
  C   C10       1.0  0.88139  0.93302  0.31849  1.0000
  C   C11       1.0  0.61862  0.93302  0.68151  1.0000
  C   C12       1.0  0.38138  0.68152  0.06698  1.0000
  C   C13       1.0  0.95270  0.64163  0.84085  1.0000
  C   C14       1.0  0.95270  0.35837  0.15915  1.0000
  C   C15       1.0  0.54730  0.35837  0.84085  1.0000
  C   C16       1.0  0.45270  0.15916  0.35837  1.0000
  C   C17       1.0  0.04731  0.15915  0.64163  1.0000
  C   C18       1.0  0.04731  0.84085  0.35837  1.0000
  C   C19       1.0  0.45270  0.84084  0.64163  1.0000
  C   C20       1.0  0.54730  0.64163  0.15915  1.0000
  N   N1        1.0  0.16857  0.82844  0.95973  1.0000
  N   N2        1.0  0.16857  0.17156  0.04027  1.0000
  N   N3        1.0  0.33142  0.17156  0.95973  1.0000
  N   N4        1.0  0.66858  0.04027  0.17156  1.0000
  N   N5        1.0  0.83143  0.04027  0.82844  1.0000
  N   N6        1.0  0.83143  0.95973  0.17156  1.0000
  N   N7        1.0  0.66857  0.95973  0.82844  1.0000
  N   N8        1.0  0.33142  0.82844  0.04027  1.0000
