data_image0
_chemical_formula_structural       Zn2H24C20N8
_chemical_formula_sum              "Zn2 H24 C20 N8"
_cell_length_a       7.32548
_cell_length_b       8.80337
_cell_length_c       8.80337
_cell_angle_alpha    90.0001
_cell_angle_beta     90.0002
_cell_angle_gamma    90

_space_group_name_H-M_alt    "P 1"
_space_group_IT_number       1

loop_
  _space_group_symop_operation_xyz
  'x, y, z'

loop_
  _atom_site_type_symbol
  _atom_site_label
  _atom_site_symmetry_multiplicity
  _atom_site_fract_x
  _atom_site_fract_y
  _atom_site_fract_z
  _atom_site_occupancy
  Zn  Zn1       1.0  0.00000  0.00000  0.00000  1.0000
  Zn  Zn2       1.0  0.50000  0.00000  1.00000  1.0000
  H   H1        1.0  0.82856  0.65554  0.90418  1.0000
  H   H2        1.0  0.82856  0.34446  0.09582  1.0000
  H   H3        1.0  0.67144  0.34446  0.90419  1.0000
  H   H4        1.0  0.32856  0.09581  0.34446  1.0000
  H   H5        1.0  0.17144  0.09581  0.65554  1.0000
  H   H6        1.0  0.17144  0.90418  0.34446  1.0000
  H   H7        1.0  0.32856  0.90418  0.65554  1.0000
  H   H8        1.0  0.67144  0.65554  0.09581  1.0000
  H   H9        1.0  0.94658  0.71415  0.73982  1.0000
  H   H10       1.0  0.94659  0.28585  0.26018  1.0000
  H   H11       1.0  0.55341  0.28585  0.73982  1.0000
  H   H12       1.0  0.44659  0.26018  0.28584  1.0000
  H   H13       1.0  0.05341  0.26018  0.71416  1.0000
  H   H14       1.0  0.05341  0.73982  0.28584  1.0000
  H   H15       1.0  0.44659  0.73982  0.71415  1.0000
  H   H16       1.0  0.55341  0.71416  0.26018  1.0000
  H   H17       1.0  0.96445  0.52220  0.80354  1.0000
  H   H18       1.0  0.96445  0.47780  0.19646  1.0000
  H   H19       1.0  0.53555  0.47780  0.80354  1.0000
  H   H20       1.0  0.46445  0.19646  0.47780  1.0000
  H   H21       1.0  0.03555  0.19646  0.52220  1.0000
  H   H22       1.0  0.03555  0.80354  0.47780  1.0000
  H   H23       1.0  0.46445  0.80354  0.52220  1.0000
  H   H24       1.0  0.53555  0.52220  0.19646  1.0000
  C   C1        1.0  0.25000  0.58282  1.00000  1.0000
  C   C2        1.0  0.25000  0.41718  1.00000  1.0000
  C   C3        1.0  0.75000  1.00000  0.41718  1.0000
  C   C4        1.0  0.75000  1.00000  0.58282  1.0000
  C   C5        1.0  0.12056  0.68051  0.93283  1.0000
  C   C6        1.0  0.12056  0.31949  0.06717  1.0000
  C   C7        1.0  0.37944  0.31949  0.93283  1.0000
  C   C8        1.0  0.62056  0.06717  0.31949  1.0000
  C   C9        1.0  0.87944  0.06717  0.68051  1.0000
  C   C10       1.0  0.87944  0.93283  0.31949  1.0000
  C   C11       1.0  0.62056  0.93283  0.68051  1.0000
  C   C12       1.0  0.37944  0.68051  0.06717  1.0000
  C   C13       1.0  0.95652  0.64106  0.84069  1.0000
  C   C14       1.0  0.95652  0.35894  0.15931  1.0000
  C   C15       1.0  0.54348  0.35894  0.84069  1.0000
  C   C16       1.0  0.45652  0.15931  0.35894  1.0000
  C   C17       1.0  0.04348  0.15931  0.64106  1.0000
  C   C18       1.0  0.04348  0.84069  0.35894  1.0000
  C   C19       1.0  0.45652  0.84069  0.64106  1.0000
  C   C20       1.0  0.54347  0.64106  0.15931  1.0000
  N   N1        1.0  0.16989  0.82606  0.95903  1.0000
  N   N2        1.0  0.16989  0.17394  0.04097  1.0000
  N   N3        1.0  0.33011  0.17394  0.95903  1.0000
  N   N4        1.0  0.66989  0.04097  0.17394  1.0000
  N   N5        1.0  0.83011  0.04097  0.82606  1.0000
  N   N6        1.0  0.83011  0.95903  0.17394  1.0000
  N   N7        1.0  0.66989  0.95903  0.82606  1.0000
  N   N8        1.0  0.33011  0.82606  0.04097  1.0000
