data_image0
_chemical_formula_structural       Cd2H56C70N8O12
_chemical_formula_sum              "Cd2 H56 C70 N8 O12"
_cell_length_a       8.63403
_cell_length_b       11.9928
_cell_length_c       16.4456
_cell_angle_alpha    110.195
_cell_angle_beta     96.0065
_cell_angle_gamma    105.829

_space_group_name_H-M_alt    "P 1"
_space_group_IT_number       1

loop_
  _space_group_symop_operation_xyz
  'x, y, z'

loop_
  _atom_site_type_symbol
  _atom_site_label
  _atom_site_symmetry_multiplicity
  _atom_site_fract_x
  _atom_site_fract_y
  _atom_site_fract_z
  _atom_site_occupancy
  Cd  Cd1       1.0  0.06584  0.33890  0.34362  1.0000
  Cd  Cd2       1.0  0.93416  0.66110  0.65638  1.0000
  H   H1        1.0  0.21868  0.97869  0.41705  1.0000
  H   H2        1.0  0.78132  0.02131  0.58295  1.0000
  H   H3        1.0  0.40759  0.95801  0.39669  1.0000
  H   H4        1.0  0.59241  0.04199  0.60331  1.0000
  H   H5        1.0  0.96636  0.73001  0.29993  1.0000
  H   H6        1.0  0.03364  0.26999  0.70007  1.0000
  H   H7        1.0  0.44632  0.80949  0.45739  1.0000
  H   H8        1.0  0.55368  0.19050  0.54261  1.0000
  H   H9        1.0  0.88790  0.51674  0.30170  1.0000
  H   H10       1.0  0.11210  0.48326  0.69830  1.0000
  H   H11       1.0  0.34645  0.59086  0.45312  1.0000
  H   H12       1.0  0.65355  0.40914  0.54688  1.0000
  H   H13       1.0  0.53562  0.35878  0.16790  1.0000
  H   H14       1.0  0.46439  0.64122  0.83211  1.0000
  H   H15       1.0  0.45809  0.05009  0.91933  1.0000
  H   H16       1.0  0.54191  0.94991  0.08066  1.0000
  H   H17       1.0  0.17656  0.94700  0.93378  1.0000
  H   H18       1.0  0.82344  0.05300  0.06622  1.0000
  H   H19       1.0  0.07679  0.05200  0.06902  1.0000
  H   H20       1.0  0.92321  0.94799  0.93097  1.0000
  H   H21       1.0  0.09789  0.49852  0.18327  1.0000
  H   H22       1.0  0.90211  0.50148  0.81673  1.0000
  H   H23       1.0  0.36097  0.47226  0.97184  1.0000
  H   H24       1.0  0.63902  0.52774  0.02816  1.0000
  H   H25       1.0  0.12338  0.28857  0.86881  1.0000
  H   H26       1.0  0.87661  0.71143  0.13119  1.0000
  H   H27       1.0  0.86892  0.21685  0.92055  1.0000
  H   H28       1.0  0.13107  0.78315  0.07945  1.0000
  H   H29       1.0  0.56892  0.55473  0.35591  1.0000
  H   H30       1.0  0.43107  0.44527  0.64409  1.0000
  H   H31       1.0  0.92047  0.92312  0.50092  1.0000
  H   H32       1.0  0.07952  0.07688  0.49908  1.0000
  H   H33       1.0  0.85145  0.98761  0.37509  1.0000
  H   H34       1.0  0.14854  0.01239  0.62491  1.0000
  H   H35       1.0  0.63908  0.83149  0.23951  1.0000
  H   H36       1.0  0.36091  0.16850  0.76049  1.0000
  H   H37       1.0  0.73416  0.40406  0.40162  1.0000
  H   H38       1.0  0.26584  0.59594  0.59838  1.0000
  H   H39       1.0  0.43634  0.29188  0.37741  1.0000
  H   H40       1.0  0.56366  0.70812  0.62259  1.0000
  H   H41       1.0  0.51600  0.95220  0.21393  1.0000
  H   H42       1.0  0.48400  0.04780  0.78608  1.0000
  H   H43       1.0  0.81259  0.07892  0.24280  1.0000
  H   H44       1.0  0.18741  0.92108  0.75720  1.0000
  H   H45       1.0  0.21355  0.02822  0.20609  1.0000
  H   H46       1.0  0.78645  0.97178  0.79392  1.0000
  H   H47       1.0  0.20742  0.09704  0.31807  1.0000
  H   H48       1.0  0.79257  0.90296  0.68193  1.0000
  H   H49       1.0  0.08953  0.86473  0.25396  1.0000
  H   H50       1.0  0.91047  0.13527  0.74604  1.0000
  H   H51       1.0  0.27993  0.84905  0.23301  1.0000
  H   H52       1.0  0.72008  0.15095  0.76699  1.0000
  H   H53       1.0  0.66769  0.26931  0.96649  1.0000
  H   H54       1.0  0.33231  0.73070  0.03351  1.0000
  H   H55       1.0  0.40464  0.51043  0.22576  1.0000
  H   H56       1.0  0.59536  0.48957  0.77424  1.0000
  C   C1        1.0  0.27288  0.91576  0.37212  1.0000
  C   C2        1.0  0.72712  0.08424  0.62789  1.0000
  C   C3        1.0  0.21600  0.78879  0.37728  1.0000
  C   C4        1.0  0.78400  0.21121  0.62272  1.0000
  C   C5        1.0  0.05596  0.70440  0.33502  1.0000
  C   C6        1.0  0.94404  0.29560  0.66498  1.0000
  C   C7        1.0  0.32052  0.74835  0.42286  1.0000
  C   C8        1.0  0.67948  0.25165  0.57714  1.0000
  C   C9        1.0  0.00959  0.58524  0.33670  1.0000
  C   C10       1.0  0.99041  0.41476  0.66330  1.0000
  C   C11       1.0  0.26647  0.62720  0.42124  1.0000
  C   C12       1.0  0.73353  0.37280  0.57876  1.0000
  C   C13       1.0  0.23361  0.27454  0.20338  1.0000
  C   C14       1.0  0.76639  0.72546  0.79662  1.0000
  C   C15       1.0  0.29769  0.21232  0.12484  1.0000
  C   C16       1.0  0.70231  0.78768  0.87516  1.0000
  C   C17       1.0  0.45628  0.26977  0.11643  1.0000
  C   C18       1.0  0.54372  0.73023  0.88357  1.0000
  C   C19       1.0  0.51265  0.21115  0.04185  1.0000
  C   C20       1.0  0.48735  0.78885  0.95815  1.0000
  C   C21       1.0  0.41080  0.09559  0.97606  1.0000
  C   C22       1.0  0.58920  0.90441  0.02394  1.0000
  C   C23       1.0  0.25370  0.03780  0.98490  1.0000
  C   C24       1.0  0.74631  0.96220  0.01510  1.0000
  C   C25       1.0  0.19782  0.09564  0.05962  1.0000
  C   C26       1.0  0.80219  0.90435  0.94038  1.0000
  C   C27       1.0  0.81425  0.32092  0.09039  1.0000
  C   C28       1.0  0.18575  0.67908  0.90961  1.0000
  C   C29       1.0  0.96533  0.35690  0.05502  1.0000
  C   C30       1.0  0.03467  0.64310  0.94498  1.0000
  C   C31       1.0  0.10415  0.45445  0.11421  1.0000
  C   C32       1.0  0.89585  0.54555  0.88578  1.0000
  C   C33       1.0  0.24574  0.49660  0.08450  1.0000
  C   C34       1.0  0.75425  0.50340  0.91550  1.0000
  C   C35       1.0  0.25107  0.43845  0.99529  1.0000
  C   C36       1.0  0.74893  0.56155  0.00471  1.0000
  C   C37       1.0  0.11656  0.33661  0.93729  1.0000
  C   C38       1.0  0.88345  0.66339  0.06270  1.0000
  C   C39       1.0  0.97349  0.29650  0.96659  1.0000
  C   C40       1.0  0.02650  0.70350  0.03341  1.0000
  C   C41       1.0  0.38813  0.60853  0.14630  1.0000
  C   C42       1.0  0.61187  0.39147  0.85370  1.0000
  C   C43       1.0  0.58707  0.68486  0.28997  1.0000
  C   C44       1.0  0.41293  0.31514  0.71003  1.0000
  C   C45       1.0  0.63060  0.64939  0.35988  1.0000
  C   C46       1.0  0.36940  0.35061  0.64012  1.0000
  C   C47       1.0  0.75000  0.73619  0.43544  1.0000
  C   C48       1.0  0.24999  0.26381  0.56456  1.0000
  C   C49       1.0  0.82758  0.85848  0.44125  1.0000
  C   C50       1.0  0.17242  0.14152  0.55875  1.0000
  C   C51       1.0  0.78877  0.89289  0.37109  1.0000
  C   C52       1.0  0.21123  0.10711  0.62890  1.0000
  C   C53       1.0  0.66998  0.80640  0.29492  1.0000
  C   C54       1.0  0.33002  0.19360  0.70508  1.0000
  C   C55       1.0  0.79948  0.70006  0.51044  1.0000
  C   C56       1.0  0.20053  0.29994  0.48956  1.0000
  C   C57       1.0  0.68216  0.30360  0.35989  1.0000
  C   C58       1.0  0.31783  0.69640  0.64011  1.0000
  C   C59       1.0  0.51468  0.23977  0.34656  1.0000
  C   C60       1.0  0.48532  0.76023  0.65344  1.0000
  C   C61       1.0  0.44884  0.11099  0.29306  1.0000
  C   C62       1.0  0.55115  0.88901  0.70694  1.0000
  C   C63       1.0  0.55909  0.05238  0.25571  1.0000
  C   C64       1.0  0.44090  0.94763  0.74428  1.0000
  C   C65       1.0  0.72455  0.12199  0.27187  1.0000
  C   C66       1.0  0.27545  0.87801  0.72813  1.0000
  C   C67       1.0  0.26742  0.03963  0.27342  1.0000
  C   C68       1.0  0.73258  0.96037  0.72658  1.0000
  C   C69       1.0  0.22385  0.90997  0.27811  1.0000
  C   C70       1.0  0.77615  0.09003  0.72189  1.0000
  N   N1        1.0  0.11403  0.54614  0.37787  1.0000
  N   N2        1.0  0.88598  0.45385  0.62213  1.0000
  N   N3        1.0  0.78593  0.24589  0.32332  1.0000
  N   N4        1.0  0.21407  0.75411  0.67668  1.0000
  N   N5        1.0  0.66983  0.26496  0.02799  1.0000
  N   N6        1.0  0.33017  0.73504  0.97201  1.0000
  N   N7        1.0  0.45790  0.59510  0.21873  1.0000
  N   N8        1.0  0.54210  0.40490  0.78127  1.0000
  O   O1        1.0  0.09772  0.20985  0.21372  1.0000
  O   O2        1.0  0.90228  0.79014  0.78628  1.0000
  O   O3        1.0  0.31432  0.38686  0.25737  1.0000
  O   O4        1.0  0.68568  0.61314  0.74263  1.0000
  O   O5        1.0  0.90548  0.78688  0.57909  1.0000
  O   O6        1.0  0.09452  0.21312  0.42091  1.0000
  O   O7        1.0  0.73742  0.58772  0.50419  1.0000
  O   O8        1.0  0.26259  0.41228  0.49581  1.0000
  O   O9        1.0  0.82333  0.34064  0.17037  1.0000
  O   O10       1.0  0.17667  0.65936  0.82963  1.0000
  O   O11       1.0  0.43461  0.70529  0.12978  1.0000
  O   O12       1.0  0.56539  0.29472  0.87022  1.0000
