data_image0
_chemical_formula_structural       Cd2H48C76N4O10
_chemical_formula_sum              "Cd2 H48 C76 N4 O10"
_cell_length_a       10.7004
_cell_length_b       10.7553
_cell_length_c       13.3783
_cell_angle_alpha    93.5859
_cell_angle_beta     109.311
_cell_angle_gamma    97.3856

_space_group_name_H-M_alt    "P 1"
_space_group_IT_number       1

loop_
  _space_group_symop_operation_xyz
  'x, y, z'

loop_
  _atom_site_type_symbol
  _atom_site_label
  _atom_site_symmetry_multiplicity
  _atom_site_fract_x
  _atom_site_fract_y
  _atom_site_fract_z
  _atom_site_occupancy
  Cd  Cd1       1.0  0.69302  0.43566  0.57698  1.0000
  Cd  Cd2       1.0  0.30698  0.56433  0.42302  1.0000
  H   H1        1.0  0.59287  0.64582  0.40429  1.0000
  H   H2        1.0  0.40713  0.35418  0.59571  1.0000
  H   H3        1.0  0.61976  0.71518  0.23740  1.0000
  H   H4        1.0  0.38024  0.28482  0.76260  1.0000
  H   H5        1.0  0.88431  0.22307  0.64952  1.0000
  H   H6        1.0  0.11569  0.77693  0.35048  1.0000
  H   H7        1.0  0.03332  0.10195  0.58691  1.0000
  H   H8        1.0  0.96668  0.89805  0.41309  1.0000
  H   H9        1.0  0.08647  0.32980  0.29676  1.0000
  H   H10       1.0  0.91353  0.67020  0.70324  1.0000
  H   H11       1.0  0.97862  0.49704  0.20542  1.0000
  H   H12       1.0  0.02138  0.50296  0.79458  1.0000
  H   H13       1.0  0.77455  0.46109  0.06155  1.0000
  H   H14       1.0  0.22545  0.53891  0.93846  1.0000
  H   H15       1.0  0.79840  0.54096  0.89752  1.0000
  H   H16       1.0  0.20160  0.45903  0.10248  1.0000
  H   H17       1.0  0.82364  0.77048  0.88237  1.0000
  H   H18       1.0  0.17635  0.22951  0.11763  1.0000
  H   H19       1.0  0.83183  0.92236  0.03450  1.0000
  H   H20       1.0  0.16817  0.07763  0.96550  1.0000
  H   H21       1.0  0.80971  0.84331  0.19875  1.0000
  H   H22       1.0  0.19028  0.15669  0.80125  1.0000
  H   H23       1.0  0.26110  0.14930  0.57254  1.0000
  H   H24       1.0  0.73890  0.85070  0.42746  1.0000
  H   H25       1.0  0.41429  0.03819  0.51077  1.0000
  H   H26       1.0  0.58572  0.96181  0.48923  1.0000
  H   H27       1.0  0.97910  0.10592  0.25203  1.0000
  H   H28       1.0  0.02090  0.89408  0.74797  1.0000
  H   H29       1.0  0.92338  0.32452  0.94157  1.0000
  H   H30       1.0  0.07662  0.67548  0.05843  1.0000
  H   H31       1.0  0.91722  0.23999  0.11121  1.0000
  H   H32       1.0  0.08278  0.76001  0.88879  1.0000
  H   H33       1.0  0.51051  0.05746  0.94695  1.0000
  H   H34       1.0  0.48949  0.94254  0.05305  1.0000
  H   H35       1.0  0.52011  0.13854  0.77880  1.0000
  H   H36       1.0  0.47989  0.86146  0.22120  1.0000
  H   H37       1.0  0.57058  0.29695  0.06876  1.0000
  H   H38       1.0  0.42941  0.70305  0.93124  1.0000
  H   H39       1.0  0.44674  0.39854  0.16951  1.0000
  H   H40       1.0  0.55326  0.60147  0.83049  1.0000
  H   H41       1.0  0.57627  0.16283  0.41899  1.0000
  H   H42       1.0  0.42373  0.83717  0.58101  1.0000
  H   H43       1.0  0.69710  0.05479  0.31629  1.0000
  H   H44       1.0  0.30290  0.94521  0.68370  1.0000
  H   H45       1.0  0.13057  0.98852  0.18998  1.0000
  H   H46       1.0  0.86943  0.01148  0.81002  1.0000
  H   H47       1.0  0.34978  0.95651  0.31890  1.0000
  H   H48       1.0  0.65022  0.04349  0.68110  1.0000
  C   C1        1.0  0.66273  0.60781  0.37171  1.0000
  C   C2        1.0  0.33727  0.39219  0.62829  1.0000
  C   C3        1.0  0.68040  0.64781  0.27888  1.0000
  C   C4        1.0  0.31960  0.35219  0.72112  1.0000
  C   C5        1.0  0.77165  0.60064  0.23892  1.0000
  C   C6        1.0  0.22835  0.39936  0.76108  1.0000
  C   C7        1.0  0.84273  0.50781  0.29470  1.0000
  C   C8        1.0  0.15728  0.49219  0.70530  1.0000
  C   C9        1.0  0.81479  0.46960  0.38620  1.0000
  C   C10       1.0  0.18521  0.53040  0.61380  1.0000
  C   C11       1.0  0.87940  0.37059  0.44097  1.0000
  C   C12       1.0  0.12060  0.62941  0.55903  1.0000
  C   C13       1.0  0.90815  0.24493  0.57885  1.0000
  C   C14       1.0  0.09185  0.75507  0.42115  1.0000
  C   C15       1.0  0.99403  0.17943  0.54445  1.0000
  C   C16       1.0  0.00597  0.82057  0.45555  1.0000
  C   C17       1.0  0.02449  0.21008  0.45476  1.0000
  C   C18       1.0  0.97551  0.78992  0.54524  1.0000
  C   C19       1.0  0.96976  0.31274  0.40277  1.0000
  C   C20       1.0  0.03024  0.68726  0.59723  1.0000
  C   C21       1.0  0.00586  0.36359  0.31814  1.0000
  C   C22       1.0  0.99415  0.63641  0.68186  1.0000
  C   C23       1.0  0.94466  0.45668  0.26624  1.0000
  C   C24       1.0  0.05534  0.54332  0.73376  1.0000
  C   C25       1.0  0.79079  0.64639  0.14215  1.0000
  C   C26       1.0  0.20921  0.35361  0.85785  1.0000
  C   C27       1.0  0.78904  0.56237  0.05654  1.0000
  C   C28       1.0  0.21096  0.43763  0.94346  1.0000
  C   C29       1.0  0.80199  0.60694  0.96417  1.0000
  C   C30       1.0  0.19801  0.39306  0.03583  1.0000
  C   C31       1.0  0.81708  0.73654  0.95589  1.0000
  C   C32       1.0  0.18292  0.26346  0.04411  1.0000
  C   C33       1.0  0.82020  0.82117  0.04056  1.0000
  C   C34       1.0  0.17979  0.17883  0.95944  1.0000
  C   C35       1.0  0.80657  0.77654  0.13276  1.0000
  C   C36       1.0  0.19343  0.22345  0.86724  1.0000
  C   C37       1.0  0.11162  0.13851  0.41631  1.0000
  C   C38       1.0  0.88838  0.86149  0.58369  1.0000
  C   C39       1.0  0.23256  0.11427  0.48868  1.0000
  C   C40       1.0  0.76744  0.88573  0.51132  1.0000
  C   C41       1.0  0.31841  0.05094  0.45353  1.0000
  C   C42       1.0  0.68159  0.94907  0.54647  1.0000
  C   C43       1.0  0.07541  0.09204  0.30822  1.0000
  C   C44       1.0  0.92459  0.90796  0.69178  1.0000
  C   C45       1.0  0.72033  0.30071  0.75353  1.0000
  C   C46       1.0  0.27967  0.69929  0.24647  1.0000
  C   C47       1.0  0.72099  0.23919  0.85112  1.0000
  C   C48       1.0  0.27901  0.76081  0.14889  1.0000
  C   C49       1.0  0.83433  0.26468  0.94369  1.0000
  C   C50       1.0  0.16568  0.73532  0.05631  1.0000
  C   C51       1.0  0.83131  0.21754  0.03773  1.0000
  C   C52       1.0  0.16869  0.78246  0.96227  1.0000
  C   C53       1.0  0.71368  0.14537  0.03840  1.0000
  C   C54       1.0  0.28632  0.85464  0.96160  1.0000
  C   C55       1.0  0.60170  0.11396  0.94563  1.0000
  C   C56       1.0  0.39830  0.88604  0.05437  1.0000
  C   C57       1.0  0.60638  0.16077  0.85213  1.0000
  C   C58       1.0  0.39362  0.83923  0.14787  1.0000
  C   C59       1.0  0.63913  0.16770  0.18596  1.0000
  C   C60       1.0  0.36087  0.83230  0.81403  1.0000
  C   C61       1.0  0.57039  0.26551  0.14444  1.0000
  C   C62       1.0  0.42961  0.73449  0.85555  1.0000
  C   C63       1.0  0.50053  0.32238  0.20097  1.0000
  C   C64       1.0  0.49947  0.67762  0.79903  1.0000
  C   C65       1.0  0.50065  0.28547  0.29938  1.0000
  C   C66       1.0  0.49935  0.71452  0.70062  1.0000
  C   C67       1.0  0.57281  0.18922  0.34093  1.0000
  C   C68       1.0  0.42719  0.81078  0.65907  1.0000
  C   C69       1.0  0.64041  0.12929  0.28436  1.0000
  C   C70       1.0  0.35959  0.87071  0.71563  1.0000
  C   C71       1.0  0.43302  0.35400  0.36221  1.0000
  C   C72       1.0  0.56698  0.64599  0.63779  1.0000
  C   C73       1.0  0.16028  0.02595  0.27362  1.0000
  C   C74       1.0  0.83972  0.97406  0.72638  1.0000
  C   C75       1.0  0.28296  0.00703  0.34593  1.0000
  C   C76       1.0  0.71704  0.99297  0.65407  1.0000
  N   N1        1.0  0.72872  0.52188  0.42456  1.0000
  N   N2        1.0  0.27128  0.47812  0.57544  1.0000
  N   N3        1.0  0.85025  0.33572  0.52735  1.0000
  N   N4        1.0  0.14975  0.66428  0.47265  1.0000
  O   O1        1.0  0.61636  0.27312  0.66965  1.0000
  O   O2        1.0  0.38364  0.72688  0.33035  1.0000
  O   O3        1.0  0.82217  0.37977  0.75912  1.0000
  O   O4        1.0  0.17783  0.62023  0.24088  1.0000
  O   O5        1.0  0.71015  0.10463  0.13483  1.0000
  O   O6        1.0  0.28985  0.89537  0.86517  1.0000
  O   O7        1.0  0.47692  0.35748  0.46325  1.0000
  O   O8        1.0  0.52308  0.64251  0.53675  1.0000
  O   O9        1.0  0.33539  0.40886  0.31160  1.0000
  O   O10       1.0  0.66461  0.59113  0.68840  1.0000
