data_image0
_chemical_formula_structural       Cu8H32C52N20
_chemical_formula_sum              "Cu8 H32 C52 N20"
_cell_length_a       8.1943
_cell_length_b       10.6707
_cell_length_c       13.8867
_cell_angle_alpha    90.0018
_cell_angle_beta     90.0001
_cell_angle_gamma    91.446

_space_group_name_H-M_alt    "P 1"
_space_group_IT_number       1

loop_
  _space_group_symop_operation_xyz
  'x, y, z'

loop_
  _atom_site_type_symbol
  _atom_site_label
  _atom_site_symmetry_multiplicity
  _atom_site_fract_x
  _atom_site_fract_y
  _atom_site_fract_z
  _atom_site_occupancy
  Cu  Cu1       1.0  0.92476  0.48210  0.57686  1.0000
  Cu  Cu2       1.0  0.57521  0.01786  0.07684  1.0000
  Cu  Cu3       1.0  0.07509  0.51797  0.42317  1.0000
  Cu  Cu4       1.0  0.42485  0.98209  0.92317  1.0000
  Cu  Cu5       1.0  0.55151  0.24245  0.38702  1.0000
  Cu  Cu6       1.0  0.94863  0.25752  0.88708  1.0000
  Cu  Cu7       1.0  0.44869  0.75758  0.61290  1.0000
  Cu  Cu8       1.0  0.05143  0.74237  0.11291  1.0000
  H   H1        1.0  0.74684  0.03290  0.29012  1.0000
  H   H2        1.0  0.75317  0.46707  0.79013  1.0000
  H   H3        1.0  0.25319  0.96706  0.70987  1.0000
  H   H4        1.0  0.24681  0.53292  0.20988  1.0000
  H   H5        1.0  0.90233  0.84849  0.34644  1.0000
  H   H6        1.0  0.59768  0.65151  0.84643  1.0000
  H   H7        1.0  0.09769  0.15150  0.65358  1.0000
  H   H8        1.0  0.40231  0.34851  0.15357  1.0000
  H   H9        1.0  0.90890  0.80143  0.52388  1.0000
  H   H10       1.0  0.59113  0.69859  0.02387  1.0000
  H   H11       1.0  0.09113  0.19857  0.47614  1.0000
  H   H12       1.0  0.40887  0.30144  0.97613  1.0000
  H   H13       1.0  0.76534  0.94397  0.63698  1.0000
  H   H14       1.0  0.73471  0.55608  0.13699  1.0000
  H   H15       1.0  0.23471  0.05607  0.36301  1.0000
  H   H16       1.0  0.26532  0.44397  0.86301  1.0000
  H   H17       1.0  0.65367  0.08069  0.72418  1.0000
  H   H18       1.0  0.84626  0.41926  0.22417  1.0000
  H   H19       1.0  0.34634  0.91929  0.27586  1.0000
  H   H20       1.0  0.15370  0.58071  0.77582  1.0000
  H   H21       1.0  0.51421  0.24648  0.81156  1.0000
  H   H22       1.0  0.98578  0.25351  0.31153  1.0000
  H   H23       1.0  0.48579  0.75349  0.18848  1.0000
  H   H24       1.0  0.01423  0.74650  0.68846  1.0000
  H   H25       1.0  0.38399  0.42212  0.71573  1.0000
  H   H26       1.0  0.11603  0.07788  0.21568  1.0000
  H   H27       1.0  0.61599  0.57785  0.28432  1.0000
  H   H28       1.0  0.88398  0.92213  0.78429  1.0000
  H   H29       1.0  0.39620  0.41352  0.53817  1.0000
  H   H30       1.0  0.10383  0.08647  0.03813  1.0000
  H   H31       1.0  0.60384  0.58645  0.46187  1.0000
  H   H32       1.0  0.89621  0.91356  0.96185  1.0000
  C   C1        1.0  0.75496  0.59216  0.61499  1.0000
  C   C2        1.0  0.74511  0.90795  0.11504  1.0000
  C   C3        1.0  0.24496  0.40800  0.38492  1.0000
  C   C4        1.0  0.25498  0.09206  0.88496  1.0000
  C   C5        1.0  0.95545  0.36424  0.67815  1.0000
  C   C6        1.0  0.54463  0.13566  0.17817  1.0000
  C   C7        1.0  0.04453  0.63564  0.32175  1.0000
  C   C8        1.0  0.45551  0.86424  0.82187  1.0000
  C   C9        1.0  0.75678  0.01136  0.36647  1.0000
  C   C10       1.0  0.74323  0.48862  0.86647  1.0000
  C   C11       1.0  0.24324  0.98861  0.63353  1.0000
  C   C12       1.0  0.25675  0.51139  0.13353  1.0000
  C   C13       1.0  0.84278  0.90842  0.39847  1.0000
  C   C14       1.0  0.65723  0.59158  0.89847  1.0000
  C   C15       1.0  0.15723  0.09156  0.60154  1.0000
  C   C16       1.0  0.34276  0.40845  0.10153  1.0000
  C   C17       1.0  0.84615  0.88315  0.49686  1.0000
  C   C18       1.0  0.65386  0.61686  0.99686  1.0000
  C   C19       1.0  0.15386  0.11685  0.50315  1.0000
  C   C20       1.0  0.34613  0.38316  0.00314  1.0000
  C   C21       1.0  0.76626  0.96258  0.55992  1.0000
  C   C22       1.0  0.73375  0.53745  0.05994  1.0000
  C   C23       1.0  0.23376  0.03744  0.44007  1.0000
  C   C24       1.0  0.26626  0.46257  0.94008  1.0000
  C   C25       1.0  0.68501  0.06601  0.52331  1.0000
  C   C26       1.0  0.81499  0.43401  0.02332  1.0000
  C   C27       1.0  0.31500  0.93401  0.47669  1.0000
  C   C28       1.0  0.18500  0.56601  0.97669  1.0000
  C   C29       1.0  0.60024  0.15765  0.58326  1.0000
  C   C30       1.0  0.89977  0.34235  0.08323  1.0000
  C   C31       1.0  0.39980  0.84235  0.41677  1.0000
  C   C32       1.0  0.10022  0.65766  0.91675  1.0000
  C   C33       1.0  0.59556  0.15455  0.68373  1.0000
  C   C34       1.0  0.90443  0.34542  0.18372  1.0000
  C   C35       1.0  0.40449  0.84543  0.31630  1.0000
  C   C36       1.0  0.09554  0.65457  0.81628  1.0000
  C   C37       1.0  0.51679  0.24905  0.73329  1.0000
  C   C38       1.0  0.98321  0.25093  0.23326  1.0000
  C   C39       1.0  0.48323  0.75092  0.26674  1.0000
  C   C40       1.0  0.01680  0.74907  0.76672  1.0000
  C   C41       1.0  0.44511  0.34457  0.68143  1.0000
  C   C42       1.0  0.05490  0.15543  0.18139  1.0000
  C   C43       1.0  0.55489  0.65541  0.31862  1.0000
  C   C44       1.0  0.94510  0.84458  0.81859  1.0000
  C   C45       1.0  0.45236  0.34149  0.58135  1.0000
  C   C46       1.0  0.04769  0.15852  0.08131  1.0000
  C   C47       1.0  0.54769  0.65850  0.41871  1.0000
  C   C48       1.0  0.95235  0.84150  0.91867  1.0000
  C   C49       1.0  0.85577  0.42153  0.44341  1.0000
  C   C50       1.0  0.64424  0.07842  0.94339  1.0000
  C   C51       1.0  0.14419  0.57859  0.55653  1.0000
  C   C52       1.0  0.35581  0.92137  0.05650  1.0000
  N   N1        1.0  0.67997  0.08803  0.42709  1.0000
  N   N2        1.0  0.82001  0.41197  0.92711  1.0000
  N   N3        1.0  0.32002  0.91197  0.57289  1.0000
  N   N4        1.0  0.17994  0.58803  0.07289  1.0000
  N   N5        1.0  0.52649  0.24993  0.53376  1.0000
  N   N6        1.0  0.97357  0.25010  0.03372  1.0000
  N   N7        1.0  0.47355  0.75008  0.46628  1.0000
  N   N8        1.0  0.02652  0.74994  0.96625  1.0000
  N   N9        1.0  0.75140  0.37222  0.39737  1.0000
  N   N10       1.0  0.74862  0.12778  0.89740  1.0000
  N   N11       1.0  0.24854  0.62780  0.60263  1.0000
  N   N12       1.0  0.25142  0.87221  0.10260  1.0000
  N   N13       1.0  0.64049  0.65368  0.62969  1.0000
  N   N14       1.0  0.85933  0.84608  0.12946  1.0000
  N   N15       1.0  0.35929  0.34620  0.37063  1.0000
  N   N16       1.0  0.14051  0.15362  0.87038  1.0000
  N   N17       1.0  0.95698  0.31073  0.75227  1.0000
  N   N18       1.0  0.54275  0.18955  0.25212  1.0000
  N   N19       1.0  0.04306  0.68949  0.24778  1.0000
  N   N20       1.0  0.45682  0.81079  0.74772  1.0000
