data_image0
_chemical_formula_structural       Zn4H24C32O20
_chemical_formula_sum              "Zn4 H24 C32 O20"
_cell_length_a       6.60582
_cell_length_b       10.148
_cell_length_c       20.0008
_cell_angle_alpha    78.5982
_cell_angle_beta     88.6283
_cell_angle_gamma    78.7446

_space_group_name_H-M_alt    "P 1"
_space_group_IT_number       1

loop_
  _space_group_symop_operation_xyz
  'x, y, z'

loop_
  _atom_site_type_symbol
  _atom_site_label
  _atom_site_symmetry_multiplicity
  _atom_site_fract_x
  _atom_site_fract_y
  _atom_site_fract_z
  _atom_site_occupancy
  Zn  Zn1       1.0  0.64379  0.68166  0.71507  1.0000
  Zn  Zn2       1.0  0.35621  0.31833  0.28493  1.0000
  Zn  Zn3       1.0  0.95229  0.76617  0.78188  1.0000
  Zn  Zn4       1.0  0.04771  0.23383  0.21812  1.0000
  H   H1        1.0  0.32888  0.50031  0.89048  1.0000
  H   H2        1.0  0.67111  0.49971  0.10952  1.0000
  H   H3        1.0  0.81397  0.60176  0.99905  1.0000
  H   H4        1.0  0.18603  0.39825  0.00095  1.0000
  H   H5        1.0  0.73912  0.85057  0.50976  1.0000
  H   H6        1.0  0.26088  0.14942  0.49023  1.0000
  H   H7        1.0  0.20081  0.00528  0.60286  1.0000
  H   H8        1.0  0.79918  0.99471  0.39713  1.0000
  H   H9        1.0  0.16730  0.03233  0.71140  1.0000
  H   H10       1.0  0.83271  0.96766  0.28860  1.0000
  H   H11       1.0  0.92921  0.25726  0.71000  1.0000
  H   H12       1.0  0.07079  0.74273  0.29002  1.0000
  H   H13       1.0  0.41506  0.40302  0.79595  1.0000
  H   H14       1.0  0.58494  0.59698  0.20406  1.0000
  H   H15       1.0  0.65003  0.17754  0.79885  1.0000
  H   H16       1.0  0.34998  0.82246  0.20115  1.0000
  H   H17       1.0  0.29420  0.74757  0.66377  1.0000
  H   H18       1.0  0.70579  0.25242  0.33623  1.0000
  H   H19       1.0  0.29763  0.60589  0.70865  1.0000
  H   H20       1.0  0.70237  0.39411  0.29136  1.0000
  H   H21       1.0  0.15403  0.76834  0.88560  1.0000
  H   H22       1.0  0.84597  0.23169  0.11439  1.0000
  H   H23       1.0  0.32239  0.73729  0.83018  1.0000
  H   H24       1.0  0.67762  0.26272  0.16981  1.0000
  C   C1        1.0  0.66479  0.62115  0.87184  1.0000
  C   C2        1.0  0.33520  0.37886  0.12815  1.0000
  C   C3        1.0  0.58044  0.55796  0.93808  1.0000
  C   C4        1.0  0.41955  0.44205  0.06192  1.0000
  C   C5        1.0  0.40303  0.50058  0.93854  1.0000
  C   C6        1.0  0.59697  0.49944  0.06146  1.0000
  C   C7        1.0  0.67692  0.55668  0.99995  1.0000
  C   C8        1.0  0.32307  0.44333  0.00005  1.0000
  C   C9        1.0  0.92426  0.83514  0.63019  1.0000
  C   C10       1.0  0.07573  0.16485  0.36981  1.0000
  C   C11       1.0  0.96578  0.91926  0.56290  1.0000
  C   C12       1.0  0.03421  0.08073  0.43709  1.0000
  C   C13       1.0  0.85286  0.91640  0.50485  1.0000
  C   C14       1.0  0.14713  0.08359  0.49514  1.0000
  C   C15       1.0  0.11321  0.00334  0.55769  1.0000
  C   C16       1.0  0.88678  0.99665  0.44230  1.0000
  C   C17       1.0  0.56550  0.95873  0.75333  1.0000
  C   C18       1.0  0.43451  0.04127  0.24667  1.0000
  C   C19       1.0  0.42308  0.09226  0.75463  1.0000
  C   C20       1.0  0.57693  0.90773  0.24537  1.0000
  C   C21       1.0  0.21990  0.11423  0.72978  1.0000
  C   C22       1.0  0.78010  0.88577  0.27023  1.0000
  C   C23       1.0  0.08709  0.23888  0.72937  1.0000
  C   C24       1.0  0.91291  0.76111  0.27064  1.0000
  C   C25       1.0  0.15714  0.34370  0.75291  1.0000
  C   C26       1.0  0.84286  0.65628  0.24709  1.0000
  C   C27       1.0  0.36047  0.32136  0.77795  1.0000
  C   C28       1.0  0.63953  0.67864  0.22205  1.0000
  C   C29       1.0  0.49232  0.19594  0.77934  1.0000
  C   C30       1.0  0.50768  0.80406  0.22066  1.0000
  C   C31       1.0  0.01804  0.47924  0.75047  1.0000
  C   C32       1.0  0.98196  0.52075  0.24953  1.0000
  O   O1        1.0  0.54511  0.64557  0.81906  1.0000
  O   O2        1.0  0.45489  0.35444  0.18093  1.0000
  O   O3        1.0  0.84428  0.64755  0.87093  1.0000
  O   O4        1.0  0.15572  0.35246  0.12907  1.0000
  O   O5        1.0  0.79973  0.75408  0.63134  1.0000
  O   O6        1.0  0.20026  0.24590  0.36865  1.0000
  O   O7        1.0  0.01927  0.85068  0.68274  1.0000
  O   O8        1.0  0.98072  0.14931  0.31726  1.0000
  O   O9        1.0  0.51149  0.88328  0.71592  1.0000
  O   O10       1.0  0.48853  0.11672  0.28407  1.0000
  O   O11       1.0  0.73178  0.92994  0.78919  1.0000
  O   O12       1.0  0.26822  0.07006  0.21081  1.0000
  O   O13       1.0  0.82722  0.49230  0.73745  1.0000
  O   O14       1.0  0.17278  0.50769  0.26256  1.0000
  O   O15       1.0  0.10283  0.57707  0.76175  1.0000
  O   O16       1.0  0.89717  0.42293  0.23825  1.0000
  O   O17       1.0  0.38259  0.65565  0.67406  1.0000
  O   O18       1.0  0.61741  0.34434  0.32594  1.0000
  O   O19       1.0  0.18585  0.79747  0.83780  1.0000
  O   O20       1.0  0.81415  0.20254  0.16220  1.0000
