data_image0
_chemical_formula_structural       Cs4H32C28N4O24
_chemical_formula_sum              "Cs4 H32 C28 N4 O24"
_cell_length_a       6.00898
_cell_length_b       7.08163
_cell_length_c       24.4099
_cell_angle_alpha    89.9978
_cell_angle_beta     93.5264
_cell_angle_gamma    89.9998

_space_group_name_H-M_alt    "P 1"
_space_group_IT_number       1

loop_
  _space_group_symop_operation_xyz
  'x, y, z'

loop_
  _atom_site_type_symbol
  _atom_site_label
  _atom_site_symmetry_multiplicity
  _atom_site_fract_x
  _atom_site_fract_y
  _atom_site_fract_z
  _atom_site_occupancy
  Cs  Cs1       1.0  0.25209  0.19204  0.47251  1.0000
  Cs  Cs2       1.0  0.24791  0.69204  0.02749  1.0000
  Cs  Cs3       1.0  0.74792  0.80796  0.52749  1.0000
  Cs  Cs4       1.0  0.75209  0.30796  0.97251  1.0000
  H   H1        1.0  0.69343  0.11748  0.17390  1.0000
  H   H2        1.0  0.80659  0.61748  0.32610  1.0000
  H   H3        1.0  0.30658  0.88250  0.82610  1.0000
  H   H4        1.0  0.19341  0.38252  0.67390  1.0000
  H   H5        1.0  0.88700  0.13805  0.26743  1.0000
  H   H6        1.0  0.61301  0.63805  0.23257  1.0000
  H   H7        1.0  0.11300  0.86194  0.73257  1.0000
  H   H8        1.0  0.38695  0.36194  0.76743  1.0000
  H   H9        1.0  0.31818  0.88241  0.33706  1.0000
  H   H10       1.0  0.18185  0.38240  0.16295  1.0000
  H   H11       1.0  0.68184  0.11759  0.66295  1.0000
  H   H12       1.0  0.81815  0.61763  0.83706  1.0000
  H   H13       1.0  0.12580  0.86206  0.24263  1.0000
  H   H14       1.0  0.37423  0.36205  0.25737  1.0000
  H   H15       1.0  0.87423  0.13793  0.75737  1.0000
  H   H16       1.0  0.62579  0.63797  0.74263  1.0000
  H   H17       1.0  0.39131  0.52769  0.59352  1.0000
  H   H18       1.0  0.10866  0.02767  0.90648  1.0000
  H   H19       1.0  0.60870  0.47231  0.40648  1.0000
  H   H20       1.0  0.89133  0.97233  0.09352  1.0000
  H   H21       1.0  0.13217  0.47910  0.58427  1.0000
  H   H22       1.0  0.36780  0.97909  0.91573  1.0000
  H   H23       1.0  0.86783  0.52091  0.41573  1.0000
  H   H24       1.0  0.63220  0.02091  0.08427  1.0000
  H   H25       1.0  0.75266  0.33159  0.48462  1.0000
  H   H26       1.0  0.74735  0.83159  0.01538  1.0000
  H   H27       1.0  0.24735  0.66841  0.51537  1.0000
  H   H28       1.0  0.25264  0.16842  0.98462  1.0000
  H   H29       1.0  0.77990  0.30902  0.54913  1.0000
  H   H30       1.0  0.72009  0.80901  0.95087  1.0000
  H   H31       1.0  0.22011  0.69099  0.45087  1.0000
  H   H32       1.0  0.27991  0.19099  0.04913  1.0000
  C   C1        1.0  0.39642  0.99036  0.20288  1.0000
  C   C2        1.0  0.10360  0.49036  0.29712  1.0000
  C   C3        1.0  0.60359  0.00962  0.79712  1.0000
  C   C4        1.0  0.89640  0.50965  0.70288  1.0000
  C   C5        1.0  0.61159  0.06672  0.20957  1.0000
  C   C6        1.0  0.88844  0.56671  0.29042  1.0000
  C   C7        1.0  0.38842  0.93327  0.79042  1.0000
  C   C8        1.0  0.11155  0.43328  0.70958  1.0000
  C   C9        1.0  0.72063  0.07821  0.26139  1.0000
  C   C10       1.0  0.77940  0.57822  0.23861  1.0000
  C   C11       1.0  0.27939  0.92179  0.73861  1.0000
  C   C12       1.0  0.22058  0.42177  0.76139  1.0000
  C   C13       1.0  0.61110  0.01236  0.30643  1.0000
  C   C14       1.0  0.88892  0.51236  0.19356  1.0000
  C   C15       1.0  0.38892  0.98764  0.69357  1.0000
  C   C16       1.0  0.11106  0.48764  0.80644  1.0000
  C   C17       1.0  0.39796  0.93295  0.30103  1.0000
  C   C18       1.0  0.10208  0.43296  0.19898  1.0000
  C   C19       1.0  0.60205  0.06704  0.69897  1.0000
  C   C20       1.0  0.89792  0.56706  0.80102  1.0000
  C   C21       1.0  0.29223  0.92209  0.24881  1.0000
  C   C22       1.0  0.20781  0.42209  0.25120  1.0000
  C   C23       1.0  0.70778  0.07790  0.75119  1.0000
  C   C24       1.0  0.79220  0.57793  0.74880  1.0000
  C   C25       1.0  0.27211  0.98723  0.14705  1.0000
  C   C26       1.0  0.22789  0.48722  0.35295  1.0000
  C   C27       1.0  0.72787  0.01276  0.85295  1.0000
  C   C28       1.0  0.77210  0.51278  0.64705  1.0000
  N   N1        1.0  0.72501  0.02564  0.36103  1.0000
  N   N2        1.0  0.77502  0.52560  0.13897  1.0000
  N   N3        1.0  0.27501  0.97439  0.63897  1.0000
  N   N4        1.0  0.22497  0.47439  0.86103  1.0000
  O   O1        1.0  0.26989  0.50002  0.56457  1.0000
  O   O2        1.0  0.23008  0.00003  0.93543  1.0000
  O   O3        1.0  0.73011  0.49997  0.43543  1.0000
  O   O4        1.0  0.76992  0.99997  0.06457  1.0000
  O   O5        1.0  0.76243  0.23517  0.51463  1.0000
  O   O6        1.0  0.73757  0.73516  0.98537  1.0000
  O   O7        1.0  0.23758  0.76484  0.48536  1.0000
  O   O8        1.0  0.26243  0.26485  0.01463  1.0000
  O   O9        1.0  0.37073  0.05820  0.10693  1.0000
  O   O10       1.0  0.12929  0.55821  0.39307  1.0000
  O   O11       1.0  0.62926  0.94179  0.89307  1.0000
  O   O12       1.0  0.87070  0.44179  0.60692  1.0000
  O   O13       1.0  0.07823  0.91683  0.14409  1.0000
  O   O14       1.0  0.42176  0.41678  0.35592  1.0000
  O   O15       1.0  0.92176  0.08316  0.85591  1.0000
  O   O16       1.0  0.57823  0.58320  0.64409  1.0000
  O   O17       1.0  0.62124  0.97578  0.40114  1.0000
  O   O18       1.0  0.87875  0.47572  0.09886  1.0000
  O   O19       1.0  0.37875  0.02424  0.59887  1.0000
  O   O20       1.0  0.12123  0.52427  0.90114  1.0000
  O   O21       1.0  0.92052  0.08429  0.36467  1.0000
  O   O22       1.0  0.57950  0.58426  0.13533  1.0000
  O   O23       1.0  0.07947  0.91574  0.63533  1.0000
  O   O24       1.0  0.42048  0.41572  0.86467  1.0000
