data_image0
_chemical_formula_structural       Ba2H30C16N2O20
_chemical_formula_sum              "Ba2 H30 C16 N2 O20"
_cell_length_a       6.97171
_cell_length_b       9.58596
_cell_length_c       11.1396
_cell_angle_alpha    113.1
_cell_angle_beta     95.5112
_cell_angle_gamma    98.9678

_space_group_name_H-M_alt    "P 1"
_space_group_IT_number       1

loop_
  _space_group_symop_operation_xyz
  'x, y, z'

loop_
  _atom_site_type_symbol
  _atom_site_label
  _atom_site_symmetry_multiplicity
  _atom_site_fract_x
  _atom_site_fract_y
  _atom_site_fract_z
  _atom_site_occupancy
  Ba  Ba1       1.0  0.59636  0.76013  0.60656  1.0000
  Ba  Ba2       1.0  0.40364  0.23987  0.39344  1.0000
  H   H1        1.0  0.12587  0.75279  0.68910  1.0000
  H   H2        1.0  0.87413  0.24720  0.31090  1.0000
  H   H3        1.0  0.07885  0.66371  0.53691  1.0000
  H   H4        1.0  0.92115  0.33629  0.46309  1.0000
  H   H5        1.0  0.86479  0.64849  0.35753  1.0000
  H   H6        1.0  0.13520  0.35152  0.64247  1.0000
  H   H7        1.0  0.83517  0.50419  0.40092  1.0000
  H   H8        1.0  0.16483  0.49581  0.59908  1.0000
  H   H9        1.0  0.58479  0.85136  0.94272  1.0000
  H   H10       1.0  0.41521  0.14864  0.05728  1.0000
  H   H11       1.0  0.39901  0.88253  0.87493  1.0000
  H   H12       1.0  0.60099  0.11747  0.12507  1.0000
  H   H13       1.0  0.95015  0.06357  0.60333  1.0000
  H   H14       1.0  0.04986  0.93641  0.39666  1.0000
  H   H15       1.0  0.74657  0.09434  0.56993  1.0000
  H   H16       1.0  0.25343  0.90566  0.43008  1.0000
  H   H17       1.0  0.51047  0.12611  0.69055  1.0000
  H   H18       1.0  0.48953  0.87389  0.30945  1.0000
  H   H19       1.0  0.38965  0.04935  0.77295  1.0000
  H   H20       1.0  0.61035  0.95066  0.22705  1.0000
  H   H21       1.0  0.86055  0.13556  0.82448  1.0000
  H   H22       1.0  0.13946  0.86444  0.17553  1.0000
  H   H23       1.0  0.88297  0.13083  0.98245  1.0000
  H   H24       1.0  0.11703  0.86916  0.01755  1.0000
  H   H25       1.0  0.30700  0.57419  0.87387  1.0000
  H   H26       1.0  0.69300  0.42581  0.12613  1.0000
  H   H27       1.0  0.40653  0.71147  0.11590  1.0000
  H   H28       1.0  0.59347  0.28853  0.88410  1.0000
  H   H29       1.0  0.11252  0.30490  0.15511  1.0000
  H   H30       1.0  0.88748  0.69510  0.84489  1.0000
  C   C1        1.0  0.34641  0.59052  0.30320  1.0000
  C   C2        1.0  0.65359  0.40948  0.69680  1.0000
  C   C3        1.0  0.15577  0.36051  0.87705  1.0000
  C   C4        1.0  0.84422  0.63949  0.12294  1.0000
  C   C5        1.0  0.96643  0.14368  0.90744  1.0000
  C   C6        1.0  0.03357  0.85632  0.09256  1.0000
  C   C7        1.0  0.27521  0.51753  0.15659  1.0000
  C   C8        1.0  0.72479  0.48247  0.84341  1.0000
  C   C9        1.0  0.26475  0.51710  0.93778  1.0000
  C   C10       1.0  0.73525  0.48290  0.06222  1.0000
  C   C11       1.0  0.32159  0.59260  0.07267  1.0000
  C   C12       1.0  0.67841  0.40740  0.92733  1.0000
  C   C13       1.0  0.07308  0.00900  0.85821  1.0000
  C   C14       1.0  0.92692  0.99100  0.14179  1.0000
  C   C15       1.0  0.16056  0.36951  0.09796  1.0000
  C   C16       1.0  0.83944  0.63049  0.90204  1.0000
  N   N1        1.0  0.09777  0.29633  0.96512  1.0000
  N   N2        1.0  0.90223  0.70367  0.03488  1.0000
  O   O1        1.0  0.40652  0.73845  0.36201  1.0000
  O   O2        1.0  0.59348  0.26156  0.63800  1.0000
  O   O3        1.0  0.18208  0.68498  0.61466  1.0000
  O   O4        1.0  0.81792  0.31502  0.38534  1.0000
  O   O5        1.0  0.34794  0.50331  0.36445  1.0000
  O   O6        1.0  0.65206  0.49668  0.63555  1.0000
  O   O7        1.0  0.85696  0.61956  0.43438  1.0000
  O   O8        1.0  0.14304  0.38044  0.56562  1.0000
  O   O9        1.0  0.10732  0.27790  0.75427  1.0000
  O   O10       1.0  0.89267  0.72211  0.24573  1.0000
  O   O11       1.0  0.48616  0.80742  0.86051  1.0000
  O   O12       1.0  0.51384  0.19258  0.13949  1.0000
  O   O13       1.0  0.25725  0.03482  0.90048  1.0000
  O   O14       1.0  0.74275  0.96518  0.09951  1.0000
  O   O15       1.0  0.81565  0.00922  0.55750  1.0000
  O   O16       1.0  0.18434  0.99078  0.44250  1.0000
  O   O17       1.0  0.96873  0.87796  0.78025  1.0000
  O   O18       1.0  0.03126  0.12204  0.21975  1.0000
  O   O19       1.0  0.49003  0.03673  0.71580  1.0000
  O   O20       1.0  0.50997  0.96327  0.28420  1.0000
