data_image0
_chemical_formula_structural       Mg3P4H24C14N2O18
_chemical_formula_sum              "Mg3 P4 H24 C14 N2 O18"
_cell_length_a       6.94701
_cell_length_b       9.63894
_cell_length_c       10.3181
_cell_angle_alpha    78.6472
_cell_angle_beta     86.7735
_cell_angle_gamma    79.5511

_space_group_name_H-M_alt    "P 1"
_space_group_IT_number       1

loop_
  _space_group_symop_operation_xyz
  'x, y, z'

loop_
  _atom_site_type_symbol
  _atom_site_label
  _atom_site_symmetry_multiplicity
  _atom_site_fract_x
  _atom_site_fract_y
  _atom_site_fract_z
  _atom_site_occupancy
  Mg  Mg1       1.0  0.50000  0.50000  0.00000  1.0000
  Mg  Mg2       1.0  0.29605  0.05010  0.05037  1.0000
  Mg  Mg3       1.0  0.70395  0.94990  0.94963  1.0000
  P   P1        1.0  0.45929  0.73892  0.18377  1.0000
  P   P2        1.0  0.54071  0.26108  0.81623  1.0000
  P   P3        1.0  0.14756  0.78777  0.97809  1.0000
  P   P4        1.0  0.85244  0.21223  0.02191  1.0000
  H   H1        1.0  0.36481  0.40535  0.61840  1.0000
  H   H2        1.0  0.63519  0.59465  0.38160  1.0000
  H   H3        1.0  0.99167  0.96491  0.15815  1.0000
  H   H4        1.0  0.00833  0.03509  0.84185  1.0000
  H   H5        1.0  0.19384  0.34685  0.07871  1.0000
  H   H6        1.0  0.80616  0.65314  0.92129  1.0000
  H   H7        1.0  0.36136  0.29607  0.17759  1.0000
  H   H8        1.0  0.63864  0.70392  0.82241  1.0000
  H   H9        1.0  0.58588  0.08172  0.17954  1.0000
  H   H10       1.0  0.41412  0.91828  0.82046  1.0000
  H   H11       1.0  0.45160  0.99803  0.28176  1.0000
  H   H12       1.0  0.54840  0.00197  0.71824  1.0000
  H   H13       1.0  0.91403  0.71469  0.22223  1.0000
  H   H14       1.0  0.08597  0.28531  0.77777  1.0000
  H   H15       1.0  0.10727  0.56995  0.20627  1.0000
  H   H16       1.0  0.89273  0.43005  0.79373  1.0000
  H   H17       1.0  0.30707  0.44640  0.39111  1.0000
  H   H18       1.0  0.69293  0.55360  0.60889  1.0000
  H   H19       1.0  0.23491  0.57134  0.75637  1.0000
  H   H20       1.0  0.76509  0.42866  0.24363  1.0000
  H   H21       1.0  0.99763  0.79522  0.66365  1.0000
  H   H22       1.0  0.00237  0.20478  0.33635  1.0000
  H   H23       1.0  0.91412  0.84021  0.42237  1.0000
  H   H24       1.0  0.08588  0.15980  0.57763  1.0000
  C   C1        1.0  0.18929  0.77850  0.15812  1.0000
  C   C2        1.0  0.81071  0.22150  0.84187  1.0000
  C   C3        1.0  0.07005  0.67234  0.24127  1.0000
  C   C4        1.0  0.92995  0.32766  0.75873  1.0000
  C   C5        1.0  0.10683  0.64880  0.38608  1.0000
  C   C6        1.0  0.89317  0.35120  0.61392  1.0000
  C   C7        1.0  0.23415  0.52747  0.44594  1.0000
  C   C8        1.0  0.76585  0.47253  0.55406  1.0000
  C   C9        1.0  0.19241  0.59850  0.65323  1.0000
  C   C10       1.0  0.80759  0.40150  0.34677  1.0000
  C   C11       1.0  0.06356  0.72151  0.59935  1.0000
  C   C12       1.0  0.93644  0.27849  0.40065  1.0000
  C   C13       1.0  0.01891  0.74614  0.46581  1.0000
  C   C14       1.0  0.98109  0.25386  0.53419  1.0000
  N   N1        1.0  0.27238  0.50486  0.57556  1.0000
  N   N2        1.0  0.72762  0.49514  0.42444  1.0000
  O   O1        1.0  0.53741  0.59085  0.15405  1.0000
  O   O2        1.0  0.46259  0.40915  0.84595  1.0000
  O   O3        1.0  0.51797  0.86463  0.07908  1.0000
  O   O4        1.0  0.48203  0.13537  0.92092  1.0000
  O   O5        1.0  0.50751  0.75150  0.32362  1.0000
  O   O6        1.0  0.49249  0.24850  0.67638  1.0000
  O   O7        1.0  0.27934  0.66515  0.92917  1.0000
  O   O8        1.0  0.72066  0.33485  0.07083  1.0000
  O   O9        1.0  0.19650  0.93907  0.91120  1.0000
  O   O10       1.0  0.80350  0.06093  0.08880  1.0000
  O   O11       1.0  0.92836  0.78734  0.96326  1.0000
  O   O12       1.0  0.07165  0.21266  0.03674  1.0000
  O   O13       1.0  0.13115  0.92151  0.18829  1.0000
  O   O14       1.0  0.86886  0.07849  0.81171  1.0000
  O   O15       1.0  0.29128  0.38405  0.12324  1.0000
  O   O16       1.0  0.70872  0.61595  0.87676  1.0000
  O   O17       1.0  0.44875  0.08839  0.21742  1.0000
  O   O18       1.0  0.55125  0.91161  0.78258  1.0000
