data_image0
_chemical_formula_structural       Co2H28C28N4O8
_chemical_formula_sum              "Co2 H28 C28 N4 O8"
_cell_length_a       7.93062
_cell_length_b       9.01047
_cell_length_c       10.5868
_cell_angle_alpha    109.785
_cell_angle_beta     99.8477
_cell_angle_gamma    100.426

_space_group_name_H-M_alt    "P 1"
_space_group_IT_number       1

loop_
  _space_group_symop_operation_xyz
  'x, y, z'

loop_
  _atom_site_type_symbol
  _atom_site_label
  _atom_site_symmetry_multiplicity
  _atom_site_fract_x
  _atom_site_fract_y
  _atom_site_fract_z
  _atom_site_occupancy
  Co  Co1       1.0  0.66565  0.98311  0.65264  1.0000
  Co  Co2       1.0  0.33435  0.01689  0.34736  1.0000
  H   H1        1.0  0.48624  0.62486  0.49593  1.0000
  H   H2        1.0  0.51377  0.37514  0.50407  1.0000
  H   H3        1.0  0.46650  0.40164  0.27624  1.0000
  H   H4        1.0  0.53350  0.59836  0.72376  1.0000
  H   H5        1.0  0.85925  0.74592  0.20209  1.0000
  H   H6        1.0  0.14075  0.25408  0.79790  1.0000
  H   H7        1.0  0.86178  0.94764  0.42128  1.0000
  H   H8        1.0  0.13823  0.05235  0.57871  1.0000
  H   H9        1.0  0.46319  0.02101  0.87377  1.0000
  H   H10       1.0  0.53680  0.97899  0.12623  1.0000
  H   H11       1.0  0.45262  0.23005  0.09383  1.0000
  H   H12       1.0  0.54737  0.76995  0.90616  1.0000
  H   H13       1.0  0.85379  0.56897  0.02407  1.0000
  H   H14       1.0  0.14621  0.43102  0.97593  1.0000
  H   H15       1.0  0.84524  0.34366  0.80793  1.0000
  H   H16       1.0  0.15477  0.65633  0.19207  1.0000
  H   H17       1.0  0.97846  0.26888  0.44403  1.0000
  H   H18       1.0  0.02153  0.73110  0.55597  1.0000
  H   H19       1.0  0.81516  0.36083  0.38685  1.0000
  H   H20       1.0  0.18484  0.63917  0.61315  1.0000
  H   H21       1.0  0.91489  0.42188  0.56854  1.0000
  H   H22       1.0  0.08511  0.57811  0.43146  1.0000
  H   H23       1.0  0.97305  0.81852  0.96489  1.0000
  H   H24       1.0  0.02694  0.18149  0.03511  1.0000
  H   H25       1.0  0.14726  0.89136  0.89577  1.0000
  H   H26       1.0  0.85274  0.10866  0.10424  1.0000
  H   H27       1.0  0.00120  0.69308  0.80432  1.0000
  H   H28       1.0  0.99881  0.30694  0.19568  1.0000
  C   C1        1.0  0.56613  0.64580  0.42661  1.0000
  C   C2        1.0  0.43387  0.35420  0.57339  1.0000
  C   C3        1.0  0.55631  0.52086  0.30287  1.0000
  C   C4        1.0  0.44369  0.47913  0.69713  1.0000
  C   C5        1.0  0.66084  0.55051  0.21478  1.0000
  C   C6        1.0  0.33916  0.44948  0.78522  1.0000
  C   C7        1.0  0.77204  0.70857  0.26080  1.0000
  C   C8        1.0  0.22796  0.29142  0.73919  1.0000
  C   C9        1.0  0.77406  0.82614  0.38646  1.0000
  C   C10       1.0  0.22594  0.17386  0.61354  1.0000
  C   C11       1.0  0.54902  0.14429  0.91270  1.0000
  C   C12       1.0  0.45098  0.85571  0.08730  1.0000
  C   C13       1.0  0.54403  0.26300  0.03571  1.0000
  C   C14       1.0  0.45597  0.73700  0.96428  1.0000
  C   C15       1.0  0.65602  0.42124  0.08252  1.0000
  C   C16       1.0  0.34398  0.57876  0.91748  1.0000
  C   C17       1.0  0.76525  0.44955  0.99722  1.0000
  C   C18       1.0  0.23475  0.55044  0.00278  1.0000
  C   C19       1.0  0.76238  0.32416  0.87600  1.0000
  C   C20       1.0  0.23762  0.67583  0.12400  1.0000
  C   C21       1.0  0.72544  0.18813  0.47608  1.0000
  C   C22       1.0  0.27455  0.81186  0.52392  1.0000
  C   C23       1.0  0.86625  0.31925  0.46801  1.0000
  C   C24       1.0  0.13375  0.68074  0.53199  1.0000
  C   C25       1.0  0.88464  0.88532  0.79299  1.0000
  C   C26       1.0  0.11537  0.11469  0.20702  1.0000
  C   C27       1.0  0.01032  0.81977  0.87013  1.0000
  C   C28       1.0  0.98969  0.18025  0.12988  1.0000
  N   N1        1.0  0.67154  0.79802  0.46937  1.0000
  N   N2        1.0  0.32846  0.20198  0.53063  1.0000
  N   N3        1.0  0.65735  0.17196  0.83333  1.0000
  N   N4        1.0  0.34265  0.82804  0.16667  1.0000
  O   O1        1.0  0.59216  0.11433  0.37214  1.0000
  O   O2        1.0  0.40783  0.88566  0.62785  1.0000
  O   O3        1.0  0.75087  0.15910  0.58626  1.0000
  O   O4        1.0  0.24912  0.84089  0.41374  1.0000
  O   O5        1.0  0.71826  0.83905  0.78027  1.0000
  O   O6        1.0  0.28174  0.16096  0.21972  1.0000
  O   O7        1.0  0.94218  0.98386  0.73807  1.0000
  O   O8        1.0  0.05784  0.01615  0.26194  1.0000
