data_image0
_chemical_formula_structural       Na8Zn2H20C24O28
_chemical_formula_sum              "Na8 Zn2 H20 C24 O28"
_cell_length_a       7.96264
_cell_length_b       8.68477
_cell_length_c       12.5449
_cell_angle_alpha    90
_cell_angle_beta     90
_cell_angle_gamma    113.975

_space_group_name_H-M_alt    "P 1"
_space_group_IT_number       1

loop_
  _space_group_symop_operation_xyz
  'x, y, z'

loop_
  _atom_site_type_symbol
  _atom_site_label
  _atom_site_symmetry_multiplicity
  _atom_site_fract_x
  _atom_site_fract_y
  _atom_site_fract_z
  _atom_site_occupancy
  Na  Na1       1.0  0.05544  0.15984  0.87794  1.0000
  Na  Na2       1.0  0.94456  0.34016  0.37794  1.0000
  Na  Na3       1.0  0.94456  0.84016  0.12206  1.0000
  Na  Na4       1.0  0.05544  0.65984  0.62206  1.0000
  Na  Na5       1.0  0.89946  0.46279  0.88387  1.0000
  Na  Na6       1.0  0.10054  0.03721  0.38387  1.0000
  Na  Na7       1.0  0.10054  0.53721  0.11613  1.0000
  Na  Na8       1.0  0.89946  0.96279  0.61613  1.0000
  Zn  Zn1       1.0  0.50000  0.50000  1.00000  1.0000
  Zn  Zn2       1.0  0.50000  1.00000  0.50000  1.0000
  H   H1        1.0  0.31133  0.07872  0.18714  1.0000
  H   H2        1.0  0.68867  0.42128  0.68714  1.0000
  H   H3        1.0  0.68867  0.92128  0.81286  1.0000
  H   H4        1.0  0.31133  0.57872  0.31286  1.0000
  H   H5        1.0  0.46361  0.21253  0.28095  1.0000
  H   H6        1.0  0.53639  0.28747  0.78095  1.0000
  H   H7        1.0  0.53639  0.78747  0.71905  1.0000
  H   H8        1.0  0.46361  0.71253  0.21905  1.0000
  H   H9        1.0  0.69285  0.10806  0.20351  1.0000
  H   H10       1.0  0.30715  0.39194  0.70351  1.0000
  H   H11       1.0  0.30714  0.89194  0.79649  1.0000
  H   H12       1.0  0.69286  0.60806  0.29649  1.0000
  H   H13       1.0  0.52240  0.98855  0.11108  1.0000
  H   H14       1.0  0.47760  0.51145  0.61108  1.0000
  H   H15       1.0  0.47760  0.01145  0.88892  1.0000
  H   H16       1.0  0.52240  0.48855  0.38892  1.0000
  H   H17       1.0  0.38370  0.15956  0.00009  1.0000
  H   H18       1.0  0.61630  0.34044  0.50009  1.0000
  H   H19       1.0  0.61630  0.84044  0.99991  1.0000
  H   H20       1.0  0.38370  0.65956  0.49991  1.0000
  C   C1        1.0  0.29581  0.31558  0.20131  1.0000
  C   C2        1.0  0.70419  0.18442  0.70131  1.0000
  C   C3        1.0  0.70419  0.68442  0.79869  1.0000
  C   C4        1.0  0.29581  0.81558  0.29869  1.0000
  C   C5        1.0  0.72022  0.42150  0.15173  1.0000
  C   C6        1.0  0.27978  0.07850  0.65173  1.0000
  C   C7        1.0  0.27978  0.57850  0.84827  1.0000
  C   C8        1.0  0.72022  0.92150  0.34827  1.0000
  C   C9        1.0  0.40897  0.21002  0.20029  1.0000
  C   C10       1.0  0.59103  0.28998  0.70029  1.0000
  C   C11       1.0  0.59103  0.78998  0.79971  1.0000
  C   C12       1.0  0.40897  0.71002  0.29971  1.0000
  C   C13       1.0  0.56716  0.25031  0.11993  1.0000
  C   C14       1.0  0.43284  0.24969  0.61993  1.0000
  C   C15       1.0  0.43284  0.74969  0.88007  1.0000
  C   C16       1.0  0.56716  0.75031  0.38007  1.0000
  C   C17       1.0  0.63737  0.11125  0.12380  1.0000
  C   C18       1.0  0.36262  0.38875  0.62380  1.0000
  C   C19       1.0  0.36262  0.88875  0.87620  1.0000
  C   C20       1.0  0.63737  0.61125  0.37620  1.0000
  C   C21       1.0  0.79061  0.13265  0.04540  1.0000
  C   C22       1.0  0.20939  0.36735  0.54540  1.0000
  C   C23       1.0  0.20939  0.86735  0.95460  1.0000
  C   C24       1.0  0.79061  0.63265  0.45460  1.0000
  O   O1        1.0  0.50667  0.26149  0.01250  1.0000
  O   O2        1.0  0.49333  0.23852  0.51250  1.0000
  O   O3        1.0  0.49333  0.73851  0.98750  1.0000
  O   O4        1.0  0.50667  0.76149  0.48750  1.0000
  O   O5        1.0  0.72423  0.55374  0.10368  1.0000
  O   O6        1.0  0.27577  0.94626  0.60368  1.0000
  O   O7        1.0  0.27577  0.44626  0.89632  1.0000
  O   O8        1.0  0.72423  0.05374  0.39632  1.0000
  O   O9        1.0  0.82744  0.42411  0.22598  1.0000
  O   O10       1.0  0.17256  0.07588  0.72598  1.0000
  O   O11       1.0  0.17256  0.57589  0.77402  1.0000
  O   O12       1.0  0.82744  0.92412  0.27402  1.0000
  O   O13       1.0  0.17963  0.28513  0.27579  1.0000
  O   O14       1.0  0.82037  0.21487  0.77579  1.0000
  O   O15       1.0  0.82037  0.71487  0.72421  1.0000
  O   O16       1.0  0.17963  0.78513  0.22421  1.0000
  O   O17       1.0  0.31760  0.42696  0.12942  1.0000
  O   O18       1.0  0.68240  0.07304  0.62942  1.0000
  O   O19       1.0  0.68240  0.57304  0.87058  1.0000
  O   O20       1.0  0.31760  0.92696  0.37058  1.0000
  O   O21       1.0  0.80133  0.99750  0.01015  1.0000
  O   O22       1.0  0.19867  0.50250  0.51015  1.0000
  O   O23       1.0  0.19867  0.00250  0.98985  1.0000
  O   O24       1.0  0.80133  0.49750  0.48985  1.0000
  O   O25       1.0  0.90402  0.27839  0.01891  1.0000
  O   O26       1.0  0.09598  0.22161  0.51891  1.0000
  O   O27       1.0  0.09598  0.72161  0.98109  1.0000
  O   O28       1.0  0.90402  0.77839  0.48109  1.0000
