data_image0
_chemical_formula_structural       Cd2H16C16S4N8
_chemical_formula_sum              "Cd2 H16 C16 S4 N8"
_cell_length_a       8.46559
_cell_length_b       8.27463
_cell_length_c       8.27455
_cell_angle_alpha    100.779
_cell_angle_beta     99.7829
_cell_angle_gamma    99.7819

_space_group_name_H-M_alt    "P 1"
_space_group_IT_number       1

loop_
  _space_group_symop_operation_xyz
  'x, y, z'

loop_
  _atom_site_type_symbol
  _atom_site_label
  _atom_site_symmetry_multiplicity
  _atom_site_fract_x
  _atom_site_fract_y
  _atom_site_fract_z
  _atom_site_occupancy
  Cd  Cd1       1.0  0.75000  0.29198  0.70801  1.0000
  Cd  Cd2       1.0  0.25000  0.70802  0.29199  1.0000
  H   H1        1.0  0.88809  0.06637  0.53861  1.0000
  H   H2        1.0  0.61191  0.46139  0.93363  1.0000
  H   H3        1.0  0.11191  0.93363  0.46139  1.0000
  H   H4        1.0  0.38809  0.53861  0.06637  1.0000
  H   H5        1.0  0.97887  0.24177  0.49133  1.0000
  H   H6        1.0  0.52112  0.50867  0.75822  1.0000
  H   H7        1.0  0.02113  0.75822  0.50867  1.0000
  H   H8        1.0  0.47888  0.49133  0.24178  1.0000
  H   H9        1.0  0.25000  0.38242  0.61759  1.0000
  H   H10       1.0  0.75000  0.61758  0.38242  1.0000
  H   H11       1.0  0.99222  0.98777  0.80847  1.0000
  H   H12       1.0  0.50777  0.19152  0.01222  1.0000
  H   H13       1.0  0.00778  0.01222  0.19153  1.0000
  H   H14       1.0  0.49223  0.80847  0.98778  1.0000
  H   H15       1.0  0.25000  0.99307  0.00692  1.0000
  H   H16       1.0  0.75000  0.00693  0.99307  1.0000
  C   C1        1.0  0.46113  0.11413  0.34947  1.0000
  C   C2        1.0  0.03886  0.65054  0.88586  1.0000
  C   C3        1.0  0.53886  0.88587  0.65055  1.0000
  C   C4        1.0  0.96114  0.34947  0.11413  1.0000
  C   C5        1.0  0.10602  0.18373  0.69956  1.0000
  C   C6        1.0  0.39397  0.30044  0.81626  1.0000
  C   C7        1.0  0.89398  0.81626  0.30044  1.0000
  C   C8        1.0  0.60603  0.69956  0.18373  1.0000
  C   C9        1.0  0.25000  0.29699  0.70300  1.0000
  C   C10       1.0  0.75000  0.70301  0.29699  1.0000
  C   C11       1.0  0.10531  0.07427  0.80986  1.0000
  C   C12       1.0  0.39469  0.19014  0.92573  1.0000
  C   C13       1.0  0.89469  0.92573  0.19014  1.0000
  C   C14       1.0  0.60531  0.80986  0.07427  1.0000
  C   C15       1.0  0.25000  0.07843  0.92156  1.0000
  C   C16       1.0  0.75000  0.92157  0.07844  1.0000
  S   S1        1.0  0.60282  0.28412  0.38141  1.0000
  S   S2        1.0  0.89718  0.61859  0.71589  1.0000
  S   S3        1.0  0.39718  0.71589  0.61860  1.0000
  S   S4        1.0  0.10281  0.38140  0.28410  1.0000
  N   N1        1.0  0.35808  0.99113  0.32349  1.0000
  N   N2        1.0  0.14192  0.67651  0.00887  1.0000
  N   N3        1.0  0.64192  0.00888  0.67652  1.0000
  N   N4        1.0  0.85809  0.32350  0.99114  1.0000
  N   N5        1.0  0.95859  0.18433  0.58788  1.0000
  N   N6        1.0  0.54140  0.41211  0.81567  1.0000
  N   N7        1.0  0.04141  0.81567  0.41211  1.0000
  N   N8        1.0  0.45860  0.58789  0.18433  1.0000
