data_image0
_chemical_formula_structural       Rb2H16C28S2O12
_chemical_formula_sum              "Rb2 H16 C28 S2 O12"
_cell_length_a       4.6546
_cell_length_b       13.5833
_cell_length_c       11.604
_cell_angle_alpha    106.415
_cell_angle_beta     90.05
_cell_angle_gamma    89.9719

_space_group_name_H-M_alt    "P 1"
_space_group_IT_number       1

loop_
  _space_group_symop_operation_xyz
  'x, y, z'

loop_
  _atom_site_type_symbol
  _atom_site_label
  _atom_site_symmetry_multiplicity
  _atom_site_fract_x
  _atom_site_fract_y
  _atom_site_fract_z
  _atom_site_occupancy
  Rb  Rb1       1.0  0.88152  0.49994  0.75014  1.0000
  Rb  Rb2       1.0  0.11847  0.50008  0.24986  1.0000
  H   H1        1.0  0.47668  0.80521  0.42082  1.0000
  H   H2        1.0  0.47653  0.19482  0.07931  1.0000
  H   H3        1.0  0.52330  0.19479  0.57918  1.0000
  H   H4        1.0  0.52348  0.80518  0.92070  1.0000
  H   H5        1.0  0.17786  0.95366  0.52526  1.0000
  H   H6        1.0  0.17768  0.04642  0.97484  1.0000
  H   H7        1.0  0.82213  0.04635  0.47473  1.0000
  H   H8        1.0  0.82232  0.95358  0.02518  1.0000
  H   H9        1.0  0.05420  0.82316  0.82090  1.0000
  H   H10       1.0  0.05446  0.17656  0.67878  1.0000
  H   H11       1.0  0.94583  0.17685  0.17910  1.0000
  H   H12       1.0  0.94554  0.82343  0.32123  1.0000
  H   H13       1.0  0.36870  0.67561  0.71775  1.0000
  H   H14       1.0  0.36911  0.32405  0.78190  1.0000
  H   H15       1.0  0.63136  0.32441  0.28225  1.0000
  H   H16       1.0  0.63088  0.67595  0.21811  1.0000
  C   C1        1.0  0.62597  0.64144  0.49968  1.0000
  C   C2        1.0  0.62612  0.35838  0.00028  1.0000
  C   C3        1.0  0.37405  0.35858  0.50031  1.0000
  C   C4        1.0  0.37388  0.64161  0.99972  1.0000
  C   C5        1.0  0.44147  0.73078  0.56257  1.0000
  C   C6        1.0  0.44156  0.26906  0.93734  1.0000
  C   C7        1.0  0.55852  0.26922  0.43741  1.0000
  C   C8        1.0  0.55843  0.73094  0.06267  1.0000
  C   C9        1.0  0.38595  0.80917  0.50842  1.0000
  C   C10       1.0  0.38596  0.19077  0.99158  1.0000
  C   C11       1.0  0.61403  0.19084  0.49157  1.0000
  C   C12       1.0  0.61405  0.80923  0.00843  1.0000
  C   C13       1.0  0.21564  0.89228  0.56657  1.0000
  C   C14       1.0  0.21558  0.10768  0.93339  1.0000
  C   C15       1.0  0.78436  0.10773  0.43342  1.0000
  C   C16       1.0  0.78440  0.89232  0.06663  1.0000
  C   C17       1.0  0.09782  0.89599  0.67866  1.0000
  C   C18       1.0  0.09785  0.10389  0.82117  1.0000
  C   C19       1.0  0.90216  0.10400  0.32132  1.0000
  C   C20       1.0  0.90214  0.89610  0.17883  1.0000
  C   C21       1.0  0.15113  0.81879  0.73423  1.0000
  C   C22       1.0  0.15135  0.18098  0.76552  1.0000
  C   C23       1.0  0.84891  0.18121  0.26577  1.0000
  C   C24       1.0  0.84865  0.81900  0.23449  1.0000
  C   C25       1.0  0.32435  0.73643  0.67601  1.0000
  C   C26       1.0  0.32451  0.26335  0.82378  1.0000
  C   C27       1.0  0.67568  0.26357  0.32398  1.0000
  C   C28       1.0  0.67547  0.73665  0.17623  1.0000
  S   S1        1.0  0.86927  0.99995  0.74990  1.0000
  S   S2        1.0  0.13072  0.00005  0.25009  1.0000
  O   O1        1.0  0.78843  0.60226  0.56242  1.0000
  O   O2        1.0  0.78900  0.39736  0.93762  1.0000
  O   O3        1.0  0.21160  0.39776  0.43757  1.0000
  O   O4        1.0  0.21101  0.60261  0.06237  1.0000
  O   O5        1.0  0.61575  0.60885  0.38548  1.0000
  O   O6        1.0  0.61550  0.39118  0.11445  1.0000
  O   O7        1.0  0.38423  0.39116  0.61451  1.0000
  O   O8        1.0  0.38451  0.60882  0.88555  1.0000
  O   O9        1.0  0.71371  0.03059  0.65719  1.0000
  O   O10       1.0  0.71397  0.96931  0.84260  1.0000
  O   O11       1.0  0.28626  0.96941  0.34284  1.0000
  O   O12       1.0  0.28603  0.03067  0.15741  1.0000
