data_image0
_chemical_formula_structural       Mg3H6C18O12
_chemical_formula_sum              "Mg3 H6 C18 O12"
_cell_length_a       7.78977
_cell_length_b       7.78012
_cell_length_c       7.78459
_cell_angle_alpha    66.4559
_cell_angle_beta     66.4774
_cell_angle_gamma    66.4591

_space_group_name_H-M_alt    "P 1"
_space_group_IT_number       1

loop_
  _space_group_symop_operation_xyz
  'x, y, z'

loop_
  _atom_site_type_symbol
  _atom_site_label
  _atom_site_symmetry_multiplicity
  _atom_site_fract_x
  _atom_site_fract_y
  _atom_site_fract_z
  _atom_site_occupancy
  Mg  Mg1       1.0  0.83849  0.83820  0.33851  1.0000
  Mg  Mg2       1.0  0.16151  0.16179  0.66149  1.0000
  Mg  Mg3       1.0  1.00000  1.00000  0.50000  1.0000
  H   H1        1.0  0.69963  0.11552  0.91347  1.0000
  H   H2        1.0  0.30036  0.88448  0.08653  1.0000
  H   H3        1.0  0.11751  0.41090  0.20016  1.0000
  H   H4        1.0  0.88249  0.58910  0.79984  1.0000
  H   H5        1.0  0.41325  0.69867  0.61802  1.0000
  H   H6        1.0  0.58675  0.30133  0.38198  1.0000
  C   C1        1.0  0.57166  0.40340  0.74402  1.0000
  C   C2        1.0  0.42834  0.59659  0.25598  1.0000
  C   C3        1.0  0.56922  0.24008  0.90791  1.0000
  C   C4        1.0  0.43078  0.75992  0.09209  1.0000
  C   C5        1.0  0.40476  0.24181  0.07183  1.0000
  C   C6        1.0  0.59524  0.75820  0.92817  1.0000
  C   C7        1.0  0.24169  0.40586  0.06940  1.0000
  C   C8        1.0  0.75831  0.59413  0.93060  1.0000
  C   C9        1.0  0.24338  0.57019  0.90497  1.0000
  C   C10       1.0  0.75663  0.42980  0.09503  1.0000
  C   C11       1.0  0.40756  0.56790  0.74221  1.0000
  C   C12       1.0  0.59245  0.43210  0.25779  1.0000
  C   C13       1.0  0.75930  0.41746  0.58657  1.0000
  C   C14       1.0  0.24069  0.58255  0.41343  1.0000
  C   C15       1.0  0.41824  0.08434  0.25981  1.0000
  C   C16       1.0  0.58177  0.91565  0.74018  1.0000
  C   C17       1.0  0.08589  0.75827  0.91855  1.0000
  C   C18       1.0  0.91410  0.24172  0.08147  1.0000
  O   O1        1.0  0.77598  0.58443  0.48296  1.0000
  O   O2        1.0  0.22402  0.41555  0.51704  1.0000
  O   O3        1.0  0.89896  0.25884  0.57166  1.0000
  O   O4        1.0  0.10104  0.74116  0.42834  1.0000
  O   O5        1.0  0.58472  0.98008  0.27694  1.0000
  O   O6        1.0  0.41527  0.01992  0.72307  1.0000
  O   O7        1.0  0.25952  0.07027  0.39927  1.0000
  O   O8        1.0  0.74048  0.92974  0.60073  1.0000
  O   O9        1.0  0.98209  0.77498  0.08537  1.0000
  O   O10       1.0  0.01792  0.22503  0.91462  1.0000
  O   O11       1.0  0.07141  0.89802  0.75990  1.0000
  O   O12       1.0  0.92859  0.10198  0.24010  1.0000
