data_image0
_chemical_formula_structural       Ni2H20C20N16
_chemical_formula_sum              "Ni2 H20 C20 N16"
_cell_length_a       7.98636
_cell_length_b       9.21908
_cell_length_c       10.0341
_cell_angle_alpha    84.6653
_cell_angle_beta     66.6874
_cell_angle_gamma    66.0152

_space_group_name_H-M_alt    "P 1"
_space_group_IT_number       1

loop_
  _space_group_symop_operation_xyz
  'x, y, z'

loop_
  _atom_site_type_symbol
  _atom_site_label
  _atom_site_symmetry_multiplicity
  _atom_site_fract_x
  _atom_site_fract_y
  _atom_site_fract_z
  _atom_site_occupancy
  Ni  Ni1       1.0  0.70001  0.52191  0.47864  1.0000
  Ni  Ni2       1.0  0.29995  0.47817  0.52142  1.0000
  H   H1        1.0  0.60134  0.56209  0.80277  1.0000
  H   H2        1.0  0.39872  0.43767  0.19712  1.0000
  H   H3        1.0  0.70128  0.39227  0.99146  1.0000
  H   H4        1.0  0.29894  0.60758  0.00842  1.0000
  H   H5        1.0  0.90566  0.10056  0.92745  1.0000
  H   H6        1.0  0.09481  0.89933  0.07240  1.0000
  H   H7        1.0  0.99146  0.98698  0.68039  1.0000
  H   H8        1.0  0.00859  0.01279  0.31958  1.0000
  H   H9        1.0  0.88096  0.17405  0.50302  1.0000
  H   H10       1.0  0.11892  0.82563  0.49699  1.0000
  H   H11       1.0  0.51743  0.86891  0.46197  1.0000
  H   H12       1.0  0.48256  0.13109  0.53810  1.0000
  H   H13       1.0  0.49677  0.06526  0.27406  1.0000
  H   H14       1.0  0.50324  0.93481  0.72604  1.0000
  H   H15       1.0  0.66081  0.96154  0.00925  1.0000
  H   H16       1.0  0.33909  0.03859  0.99085  1.0000
  H   H17       1.0  0.82809  0.66569  0.94811  1.0000
  H   H18       1.0  0.17150  0.33444  0.05193  1.0000
  H   H19       1.0  0.83834  0.48676  0.15150  1.0000
  H   H20       1.0  0.16139  0.51330  0.84850  1.0000
  C   C1        1.0  0.68811  0.43399  0.77997  1.0000
  C   C2        1.0  0.31202  0.56579  0.21994  1.0000
  C   C3        1.0  0.74355  0.33953  0.88426  1.0000
  C   C4        1.0  0.25667  0.66031  0.11563  1.0000
  C   C5        1.0  0.85656  0.17653  0.84894  1.0000
  C   C6        1.0  0.14375  0.82330  0.15093  1.0000
  C   C7        1.0  0.90544  0.11405  0.71088  1.0000
  C   C8        1.0  0.09469  0.88574  0.28903  1.0000
  C   C9        1.0  0.84482  0.21653  0.61264  1.0000
  C   C10       1.0  0.15517  0.78323  0.38732  1.0000
  C   C11       1.0  0.58452  0.82979  0.34668  1.0000
  C   C12       1.0  0.41544  0.17028  0.65335  1.0000
  C   C13       1.0  0.57354  0.93805  0.24088  1.0000
  C   C14       1.0  0.42645  0.06203  0.75919  1.0000
  C   C15       1.0  0.66330  0.88006  0.09506  1.0000
  C   C16       1.0  0.33661  0.12004  0.90499  1.0000
  C   C17       1.0  0.75763  0.71571  0.06079  1.0000
  C   C18       1.0  0.24213  0.28439  0.93925  1.0000
  C   C19       1.0  0.76338  0.61567  0.17329  1.0000
  C   C20       1.0  0.23645  0.38440  0.82673  1.0000
  N   N1        1.0  0.74041  0.37464  0.64498  1.0000
  N   N2        1.0  0.25963  0.62516  0.35495  1.0000
  N   N3        1.0  0.67963  0.67130  0.31393  1.0000
  N   N4        1.0  0.32035  0.32873  0.68609  1.0000
  N   N5        1.0  0.39089  0.63134  0.59232  1.0000
  N   N6        1.0  0.60901  0.36901  0.40781  1.0000
  N   N7        1.0  0.30017  0.71279  0.70585  1.0000
  N   N8        1.0  0.69981  0.28765  0.29425  1.0000
  N   N9        1.0  0.20929  0.79361  0.81533  1.0000
  N   N10       1.0  0.79078  0.20690  0.18471  1.0000
  N   N11       1.0  0.74375  0.68664  0.57418  1.0000
  N   N12       1.0  0.25656  0.31363  0.42543  1.0000
  N   N13       1.0  0.87692  0.64814  0.61347  1.0000
  N   N14       1.0  0.12303  0.35192  0.38659  1.0000
  N   N15       1.0  0.99316  0.38731  0.34422  1.0000
  N   N16       1.0  0.00649  0.61242  0.65618  1.0000
