data_image0
_chemical_formula_structural       Cu2H18C10N6Cl4
_chemical_formula_sum              "Cu2 H18 C10 N6 Cl4"
_cell_length_a       5.83617
_cell_length_b       8.51033
_cell_length_c       8.89072
_cell_angle_alpha    79.1238
_cell_angle_beta     89.3903
_cell_angle_gamma    80.7439

_space_group_name_H-M_alt    "P 1"
_space_group_IT_number       1

loop_
  _space_group_symop_operation_xyz
  'x, y, z'

loop_
  _atom_site_type_symbol
  _atom_site_label
  _atom_site_symmetry_multiplicity
  _atom_site_fract_x
  _atom_site_fract_y
  _atom_site_fract_z
  _atom_site_occupancy
  Cu  Cu1       1.0  0.75422  0.47039  0.11793  1.0000
  Cu  Cu2       1.0  0.24579  0.52961  0.88208  1.0000
  H   H1        1.0  0.67021  0.23781  0.00304  1.0000
  H   H2        1.0  0.32979  0.76220  0.99696  1.0000
  H   H3        1.0  0.94966  0.25847  0.98179  1.0000
  H   H4        1.0  0.05035  0.74153  0.01821  1.0000
  H   H5        1.0  0.06115  0.11300  0.22407  1.0000
  H   H6        1.0  0.93885  0.88700  0.77594  1.0000
  H   H7        1.0  0.90243  0.99241  0.13329  1.0000
  H   H8        1.0  0.09757  0.00759  0.86671  1.0000
  H   H9        1.0  0.53924  0.11192  0.25966  1.0000
  H   H10       1.0  0.46077  0.88808  0.74033  1.0000
  H   H11       1.0  0.74722  0.97479  0.38335  1.0000
  H   H12       1.0  0.25277  0.02521  0.61664  1.0000
  H   H13       1.0  0.70628  0.10807  0.65377  1.0000
  H   H14       1.0  0.29372  0.89192  0.34623  1.0000
  H   H15       1.0  0.74444  0.39529  0.69486  1.0000
  H   H16       1.0  0.25557  0.60470  0.30514  1.0000
  H   H17       1.0  0.77252  0.58710  0.44177  1.0000
  H   H18       1.0  0.22748  0.41289  0.55823  1.0000
  C   C1        1.0  0.88902  0.10379  0.18107  1.0000
  C   C2        1.0  0.11099  0.89621  0.81893  1.0000
  C   C3        1.0  0.71504  0.09589  0.31063  1.0000
  C   C4        1.0  0.28496  0.90411  0.68937  1.0000
  C   C5        1.0  0.72873  0.22105  0.40550  1.0000
  C   C6        1.0  0.27127  0.77895  0.59450  1.0000
  C   C7        1.0  0.72668  0.20817  0.56235  1.0000
  C   C8        1.0  0.27332  0.79183  0.43765  1.0000
  C   C9        1.0  0.76119  0.45954  0.45532  1.0000
  C   C10       1.0  0.23880  0.54046  0.54469  1.0000
  N   N1        1.0  0.81906  0.24708  0.06015  1.0000
  N   N2        1.0  0.18094  0.75293  0.93985  1.0000
  N   N3        1.0  0.74824  0.35889  0.59055  1.0000
  N   N4        1.0  0.25176  0.64111  0.40945  1.0000
  N   N5        1.0  0.75051  0.37968  0.34079  1.0000
  N   N6        1.0  0.24948  0.62033  0.65922  1.0000
  Cl  Cl1       1.0  0.74507  0.56575  0.85527  1.0000
  Cl  Cl2       1.0  0.25494  0.43425  0.14473  1.0000
  Cl  Cl3       1.0  0.68594  0.73658  0.15022  1.0000
  Cl  Cl4       1.0  0.31407  0.26342  0.84979  1.0000
