data_image0
_chemical_formula_structural       Cd3H22C20S2N2O20
_chemical_formula_sum              "Cd3 H22 C20 S2 N2 O20"
_cell_length_a       8.41229
_cell_length_b       8.53924
_cell_length_c       11.3582
_cell_angle_alpha    95.4214
_cell_angle_beta     88.562
_cell_angle_gamma    104.672

_space_group_name_H-M_alt    "P 1"
_space_group_IT_number       1

loop_
  _space_group_symop_operation_xyz
  'x, y, z'

loop_
  _atom_site_type_symbol
  _atom_site_label
  _atom_site_symmetry_multiplicity
  _atom_site_fract_x
  _atom_site_fract_y
  _atom_site_fract_z
  _atom_site_occupancy
  Cd  Cd1       1.0  0.09312  0.43838  0.30399  1.0000
  Cd  Cd2       1.0  0.90689  0.56163  0.69601  1.0000
  Cd  Cd3       1.0  0.50000  1.00000  1.00000  1.0000
  H   H1        1.0  0.60261  0.91850  0.29085  1.0000
  H   H2        1.0  0.39741  0.08150  0.70915  1.0000
  H   H3        1.0  0.47859  0.68120  0.61061  1.0000
  H   H4        1.0  0.52142  0.31880  0.38939  1.0000
  H   H5        1.0  0.89757  0.09171  0.60419  1.0000
  H   H6        1.0  0.10244  0.90829  0.39581  1.0000
  H   H7        1.0  0.96367  0.68863  0.16739  1.0000
  H   H8        1.0  0.03628  0.31136  0.83263  1.0000
  H   H9        1.0  0.09667  0.26588  0.04272  1.0000
  H   H10       1.0  0.90329  0.73411  0.95730  1.0000
  H   H11       1.0  0.94799  0.66319  0.43295  1.0000
  H   H12       1.0  0.05201  0.33682  0.56705  1.0000
  H   H13       1.0  0.80767  0.50870  0.41048  1.0000
  H   H14       1.0  0.19234  0.49131  0.58952  1.0000
  H   H15       1.0  0.50213  0.31876  0.96835  1.0000
  H   H16       1.0  0.49786  0.68123  0.03163  1.0000
  H   H17       1.0  0.60492  0.27744  0.85680  1.0000
  H   H18       1.0  0.39508  0.72256  0.14319  1.0000
  H   H19       1.0  0.83306  0.02260  0.00024  1.0000
  H   H20       1.0  0.16694  0.97740  0.99976  1.0000
  H   H21       1.0  0.79486  0.04953  0.14038  1.0000
  H   H22       1.0  0.20514  0.95046  0.85961  1.0000
  C   C1        1.0  0.76479  0.01521  0.43841  1.0000
  C   C2        1.0  0.23522  0.98479  0.56158  1.0000
  C   C3        1.0  0.63013  0.90573  0.38197  1.0000
  C   C4        1.0  0.36989  0.09427  0.61803  1.0000
  C   C5        1.0  0.52735  0.78452  0.44335  1.0000
  C   C6        1.0  0.47266  0.21549  0.55665  1.0000
  C   C7        1.0  0.55937  0.77390  0.56208  1.0000
  C   C8        1.0  0.44065  0.22610  0.43792  1.0000
  C   C9        1.0  0.69161  0.88578  0.61847  1.0000
  C   C10       1.0  0.30840  0.11422  0.38153  1.0000
  C   C11       1.0  0.79535  0.00569  0.55812  1.0000
  C   C12       1.0  0.20466  0.99431  0.44188  1.0000
  C   C13       1.0  0.87095  0.14801  0.37390  1.0000
  C   C14       1.0  0.12907  0.85200  0.62610  1.0000
  C   C15       1.0  0.37808  0.67125  0.38672  1.0000
  C   C16       1.0  0.62193  0.32876  0.61328  1.0000
  C   C17       1.0  0.97961  0.60466  0.09235  1.0000
  C   C18       1.0  0.02034  0.39532  0.90766  1.0000
  C   C19       1.0  0.05201  0.36960  0.02293  1.0000
  C   C20       1.0  0.94795  0.63038  0.97708  1.0000
  S   S1        1.0  0.71218  0.87662  0.77273  1.0000
  S   S2        1.0  0.28783  0.12338  0.22727  1.0000
  N   N1        1.0  0.03139  0.47415  0.11419  1.0000
  N   N2        1.0  0.96858  0.52584  0.88583  1.0000
  O   O1        1.0  0.84570  0.16287  0.26686  1.0000
  O   O2        1.0  0.15432  0.83712  0.73314  1.0000
  O   O3        1.0  0.98820  0.24911  0.43301  1.0000
  O   O4        1.0  0.01180  0.75090  0.56699  1.0000
  O   O5        1.0  0.33941  0.68307  0.28099  1.0000
  O   O6        1.0  0.66061  0.31694  0.71902  1.0000
  O   O7        1.0  0.28864  0.56426  0.44875  1.0000
  O   O8        1.0  0.71136  0.43573  0.55124  1.0000
  O   O9        1.0  0.72917  0.71208  0.78976  1.0000
  O   O10       1.0  0.27084  0.28792  0.21025  1.0000
  O   O11       1.0  0.54993  0.89386  0.81832  1.0000
  O   O12       1.0  0.45007  0.10614  0.18168  1.0000
  O   O13       1.0  0.85097  0.00774  0.81786  1.0000
  O   O14       1.0  0.14903  0.99227  0.18214  1.0000
  O   O15       1.0  0.89529  0.58153  0.36750  1.0000
  O   O16       1.0  0.10471  0.41848  0.63250  1.0000
  O   O17       1.0  0.59042  0.26796  0.94398  1.0000
  O   O18       1.0  0.40957  0.73204  0.05601  1.0000
  O   O19       1.0  0.75712  0.98272  0.06388  1.0000
  O   O20       1.0  0.24288  0.01728  0.93612  1.0000
