data_image0
_chemical_formula_structural       Zn2H48C56N4O8
_chemical_formula_sum              "Zn2 H48 C56 N4 O8"
_cell_length_a       10.1292
_cell_length_b       11.1009
_cell_length_c       11.199
_cell_angle_alpha    88.0022
_cell_angle_beta     71.21
_cell_angle_gamma    79.5607

_space_group_name_H-M_alt    "P 1"
_space_group_IT_number       1

loop_
  _space_group_symop_operation_xyz
  'x, y, z'

loop_
  _atom_site_type_symbol
  _atom_site_label
  _atom_site_symmetry_multiplicity
  _atom_site_fract_x
  _atom_site_fract_y
  _atom_site_fract_z
  _atom_site_occupancy
  Zn  Zn1       1.0  0.57206  0.61435  0.58572  1.0000
  Zn  Zn2       1.0  0.42794  0.38565  0.41429  1.0000
  H   H1        1.0  0.55826  0.39485  0.76377  1.0000
  H   H2        1.0  0.44174  0.60515  0.23623  1.0000
  H   H3        1.0  0.71491  0.19754  0.78155  1.0000
  H   H4        1.0  0.28509  0.80246  0.21845  1.0000
  H   H5        1.0  0.04906  0.31526  0.47557  1.0000
  H   H6        1.0  0.95095  0.68474  0.52443  1.0000
  H   H7        1.0  0.87619  0.50419  0.46862  1.0000
  H   H8        1.0  0.12380  0.49581  0.53138  1.0000
  H   H9        1.0  0.25644  0.69775  0.70343  1.0000
  H   H10       1.0  0.74356  0.30225  0.29657  1.0000
  H   H11       1.0  0.07089  0.88045  0.70777  1.0000
  H   H12       1.0  0.92911  0.11954  0.29223  1.0000
  H   H13       1.0  0.38667  0.02698  0.40912  1.0000
  H   H14       1.0  0.61333  0.97301  0.59088  1.0000
  H   H15       1.0  0.55919  0.83290  0.41619  1.0000
  H   H16       1.0  0.44081  0.16709  0.58380  1.0000
  H   H17       1.0  0.93551  0.05695  0.70260  1.0000
  H   H18       1.0  0.06449  0.94305  0.29740  1.0000
  H   H19       1.0  0.17122  0.15262  0.49033  1.0000
  H   H20       1.0  0.82878  0.84738  0.50966  1.0000
  H   H21       1.0  0.47778  0.74168  0.00574  1.0000
  H   H22       1.0  0.52223  0.25832  0.99426  1.0000
  H   H23       1.0  0.51598  0.85504  0.17826  1.0000
  H   H24       1.0  0.48402  0.14496  0.82174  1.0000
  H   H25       1.0  0.83203  0.01748  0.90146  1.0000
  H   H26       1.0  0.16797  0.98252  0.09854  1.0000
  H   H27       1.0  0.79311  0.90312  0.72970  1.0000
  H   H28       1.0  0.20689  0.09689  0.27030  1.0000
  H   H29       1.0  0.80438  0.96469  0.16690  1.0000
  H   H30       1.0  0.19562  0.03531  0.83310  1.0000
  H   H31       1.0  0.61982  0.00780  0.24430  1.0000
  H   H32       1.0  0.38018  0.99220  0.75570  1.0000
  H   H33       1.0  0.71080  0.10527  0.13124  1.0000
  H   H34       1.0  0.28920  0.89473  0.86877  1.0000
  H   H35       1.0  0.13783  0.28741  0.79335  1.0000
  H   H36       1.0  0.86217  0.71259  0.20665  1.0000
  H   H37       1.0  0.01697  0.27421  0.02507  1.0000
  H   H38       1.0  0.98303  0.72579  0.97493  1.0000
  H   H39       1.0  0.24497  0.53998  0.09605  1.0000
  H   H40       1.0  0.75503  0.46003  0.90395  1.0000
  H   H41       1.0  0.36136  0.55627  0.86574  1.0000
  H   H42       1.0  0.63864  0.44374  0.13426  1.0000
  H   H43       1.0  0.97245  0.33961  0.23771  1.0000
  H   H44       1.0  0.02755  0.66039  0.76229  1.0000
  H   H45       1.0  0.99616  0.49155  0.25591  1.0000
  H   H46       1.0  0.00384  0.50845  0.74409  1.0000
  H   H47       1.0  0.12816  0.36603  0.26492  1.0000
  H   H48       1.0  0.87184  0.63397  0.73508  1.0000
  C   C1        1.0  0.66760  0.37290  0.70165  1.0000
  C   C2        1.0  0.33240  0.62710  0.29835  1.0000
  C   C3        1.0  0.75552  0.26384  0.71130  1.0000
  C   C4        1.0  0.24448  0.73616  0.28869  1.0000
  C   C5        1.0  0.89588  0.23794  0.62890  1.0000
  C   C6        1.0  0.10413  0.76206  0.37110  1.0000
  C   C7        1.0  0.94129  0.32828  0.54152  1.0000
  C   C8        1.0  0.05871  0.67172  0.45848  1.0000
  C   C9        1.0  0.84634  0.43395  0.53735  1.0000
  C   C10       1.0  0.15365  0.56605  0.46265  1.0000
  C   C11       1.0  0.27933  0.77300  0.63941  1.0000
  C   C12       1.0  0.72067  0.22700  0.36059  1.0000
  C   C13       1.0  0.17747  0.87533  0.64093  1.0000
  C   C14       1.0  0.82253  0.12466  0.35907  1.0000
  C   C15       1.0  0.21462  0.97176  0.55916  1.0000
  C   C16       1.0  0.78538  0.02823  0.44083  1.0000
  C   C17       1.0  0.35416  0.95481  0.47474  1.0000
  C   C18       1.0  0.64584  0.04518  0.52525  1.0000
  C   C19       1.0  0.44954  0.84886  0.47854  1.0000
  C   C20       1.0  0.55045  0.15113  0.52146  1.0000
  C   C21       1.0  0.98572  0.12081  0.63392  1.0000
  C   C22       1.0  0.01428  0.87919  0.36608  1.0000
  C   C23       1.0  0.12146  0.08793  0.55850  1.0000
  C   C24       1.0  0.87854  0.91207  0.44150  1.0000
  C   C25       1.0  0.61135  0.74535  0.75679  1.0000
  C   C26       1.0  0.38865  0.25465  0.24321  1.0000
  C   C27       1.0  0.63238  0.81618  0.85802  1.0000
  C   C28       1.0  0.36762  0.18382  0.14198  1.0000
  C   C29       1.0  0.55445  0.80320  0.98457  1.0000
  C   C30       1.0  0.44556  0.19680  0.01542  1.0000
  C   C31       1.0  0.57650  0.86618  0.07969  1.0000
  C   C32       1.0  0.42350  0.13382  0.92031  1.0000
  C   C33       1.0  0.67652  0.94377  0.05127  1.0000
  C   C34       1.0  0.32348  0.05623  0.94873  1.0000
  C   C35       1.0  0.75399  0.95676  0.92414  1.0000
  C   C36       1.0  0.24601  0.04325  0.07586  1.0000
  C   C37       1.0  0.73262  0.89390  0.82861  1.0000
  C   C38       1.0  0.26738  0.10610  0.17139  1.0000
  C   C39       1.0  0.70384  0.00901  0.15352  1.0000
  C   C40       1.0  0.29616  0.99099  0.84648  1.0000
  C   C41       1.0  0.32597  0.43255  0.67635  1.0000
  C   C42       1.0  0.67403  0.56745  0.32365  1.0000
  C   C43       1.0  0.25711  0.42183  0.81496  1.0000
  C   C44       1.0  0.74289  0.57818  0.18504  1.0000
  C   C45       1.0  0.16048  0.34219  0.86094  1.0000
  C   C46       1.0  0.83952  0.65781  0.13906  1.0000
  C   C47       1.0  0.09365  0.33521  0.99018  1.0000
  C   C48       1.0  0.90634  0.66479  0.00982  1.0000
  C   C49       1.0  0.12277  0.40597  0.07664  1.0000
  C   C50       1.0  0.87722  0.59404  0.92336  1.0000
  C   C51       1.0  0.22093  0.48449  0.02976  1.0000
  C   C52       1.0  0.77907  0.51551  0.97025  1.0000
  C   C53       1.0  0.28686  0.49348  0.90081  1.0000
  C   C54       1.0  0.71314  0.50652  0.09919  1.0000
  C   C55       1.0  0.05107  0.40009  0.21603  1.0000
  C   C56       1.0  0.94893  0.59991  0.78397  1.0000
  N   N1        1.0  0.71101  0.45641  0.61466  1.0000
  N   N2        1.0  0.28898  0.54359  0.38534  1.0000
  N   N3        1.0  0.41386  0.75974  0.56071  1.0000
  N   N4        1.0  0.58614  0.24026  0.43928  1.0000
  O   O1        1.0  0.69180  0.75046  0.64265  1.0000
  O   O2        1.0  0.30820  0.24954  0.35735  1.0000
  O   O3        1.0  0.51471  0.67993  0.78564  1.0000
  O   O4        1.0  0.48529  0.32007  0.21436  1.0000
  O   O5        1.0  0.40696  0.51020  0.63736  1.0000
  O   O6        1.0  0.59304  0.48980  0.36263  1.0000
  O   O7        1.0  0.29932  0.36329  0.60073  1.0000
  O   O8        1.0  0.70068  0.63671  0.39927  1.0000
