data_image0
_chemical_formula_structural       Co2H56C58N8O8
_chemical_formula_sum              "Co2 H56 C58 N8 O8"
_cell_length_a       10.2474
_cell_length_b       11.6296
_cell_length_c       12.6861
_cell_angle_alpha    65.2691
_cell_angle_beta     83.745
_cell_angle_gamma    70.0147

_space_group_name_H-M_alt    "P 1"
_space_group_IT_number       1

loop_
  _space_group_symop_operation_xyz
  'x, y, z'

loop_
  _atom_site_type_symbol
  _atom_site_label
  _atom_site_symmetry_multiplicity
  _atom_site_fract_x
  _atom_site_fract_y
  _atom_site_fract_z
  _atom_site_occupancy
  Co  Co1       1.0  0.64245  0.63338  0.61190  1.0000
  Co  Co2       1.0  0.35755  0.36662  0.38810  1.0000
  H   H1        1.0  0.91841  0.78098  0.87424  1.0000
  H   H2        1.0  0.08159  0.21902  0.12576  1.0000
  H   H3        1.0  0.90609  0.96863  0.97502  1.0000
  H   H4        1.0  0.09392  0.03137  0.02498  1.0000
  H   H5        1.0  0.92453  0.11434  0.85740  1.0000
  H   H6        1.0  0.07547  0.88566  0.14260  1.0000
  H   H7        1.0  0.04068  0.95275  0.87723  1.0000
  H   H8        1.0  0.95932  0.04725  0.12276  1.0000
  H   H9        1.0  0.73303  0.21176  0.72506  1.0000
  H   H10       1.0  0.26697  0.78824  0.27494  1.0000
  H   H11       1.0  0.58969  0.97438  0.61189  1.0000
  H   H12       1.0  0.41031  0.02562  0.38811  1.0000
  H   H13       1.0  0.43906  0.84479  0.70809  1.0000
  H   H14       1.0  0.56094  0.15521  0.29191  1.0000
  H   H15       1.0  0.28209  0.91900  0.84900  1.0000
  H   H16       1.0  0.71792  0.08100  0.15100  1.0000
  H   H17       1.0  0.18942  0.76015  0.01196  1.0000
  H   H18       1.0  0.81058  0.23985  0.98804  1.0000
  H   H19       1.0  0.24334  0.52399  0.03689  1.0000
  H   H20       1.0  0.75666  0.47601  0.96311  1.0000
  H   H21       1.0  0.55395  0.37357  0.74786  1.0000
  H   H22       1.0  0.44604  0.62643  0.25214  1.0000
  H   H23       1.0  0.28218  0.32777  0.94629  1.0000
  H   H24       1.0  0.71781  0.67222  0.05371  1.0000
  H   H25       1.0  0.41793  0.29176  0.04110  1.0000
  H   H26       1.0  0.58206  0.70824  0.95890  1.0000
  H   H27       1.0  0.45731  0.20892  0.83574  1.0000
  H   H28       1.0  0.54269  0.79108  0.16427  1.0000
  H   H29       1.0  0.59098  0.17705  0.93088  1.0000
  H   H30       1.0  0.40902  0.82296  0.06912  1.0000
  H   H31       1.0  0.34363  0.07215  0.00157  1.0000
  H   H32       1.0  0.65637  0.92785  0.99843  1.0000
  H   H33       1.0  0.46933  0.04653  0.09989  1.0000
  H   H34       1.0  0.53067  0.95347  0.90011  1.0000
  H   H35       1.0  0.91806  0.44511  0.78712  1.0000
  H   H36       1.0  0.08194  0.55489  0.21288  1.0000
  H   H37       1.0  0.16138  0.28641  0.84310  1.0000
  H   H38       1.0  0.83862  0.71359  0.15690  1.0000
  H   H39       1.0  0.28931  0.16597  0.72183  1.0000
  H   H40       1.0  0.71069  0.83403  0.27817  1.0000
  H   H41       1.0  0.17664  0.18906  0.54746  1.0000
  H   H42       1.0  0.82336  0.81095  0.45254  1.0000
  H   H43       1.0  0.67836  0.50177  0.43706  1.0000
  H   H44       1.0  0.32163  0.49823  0.56294  1.0000
  H   H45       1.0  0.01803  0.32203  0.35654  1.0000
  H   H46       1.0  0.98197  0.67797  0.64347  1.0000
  H   H47       1.0  0.84014  0.40314  0.31451  1.0000
  H   H48       1.0  0.15986  0.59686  0.68549  1.0000
  H   H49       1.0  0.89971  0.18019  0.32717  1.0000
  H   H50       1.0  0.10029  0.81981  0.67283  1.0000
  H   H51       1.0  0.79058  0.18962  0.44268  1.0000
  H   H52       1.0  0.20942  0.81037  0.55732  1.0000
  H   H53       1.0  0.10945  0.07046  0.46707  1.0000
  H   H54       1.0  0.89055  0.92954  0.53293  1.0000
  H   H55       1.0  0.99533  0.06652  0.58268  1.0000
  H   H56       1.0  0.00468  0.93348  0.41732  1.0000
  C   C1        1.0  0.76638  0.73048  0.74721  1.0000
  C   C2        1.0  0.23362  0.26951  0.25279  1.0000
  C   C3        1.0  0.75514  0.86416  0.74421  1.0000
  C   C4        1.0  0.24486  0.13584  0.25579  1.0000
  C   C5        1.0  0.84344  0.87317  0.81503  1.0000
  C   C6        1.0  0.15656  0.12684  0.18497  1.0000
  C   C7        1.0  0.83756  0.99827  0.80847  1.0000
  C   C8        1.0  0.16244  0.00173  0.19153  1.0000
  C   C9        1.0  0.93208  0.00959  0.88314  1.0000
  C   C10       1.0  0.06792  0.99041  0.11686  1.0000
  C   C11       1.0  0.73888  0.11317  0.73264  1.0000
  C   C12       1.0  0.26113  0.88683  0.26736  1.0000
  C   C13       1.0  0.64661  0.10534  0.66431  1.0000
  C   C14       1.0  0.35339  0.89466  0.33569  1.0000
  C   C15       1.0  0.53901  0.23118  0.58750  1.0000
  C   C16       1.0  0.46099  0.76882  0.41250  1.0000
  C   C17       1.0  0.65708  0.98067  0.66843  1.0000
  C   C18       1.0  0.34292  0.01933  0.33156  1.0000
  C   C19       1.0  0.42946  0.64274  0.79464  1.0000
  C   C20       1.0  0.57054  0.35726  0.20536  1.0000
  C   C21       1.0  0.39737  0.77586  0.77936  1.0000
  C   C22       1.0  0.60264  0.22414  0.22064  1.0000
  C   C23       1.0  0.30982  0.81566  0.85871  1.0000
  C   C24       1.0  0.69019  0.18434  0.14129  1.0000
  C   C25       1.0  0.25622  0.72565  0.95077  1.0000
  C   C26       1.0  0.74378  0.27435  0.04922  1.0000
  C   C27       1.0  0.28520  0.59341  0.96589  1.0000
  C   C28       1.0  0.71480  0.40659  0.03411  1.0000
  C   C29       1.0  0.37197  0.55456  0.88550  1.0000
  C   C30       1.0  0.62803  0.44544  0.11450  1.0000
  C   C31       1.0  0.50539  0.44949  0.78163  1.0000
  C   C32       1.0  0.49461  0.55051  0.21837  1.0000
  C   C33       1.0  0.39433  0.30991  0.95196  1.0000
  C   C34       1.0  0.60567  0.69009  0.04805  1.0000
  C   C35       1.0  0.47991  0.19013  0.92551  1.0000
  C   C36       1.0  0.52009  0.80987  0.07450  1.0000
  C   C37       1.0  0.45350  0.06153  0.00987  1.0000
  C   C38       1.0  0.54650  0.93847  0.99013  1.0000
  C   C39       1.0  0.90963  0.39972  0.63881  1.0000
  C   C40       1.0  0.09038  0.60028  0.36119  1.0000
  C   C41       1.0  0.97263  0.38650  0.73757  1.0000
  C   C42       1.0  0.02737  0.61350  0.26243  1.0000
  C   C43       1.0  0.10889  0.29935  0.76665  1.0000
  C   C44       1.0  0.89111  0.70065  0.23335  1.0000
  C   C45       1.0  0.18113  0.22928  0.69891  1.0000
  C   C46       1.0  0.81887  0.77073  0.30109  1.0000
  C   C47       1.0  0.11903  0.24122  0.60070  1.0000
  C   C48       1.0  0.88097  0.75878  0.39930  1.0000
  C   C49       1.0  0.98143  0.32598  0.57281  1.0000
  C   C50       1.0  0.01857  0.67402  0.42719  1.0000
  C   C51       1.0  0.77007  0.45415  0.49487  1.0000
  C   C52       1.0  0.22992  0.54585  0.50513  1.0000
  C   C53       1.0  0.91303  0.32253  0.38523  1.0000
  C   C54       1.0  0.08697  0.67747  0.61477  1.0000
  C   C55       1.0  0.89539  0.18815  0.41118  1.0000
  C   C56       1.0  0.10461  0.81185  0.58882  1.0000
  C   C57       1.0  0.00529  0.06569  0.49568  1.0000
  C   C58       1.0  0.99471  0.93431  0.50432  1.0000
  N   N1        1.0  0.51359  0.57292  0.73221  1.0000
  N   N2        1.0  0.48641  0.42708  0.26779  1.0000
  N   N3        1.0  0.42194  0.43320  0.87397  1.0000
  N   N4        1.0  0.57806  0.56680  0.12603  1.0000
  N   N5        1.0  0.77801  0.48024  0.58635  1.0000
  N   N6        1.0  0.22199  0.51976  0.41365  1.0000
  N   N7        1.0  0.88854  0.36284  0.48267  1.0000
  N   N8        1.0  0.11146  0.63716  0.51733  1.0000
  O   O1        1.0  0.71883  0.74000  0.65182  1.0000
  O   O2        1.0  0.28117  0.26000  0.34818  1.0000
  O   O3        1.0  0.81959  0.62449  0.83365  1.0000
  O   O4        1.0  0.18041  0.37551  0.16635  1.0000
  O   O5        1.0  0.46737  0.21596  0.51883  1.0000
  O   O6        1.0  0.53263  0.78404  0.48117  1.0000
  O   O7        1.0  0.52299  0.34031  0.59290  1.0000
  O   O8        1.0  0.47702  0.65969  0.40710  1.0000
