data_image0
_chemical_formula_structural       Zn2H38C44N2O8
_chemical_formula_sum              "Zn2 H38 C44 N2 O8"
_cell_length_a       8.23502
_cell_length_b       11.3855
_cell_length_c       11.7882
_cell_angle_alpha    67.2292
_cell_angle_beta     72.9216
_cell_angle_gamma    77.3289

_space_group_name_H-M_alt    "P 1"
_space_group_IT_number       1

loop_
  _space_group_symop_operation_xyz
  'x, y, z'

loop_
  _atom_site_type_symbol
  _atom_site_label
  _atom_site_symmetry_multiplicity
  _atom_site_fract_x
  _atom_site_fract_y
  _atom_site_fract_z
  _atom_site_occupancy
  Zn  Zn1       1.0  0.42011  0.47716  0.41954  1.0000
  Zn  Zn2       1.0  0.57989  0.52284  0.58045  1.0000
  H   H1        1.0  0.52353  0.37654  0.20937  1.0000
  H   H2        1.0  0.47647  0.62346  0.79063  1.0000
  H   H3        1.0  0.39605  0.37186  0.04216  1.0000
  H   H4        1.0  0.60395  0.62814  0.95784  1.0000
  H   H5        1.0  0.92533  0.56208  0.20949  1.0000
  H   H6        1.0  0.07467  0.43792  0.79051  1.0000
  H   H7        1.0  0.07438  0.56434  0.36318  1.0000
  H   H8        1.0  0.92563  0.43566  0.63682  1.0000
  H   H9        1.0  0.16101  0.42124  0.94655  1.0000
  H   H10       1.0  0.83899  0.57876  0.05345  1.0000
  H   H11       1.0  0.20192  0.82629  0.68438  1.0000
  H   H12       1.0  0.79809  0.17371  0.31562  1.0000
  H   H13       1.0  0.94434  0.97926  0.72912  1.0000
  H   H14       1.0  0.05566  0.02074  0.27088  1.0000
  H   H15       1.0  0.68577  0.85558  0.53381  1.0000
  H   H16       1.0  0.31423  0.14442  0.46619  1.0000
  H   H17       1.0  0.94365  0.70953  0.48454  1.0000
  H   H18       1.0  0.05635  0.29047  0.51546  1.0000
  H   H19       1.0  0.54483  0.96841  0.74380  1.0000
  H   H20       1.0  0.45517  0.03159  0.25620  1.0000
  H   H21       1.0  0.57964  0.06322  0.58168  1.0000
  H   H22       1.0  0.42036  0.93678  0.41832  1.0000
  H   H23       1.0  0.67157  0.09647  0.68281  1.0000
  H   H24       1.0  0.32843  0.90353  0.31719  1.0000
  H   H25       1.0  0.80332  0.87948  0.31842  1.0000
  H   H26       1.0  0.19668  0.12052  0.68157  1.0000
  H   H27       1.0  0.86165  0.08849  0.14566  1.0000
  H   H28       1.0  0.13835  0.91151  0.85434  1.0000
  H   H29       1.0  0.67864  0.97492  0.90204  1.0000
  H   H30       1.0  0.32136  0.02508  0.09796  1.0000
  H   H31       1.0  0.61571  0.76810  0.07641  1.0000
  H   H32       1.0  0.38429  0.23190  0.92359  1.0000
  H   H33       1.0  0.79251  0.17887  0.81930  1.0000
  H   H34       1.0  0.20749  0.82113  0.18070  1.0000
  H   H35       1.0  0.91971  0.20532  0.90400  1.0000
  H   H36       1.0  0.08029  0.79468  0.09600  1.0000
  H   H37       1.0  0.69578  0.25050  0.93581  1.0000
  H   H38       1.0  0.30422  0.74950  0.06419  1.0000
  C   C1        1.0  0.39221  0.41788  0.20354  1.0000
  C   C2        1.0  0.60779  0.58212  0.79646  1.0000
  C   C3        1.0  0.32011  0.41501  0.11218  1.0000
  C   C4        1.0  0.67989  0.58499  0.88782  1.0000
  C   C5        1.0  0.14994  0.46929  0.10909  1.0000
  C   C6        1.0  0.85006  0.53071  0.89091  1.0000
  C   C7        1.0  0.05900  0.52176  0.20328  1.0000
  C   C8        1.0  0.94099  0.47824  0.79672  1.0000
  C   C9        1.0  0.14023  0.52229  0.29053  1.0000
  C   C10       1.0  0.85977  0.47771  0.70947  1.0000
  C   C11       1.0  0.07798  0.47066  0.00969  1.0000
  C   C12       1.0  0.92202  0.52934  0.99031  1.0000
  C   C13       1.0  0.24438  0.66841  0.55274  1.0000
  C   C14       1.0  0.75562  0.33159  0.44726  1.0000
  C   C15       1.0  0.08973  0.75827  0.58170  1.0000
  C   C16       1.0  0.91027  0.24173  0.41830  1.0000
  C   C17       1.0  0.08765  0.83362  0.65206  1.0000
  C   C18       1.0  0.91235  0.16638  0.34794  1.0000
  C   C19       1.0  0.94341  0.91821  0.67727  1.0000
  C   C20       1.0  0.05659  0.08179  0.32273  1.0000
  C   C21       1.0  0.79697  0.92840  0.63484  1.0000
  C   C22       1.0  0.20303  0.07160  0.36516  1.0000
  C   C23       1.0  0.79902  0.85063  0.56658  1.0000
  C   C24       1.0  0.20098  0.14937  0.43342  1.0000
  C   C25       1.0  0.94374  0.76794  0.53896  1.0000
  C   C26       1.0  0.05626  0.23206  0.46104  1.0000
  C   C27       1.0  0.64109  0.01893  0.66197  1.0000
  C   C28       1.0  0.35891  0.98108  0.33803  1.0000
  C   C29       1.0  0.65184  0.69086  0.31474  1.0000
  C   C30       1.0  0.34816  0.30914  0.68526  1.0000
  C   C31       1.0  0.70518  0.81061  0.20820  1.0000
  C   C32       1.0  0.29482  0.18939  0.79180  1.0000
  C   C33       1.0  0.77665  0.90096  0.22681  1.0000
  C   C34       1.0  0.22335  0.09904  0.77319  1.0000
  C   C35       1.0  0.80798  0.01778  0.13035  1.0000
  C   C36       1.0  0.19202  0.98222  0.86965  1.0000
  C   C37       1.0  0.77123  0.04738  0.01258  1.0000
  C   C38       1.0  0.22877  0.95262  0.98742  1.0000
  C   C39       1.0  0.70691  0.95433  0.99302  1.0000
  C   C40       1.0  0.29309  0.04567  0.00698  1.0000
  C   C41       1.0  0.67297  0.83803  0.08977  1.0000
  C   C42       1.0  0.32703  0.16197  0.91023  1.0000
  C   C43       1.0  0.79675  0.17665  0.91231  1.0000
  C   C44       1.0  0.20325  0.82335  0.08770  1.0000
  N   N1        1.0  0.30461  0.47213  0.29046  1.0000
  N   N2        1.0  0.69539  0.52787  0.70954  1.0000
  O   O1        1.0  0.24242  0.61207  0.47823  1.0000
  O   O2        1.0  0.75758  0.38793  0.52177  1.0000
  O   O3        1.0  0.36740  0.65362  0.60413  1.0000
  O   O4        1.0  0.63260  0.34638  0.39587  1.0000
  O   O5        1.0  0.57081  0.62164  0.29248  1.0000
  O   O6        1.0  0.42919  0.37836  0.70752  1.0000
  O   O7        1.0  0.68831  0.66756  0.41990  1.0000
  O   O8        1.0  0.31169  0.33244  0.58010  1.0000
