data_image0
_chemical_formula_structural       Zn2H48C56N4O8
_chemical_formula_sum              "Zn2 H48 C56 N4 O8"
_cell_length_a       10.1628
_cell_length_b       10.3592
_cell_length_c       11.7306
_cell_angle_alpha    87.5826
_cell_angle_beta     73.9869
_cell_angle_gamma    82.0323

_space_group_name_H-M_alt    "P 1"
_space_group_IT_number       1

loop_
  _space_group_symop_operation_xyz
  'x, y, z'

loop_
  _atom_site_type_symbol
  _atom_site_label
  _atom_site_symmetry_multiplicity
  _atom_site_fract_x
  _atom_site_fract_y
  _atom_site_fract_z
  _atom_site_occupancy
  Zn  Zn1       1.0  0.59270  0.60346  0.60303  1.0000
  Zn  Zn2       1.0  0.40730  0.39655  0.39697  1.0000
  H   H1        1.0  0.62254  0.38007  0.77858  1.0000
  H   H2        1.0  0.37745  0.61993  0.22142  1.0000
  H   H3        1.0  0.75592  0.15795  0.76880  1.0000
  H   H4        1.0  0.24407  0.84205  0.23120  1.0000
  H   H5        1.0  0.04459  0.28311  0.45163  1.0000
  H   H6        1.0  0.95541  0.71689  0.54837  1.0000
  H   H7        1.0  0.89168  0.49488  0.47090  1.0000
  H   H8        1.0  0.10832  0.50511  0.52910  1.0000
  H   H9        1.0  0.43328  0.16398  0.56334  1.0000
  H   H10       1.0  0.56672  0.83602  0.43667  1.0000
  H   H11       1.0  0.61682  0.99722  0.60925  1.0000
  H   H12       1.0  0.38318  0.00278  0.39075  1.0000
  H   H13       1.0  0.91035  0.15933  0.31888  1.0000
  H   H14       1.0  0.08965  0.84067  0.68111  1.0000
  H   H15       1.0  0.71627  0.31379  0.28361  1.0000
  H   H16       1.0  0.28373  0.68621  0.71639  1.0000
  H   H17       1.0  0.96157  0.00808  0.66935  1.0000
  H   H18       1.0  0.03843  0.99191  0.33065  1.0000
  H   H19       1.0  0.84784  0.89918  0.56025  1.0000
  H   H20       1.0  0.15216  0.10082  0.43975  1.0000
  H   H21       1.0  0.80015  0.91744  0.76159  1.0000
  H   H22       1.0  0.19985  0.08256  0.23841  1.0000
  H   H23       1.0  0.83397  0.03467  0.93184  1.0000
  H   H24       1.0  0.16603  0.96533  0.06817  1.0000
  H   H25       1.0  0.51000  0.85008  0.16928  1.0000
  H   H26       1.0  0.49000  0.14992  0.83072  1.0000
  H   H27       1.0  0.47966  0.73336  0.99822  1.0000
  H   H28       1.0  0.52034  0.26663  0.00178  1.0000
  H   H29       1.0  0.65985  0.96710  0.24853  1.0000
  H   H30       1.0  0.34015  0.03290  0.75147  1.0000
  H   H31       1.0  0.63580  0.11813  0.17474  1.0000
  H   H32       1.0  0.36420  0.88187  0.82526  1.0000
  H   H33       1.0  0.80356  0.03078  0.15106  1.0000
  H   H34       1.0  0.19644  0.96922  0.84894  1.0000
  H   H35       1.0  0.37989  0.51451  0.85546  1.0000
  H   H36       1.0  0.62011  0.48549  0.14454  1.0000
  H   H37       1.0  0.23923  0.48462  0.06272  1.0000
  H   H38       1.0  0.76077  0.51538  0.93728  1.0000
  H   H39       1.0  0.99415  0.24644  0.93714  1.0000
  H   H40       1.0  0.00585  0.75356  0.06285  1.0000
  H   H41       1.0  0.13208  0.28057  0.72875  1.0000
  H   H42       1.0  0.86792  0.71944  0.27125  1.0000
  H   H43       1.0  0.94869  0.43309  0.16973  1.0000
  H   H44       1.0  0.05131  0.56691  0.83027  1.0000
  H   H45       1.0  0.08858  0.32886  0.20028  1.0000
  H   H46       1.0  0.91142  0.67113  0.79971  1.0000
  H   H47       1.0  0.96448  0.26284  0.14583  1.0000
  H   H48       1.0  0.03552  0.73716  0.85417  1.0000
  C   C1        1.0  0.71724  0.35401  0.70812  1.0000
  C   C2        1.0  0.28276  0.64599  0.29188  1.0000
  C   C3        1.0  0.79267  0.23067  0.70189  1.0000
  C   C4        1.0  0.20732  0.76934  0.29811  1.0000
  C   C5        1.0  0.90950  0.19805  0.60575  1.0000
  C   C6        1.0  0.09049  0.80195  0.39425  1.0000
  C   C7        1.0  0.95152  0.29821  0.52570  1.0000
  C   C8        1.0  0.04848  0.70179  0.47429  1.0000
  C   C9        1.0  0.86847  0.41848  0.53719  1.0000
  C   C10       1.0  0.13152  0.58152  0.46281  1.0000
  C   C11       1.0  0.54087  0.15828  0.51139  1.0000
  C   C12       1.0  0.45913  0.84172  0.48862  1.0000
  C   C13       1.0  0.64272  0.06686  0.53675  1.0000
  C   C14       1.0  0.35728  0.93314  0.46325  1.0000
  C   C15       1.0  0.78031  0.06520  0.46944  1.0000
  C   C16       1.0  0.21969  0.93480  0.53056  1.0000
  C   C17       1.0  0.80632  0.15453  0.37544  1.0000
  C   C18       1.0  0.19368  0.84547  0.62456  1.0000
  C   C19       1.0  0.69843  0.24244  0.35542  1.0000
  C   C20       1.0  0.30156  0.75756  0.64458  1.0000
  C   C21       1.0  0.96778  0.05739  0.58376  1.0000
  C   C22       1.0  0.03222  0.94261  0.41624  1.0000
  C   C23       1.0  0.89210  0.98132  0.50860  1.0000
  C   C24       1.0  0.10790  0.01868  0.49140  1.0000
  C   C25       1.0  0.62788  0.74350  0.76745  1.0000
  C   C26       1.0  0.37212  0.25650  0.23255  1.0000
  C   C27       1.0  0.63826  0.81902  0.86945  1.0000
  C   C28       1.0  0.36174  0.18098  0.13055  1.0000
  C   C29       1.0  0.73664  0.90524  0.85165  1.0000
  C   C30       1.0  0.26336  0.09476  0.14835  1.0000
  C   C31       1.0  0.75488  0.96946  0.94659  1.0000
  C   C32       1.0  0.24512  0.03054  0.05341  1.0000
  C   C33       1.0  0.67389  0.95037  0.06253  1.0000
  C   C34       1.0  0.32611  0.04963  0.93747  1.0000
  C   C35       1.0  0.57326  0.86637  0.07957  1.0000
  C   C36       1.0  0.42675  0.13363  0.92043  1.0000
  C   C37       1.0  0.55563  0.80117  0.98459  1.0000
  C   C38       1.0  0.44437  0.19883  0.01541  1.0000
  C   C39       1.0  0.69434  0.01965  0.16462  1.0000
  C   C40       1.0  0.30566  0.98035  0.83538  1.0000
  C   C41       1.0  0.34917  0.41684  0.65461  1.0000
  C   C42       1.0  0.65084  0.58317  0.34539  1.0000
  C   C43       1.0  0.26526  0.39819  0.77920  1.0000
  C   C44       1.0  0.73475  0.60181  0.22079  1.0000
  C   C45       1.0  0.29480  0.45622  0.87372  1.0000
  C   C46       1.0  0.70520  0.54378  0.12628  1.0000
  C   C47       1.0  0.21555  0.43961  0.98948  1.0000
  C   C48       1.0  0.78445  0.56038  0.01052  1.0000
  C   C49       1.0  0.10711  0.36331  0.01437  1.0000
  C   C50       1.0  0.89289  0.63668  0.98563  1.0000
  C   C51       1.0  0.07855  0.30577  0.91921  1.0000
  C   C52       1.0  0.92145  0.69423  0.08079  1.0000
  C   C53       1.0  0.15547  0.32368  0.80287  1.0000
  C   C54       1.0  0.84453  0.67632  0.19713  1.0000
  C   C55       1.0  0.02293  0.34560  0.13937  1.0000
  C   C56       1.0  0.97707  0.65440  0.86063  1.0000
  N   N1        1.0  0.75117  0.44572  0.62432  1.0000
  N   N2        1.0  0.24883  0.55428  0.37568  1.0000
  N   N3        1.0  0.56777  0.24628  0.42319  1.0000
  N   N4        1.0  0.43223  0.75372  0.57681  1.0000
  O   O1        1.0  0.70516  0.76194  0.66362  1.0000
  O   O2        1.0  0.29484  0.23806  0.33638  1.0000
  O   O3        1.0  0.54151  0.66046  0.78668  1.0000
  O   O4        1.0  0.45849  0.33954  0.21332  1.0000
  O   O5        1.0  0.46323  0.46065  0.63781  1.0000
  O   O6        1.0  0.53677  0.53935  0.36219  1.0000
  O   O7        1.0  0.30060  0.38369  0.57174  1.0000
  O   O8        1.0  0.69940  0.61632  0.42826  1.0000
