data_image0
_chemical_formula_structural       Ag2H62C60N8O8
_chemical_formula_sum              "Ag2 H62 C60 N8 O8"
_cell_length_a       9.59851
_cell_length_b       10.104
_cell_length_c       14.1366
_cell_angle_alpha    97.9966
_cell_angle_beta     91.617
_cell_angle_gamma    100.575

_space_group_name_H-M_alt    "P 1"
_space_group_IT_number       1

loop_
  _space_group_symop_operation_xyz
  'x, y, z'

loop_
  _atom_site_type_symbol
  _atom_site_label
  _atom_site_symmetry_multiplicity
  _atom_site_fract_x
  _atom_site_fract_y
  _atom_site_fract_z
  _atom_site_occupancy
  Ag  Ag1       1.0  0.72548  0.54284  0.70798  1.0000
  Ag  Ag2       1.0  0.27452  0.45715  0.29202  1.0000
  H   H1        1.0  0.75503  0.51857  0.38659  1.0000
  H   H2        1.0  0.24497  0.48143  0.61341  1.0000
  H   H3        1.0  0.67942  0.56323  0.49772  1.0000
  H   H4        1.0  0.32058  0.43677  0.50227  1.0000
  H   H5        1.0  0.61225  0.40393  0.42554  1.0000
  H   H6        1.0  0.38776  0.59607  0.57446  1.0000
  H   H7        1.0  0.99908  0.42797  0.76796  1.0000
  H   H8        1.0  0.00092  0.57203  0.23204  1.0000
  H   H9        1.0  0.16436  0.26330  0.76717  1.0000
  H   H10       1.0  0.83563  0.73670  0.23283  1.0000
  H   H11       1.0  0.20247  0.11840  0.61685  1.0000
  H   H12       1.0  0.79753  0.88159  0.38315  1.0000
  H   H13       1.0  0.07817  0.13315  0.46272  1.0000
  H   H14       1.0  0.92183  0.86685  0.53728  1.0000
  H   H15       1.0  0.98084  0.23657  0.34394  1.0000
  H   H16       1.0  0.01916  0.76343  0.65606  1.0000
  H   H17       1.0  0.87478  0.35213  0.31677  1.0000
  H   H18       1.0  0.12522  0.64787  0.68322  1.0000
  H   H19       1.0  0.74623  0.08199  0.38369  1.0000
  H   H20       1.0  0.25377  0.91801  0.61631  1.0000
  H   H21       1.0  0.65482  0.19200  0.33172  1.0000
  H   H22       1.0  0.34518  0.80800  0.66828  1.0000
  H   H23       1.0  0.79826  0.14990  0.18117  1.0000
  H   H24       1.0  0.20174  0.85010  0.81883  1.0000
  H   H25       1.0  0.85806  0.02165  0.23309  1.0000
  H   H26       1.0  0.14195  0.97835  0.76691  1.0000
  H   H27       1.0  0.61117  0.89327  0.23205  1.0000
  H   H28       1.0  0.38883  0.10673  0.76795  1.0000
  H   H29       1.0  0.54310  0.02803  0.19235  1.0000
  H   H30       1.0  0.45690  0.97197  0.80765  1.0000
  H   H31       1.0  0.75167  0.87735  0.08075  1.0000
  H   H32       1.0  0.24833  0.12265  0.91925  1.0000
  H   H33       1.0  0.66823  0.00131  0.04068  1.0000
  H   H34       1.0  0.33177  0.99869  0.95932  1.0000
  H   H35       1.0  0.43018  0.84690  0.03789  1.0000
  H   H36       1.0  0.56982  0.15310  0.96211  1.0000
  H   H37       1.0  0.54930  0.77321  0.96394  1.0000
  H   H38       1.0  0.45070  0.22679  0.03606  1.0000
  H   H39       1.0  0.32240  0.84256  0.18938  1.0000
  H   H40       1.0  0.67760  0.15744  0.81062  1.0000
  H   H41       1.0  0.22073  0.69194  0.22276  1.0000
  H   H42       1.0  0.77927  0.30806  0.77724  1.0000
  H   H43       1.0  0.21731  0.71862  0.10120  1.0000
  H   H44       1.0  0.78269  0.28137  0.89880  1.0000
  H   H45       1.0  0.76516  0.65296  0.99267  1.0000
  H   H46       1.0  0.23484  0.34704  0.00733  1.0000
  H   H47       1.0  0.89200  0.47348  0.03343  1.0000
  H   H48       1.0  0.10799  0.52652  0.96657  1.0000
  H   H49       1.0  0.80195  0.32362  0.14743  1.0000
  H   H50       1.0  0.19805  0.67637  0.85256  1.0000
  H   H51       1.0  0.57395  0.34400  0.22985  1.0000
  H   H52       1.0  0.42605  0.65600  0.77015  1.0000
  H   H53       1.0  0.03995  0.77161  0.02538  1.0000
  H   H54       1.0  0.96005  0.22839  0.97462  1.0000
  H   H55       1.0  0.12371  0.97314  0.15118  1.0000
  H   H56       1.0  0.87629  0.02686  0.84882  1.0000
  H   H57       1.0  0.76834  0.86845  0.73598  1.0000
  H   H58       1.0  0.23165  0.13155  0.26402  1.0000
  H   H59       1.0  0.47766  0.74875  0.46336  1.0000
  H   H60       1.0  0.52233  0.25126  0.53664  1.0000
  H   H61       1.0  0.64948  0.12793  0.64184  1.0000
  H   H62       1.0  0.35051  0.87207  0.35816  1.0000
  C   C1        1.0  0.70922  0.47922  0.44983  1.0000
  C   C2        1.0  0.29078  0.52078  0.55016  1.0000
  C   C3        1.0  0.81183  0.41897  0.50210  1.0000
  C   C4        1.0  0.18817  0.58103  0.49790  1.0000
  C   C5        1.0  0.94203  0.36832  0.61650  1.0000
  C   C6        1.0  0.05797  0.63168  0.38349  1.0000
  C   C7        1.0  0.01377  0.36157  0.70274  1.0000
  C   C8        1.0  0.98623  0.63843  0.29726  1.0000
  C   C9        1.0  0.10647  0.26991  0.70102  1.0000
  C   C10       1.0  0.89353  0.73009  0.29897  1.0000
  C   C11       1.0  0.12840  0.18812  0.61559  1.0000
  C   C12       1.0  0.87160  0.81188  0.38441  1.0000
  C   C13       1.0  0.05997  0.19604  0.52865  1.0000
  C   C14       1.0  0.94003  0.80396  0.47135  1.0000
  C   C15       1.0  0.96748  0.28800  0.53073  1.0000
  C   C16       1.0  0.03252  0.71200  0.46927  1.0000
  C   C17       1.0  0.87947  0.26907  0.35860  1.0000
  C   C18       1.0  0.12053  0.73093  0.64140  1.0000
  C   C19       1.0  0.75392  0.15174  0.32995  1.0000
  C   C20       1.0  0.24608  0.84826  0.67005  1.0000
  C   C21       1.0  0.76867  0.07595  0.23078  1.0000
  C   C22       1.0  0.23134  0.92405  0.76923  1.0000
  C   C23       1.0  0.63506  0.97632  0.18851  1.0000
  C   C24       1.0  0.36494  0.02368  0.81149  1.0000
  C   C25       1.0  0.65324  0.91862  0.08476  1.0000
  C   C26       1.0  0.34676  0.08138  0.91524  1.0000
  C   C27       1.0  0.53002  0.80860  0.03869  1.0000
  C   C28       1.0  0.46998  0.19140  0.96131  1.0000
  C   C29       1.0  0.28525  0.73283  0.16713  1.0000
  C   C30       1.0  0.71475  0.26717  0.83287  1.0000
  C   C31       1.0  0.40400  0.65878  0.15147  1.0000
  C   C32       1.0  0.59600  0.34122  0.84853  1.0000
  C   C33       1.0  0.60076  0.60122  0.09244  1.0000
  C   C34       1.0  0.39923  0.39878  0.90756  1.0000
  C   C35       1.0  0.72405  0.58848  0.04491  1.0000
  C   C36       1.0  0.27595  0.41151  0.95509  1.0000
  C   C37       1.0  0.79343  0.48611  0.06681  1.0000
  C   C38       1.0  0.20657  0.51389  0.93319  1.0000
  C   C39       1.0  0.74034  0.39925  0.13250  1.0000
  C   C40       1.0  0.25966  0.60075  0.86750  1.0000
  C   C41       1.0  0.61585  0.41083  0.17880  1.0000
  C   C42       1.0  0.38415  0.58916  0.82120  1.0000
  C   C43       1.0  0.54587  0.51422  0.15844  1.0000
  C   C44       1.0  0.45413  0.48578  0.84156  1.0000
  C   C45       1.0  0.90465  0.76079  0.85690  1.0000
  C   C46       1.0  0.09535  0.23921  0.14310  1.0000
  C   C47       1.0  0.95350  0.88605  0.92967  1.0000
  C   C48       1.0  0.04650  0.11396  0.07033  1.0000
  C   C49       1.0  0.02386  0.87278  0.01515  1.0000
  C   C50       1.0  0.97614  0.12722  0.98485  1.0000
  C   C51       1.0  0.07008  0.98519  0.08485  1.0000
  C   C52       1.0  0.92993  0.01481  0.91515  1.0000
  C   C53       1.0  0.63720  0.85250  0.62435  1.0000
  C   C54       1.0  0.36279  0.14751  0.37566  1.0000
  C   C55       1.0  0.57029  0.93057  0.55939  1.0000
  C   C56       1.0  0.42971  0.06943  0.44062  1.0000
  C   C57       1.0  0.48683  0.85877  0.47891  1.0000
  C   C58       1.0  0.51316  0.14123  0.52109  1.0000
  C   C59       1.0  0.58365  0.07245  0.57987  1.0000
  C   C60       1.0  0.41635  0.92755  0.42013  1.0000
  N   N1        1.0  0.84383  0.44742  0.59623  1.0000
  N   N2        1.0  0.15617  0.55258  0.40377  1.0000
  N   N3        1.0  0.88555  0.32427  0.45970  1.0000
  N   N4        1.0  0.11445  0.67573  0.54030  1.0000
  N   N5        1.0  0.50803  0.69112  0.08947  1.0000
  N   N6        1.0  0.49198  0.30888  0.91053  1.0000
  N   N7        1.0  0.42319  0.55257  0.19350  1.0000
  N   N8        1.0  0.57682  0.44743  0.80650  1.0000
  O   O1        1.0  0.82537  0.77154  0.78378  1.0000
  O   O2        1.0  0.17463  0.22846  0.21622  1.0000
  O   O3        1.0  0.93994  0.65127  0.87041  1.0000
  O   O4        1.0  0.06007  0.34874  0.12959  1.0000
  O   O5        1.0  0.60912  0.72636  0.61428  1.0000
  O   O6        1.0  0.39088  0.27364  0.38572  1.0000
  O   O7        1.0  0.72471  0.92984  0.69313  1.0000
  O   O8        1.0  0.27529  0.07016  0.30688  1.0000
