data_image0
_chemical_formula_structural       Cu4H72C58S6I4N4
_chemical_formula_sum              "Cu4 H72 C58 S6 I4 N4"
_cell_length_a       10.6125
_cell_length_b       13.0632
_cell_length_c       14.1138
_cell_angle_alpha    84.1288
_cell_angle_beta     68.2289
_cell_angle_gamma    73.6496

_space_group_name_H-M_alt    "P 1"
_space_group_IT_number       1

loop_
  _space_group_symop_operation_xyz
  'x, y, z'

loop_
  _atom_site_type_symbol
  _atom_site_label
  _atom_site_symmetry_multiplicity
  _atom_site_fract_x
  _atom_site_fract_y
  _atom_site_fract_z
  _atom_site_occupancy
  Cu  Cu1       1.0  0.54692  0.95390  0.06942  1.0000
  Cu  Cu2       1.0  0.45308  0.04610  0.93058  1.0000
  Cu  Cu3       1.0  0.56410  0.51249  0.39843  1.0000
  Cu  Cu4       1.0  0.43590  0.48751  0.60157  1.0000
  H   H1        1.0  0.73516  0.72363  0.04960  1.0000
  H   H2        1.0  0.26484  0.27637  0.95040  1.0000
  H   H3        1.0  0.84619  0.70218  0.12445  1.0000
  H   H4        1.0  0.15381  0.29782  0.87555  1.0000
  H   H5        1.0  0.43428  0.70465  0.27033  1.0000
  H   H6        1.0  0.56572  0.29535  0.72967  1.0000
  H   H7        1.0  0.50951  0.70177  0.13262  1.0000
  H   H8        1.0  0.49049  0.29823  0.86738  1.0000
  H   H9        1.0  0.54267  0.75802  0.36503  1.0000
  H   H10       1.0  0.45733  0.24198  0.63497  1.0000
  H   H11       1.0  0.70941  0.78828  0.30284  1.0000
  H   H12       1.0  0.29059  0.21172  0.69716  1.0000
  H   H13       1.0  0.26303  0.81923  0.94141  1.0000
  H   H14       1.0  0.73697  0.18077  0.05859  1.0000
  H   H15       1.0  0.03714  0.88064  0.73489  1.0000
  H   H16       1.0  0.96286  0.11936  0.26511  1.0000
  H   H17       1.0  0.81141  0.90815  0.88315  1.0000
  H   H18       1.0  0.18859  0.09185  0.11685  1.0000
  H   H19       1.0  0.14955  0.83238  0.11689  1.0000
  H   H20       1.0  0.85045  0.16762  0.88311  1.0000
  H   H21       1.0  0.01216  0.76699  0.15755  1.0000
  H   H22       1.0  0.98784  0.23302  0.84245  1.0000
  H   H23       1.0  0.97038  0.90707  0.16684  1.0000
  H   H24       1.0  0.02962  0.09294  0.83315  1.0000
  H   H25       1.0  0.29113  0.84899  0.66668  1.0000
  H   H26       1.0  0.70887  0.15100  0.33332  1.0000
  H   H27       1.0  0.36248  0.74253  0.73479  1.0000
  H   H28       1.0  0.63751  0.25747  0.26522  1.0000
  H   H29       1.0  0.37186  0.87258  0.75063  1.0000
  H   H30       1.0  0.62815  0.12741  0.24936  1.0000
  H   H31       1.0  0.09104  0.94623  0.55125  1.0000
  H   H32       1.0  0.90896  0.05377  0.44875  1.0000
  H   H33       1.0  0.45046  0.07543  0.44052  1.0000
  H   H34       1.0  0.54954  0.92457  0.55948  1.0000
  H   H35       1.0  0.51509  0.99976  0.26875  1.0000
  H   H36       1.0  0.48491  0.00025  0.73124  1.0000
  H   H37       1.0  0.03639  0.85316  0.44602  1.0000
  H   H38       1.0  0.96361  0.14684  0.55398  1.0000
  H   H39       1.0  0.18747  0.76836  0.35917  1.0000
  H   H40       1.0  0.81253  0.23164  0.64083  1.0000
  H   H41       1.0  0.09488  0.88454  0.31324  1.0000
  H   H42       1.0  0.90512  0.11545  0.68676  1.0000
  H   H43       1.0  0.17332  0.15429  0.60540  1.0000
  H   H44       1.0  0.82668  0.84571  0.39460  1.0000
  H   H45       1.0  0.31200  0.05934  0.63238  1.0000
  H   H46       1.0  0.68800  0.94066  0.36762  1.0000
  H   H47       1.0  0.14413  0.03414  0.66951  1.0000
  H   H48       1.0  0.85587  0.96585  0.33049  1.0000
  H   H49       1.0  0.07093  0.63667  0.48777  1.0000
  H   H50       1.0  0.92908  0.36334  0.51223  1.0000
  H   H51       1.0  0.63235  0.74944  0.66946  1.0000
  H   H52       1.0  0.36765  0.25056  0.33054  1.0000
  H   H53       1.0  0.57045  0.68760  0.53592  1.0000
  H   H54       1.0  0.42955  0.31240  0.46408  1.0000
  H   H55       1.0  0.14808  0.55918  0.33125  1.0000
  H   H56       1.0  0.85192  0.44082  0.66875  1.0000
  H   H57       1.0  0.04155  0.61786  0.25686  1.0000
  H   H58       1.0  0.95846  0.38214  0.74313  1.0000
  H   H59       1.0  0.04042  0.48905  0.30852  1.0000
  H   H60       1.0  0.95959  0.51096  0.69148  1.0000
  H   H61       1.0  0.86457  0.82803  0.66562  1.0000
  H   H62       1.0  0.13544  0.17197  0.33438  1.0000
  H   H63       1.0  0.00895  0.71279  0.64968  1.0000
  H   H64       1.0  0.99106  0.28721  0.35032  1.0000
  H   H65       1.0  0.83905  0.71629  0.74324  1.0000
  H   H66       1.0  0.16095  0.28371  0.25676  1.0000
  H   H67       1.0  0.37801  0.37456  0.17289  1.0000
  H   H68       1.0  0.62199  0.62544  0.82712  1.0000
  H   H69       1.0  0.51712  0.41789  0.07767  1.0000
  H   H70       1.0  0.48287  0.58211  0.92234  1.0000
  H   H71       1.0  0.35095  0.51238  0.13750  1.0000
  H   H72       1.0  0.64905  0.48762  0.86250  1.0000
  C   C1        1.0  0.74482  0.74681  0.11864  1.0000
  C   C2        1.0  0.25518  0.25319  0.88136  1.0000
  C   C3        1.0  0.49774  0.74043  0.20209  1.0000
  C   C4        1.0  0.50225  0.25957  0.79790  1.0000
  C   C5        1.0  0.64577  0.73477  0.30375  1.0000
  C   C6        1.0  0.35423  0.26523  0.69625  1.0000
  C   C7        1.0  0.91115  0.87568  0.99481  1.0000
  C   C8        1.0  0.08885  0.12432  0.00518  1.0000
  C   C9        1.0  0.03876  0.85018  0.01307  1.0000
  C   C10       1.0  0.96124  0.14982  0.98693  1.0000
  C   C11       1.0  0.16374  0.83652  0.92838  1.0000
  C   C12       1.0  0.83626  0.16348  0.07162  1.0000
  C   C13       1.0  0.16651  0.84627  0.82773  1.0000
  C   C14       1.0  0.83349  0.15373  0.17227  1.0000
  C   C15       1.0  0.03812  0.87253  0.81236  1.0000
  C   C16       1.0  0.96189  0.12746  0.18764  1.0000
  C   C17       1.0  0.91134  0.88776  0.89516  1.0000
  C   C18       1.0  0.08866  0.11224  0.10484  1.0000
  C   C19       1.0  0.04328  0.83852  0.11893  1.0000
  C   C20       1.0  0.95672  0.16149  0.88107  1.0000
  C   C21       1.0  0.30486  0.82741  0.74003  1.0000
  C   C22       1.0  0.69514  0.17259  0.25997  1.0000
  C   C23       1.0  0.34026  0.93018  0.31441  1.0000
  C   C24       1.0  0.65974  0.06982  0.68559  1.0000
  C   C25       1.0  0.21887  0.91443  0.39362  1.0000
  C   C26       1.0  0.78112  0.08557  0.60639  1.0000
  C   C27       1.0  0.18459  0.95837  0.48928  1.0000
  C   C28       1.0  0.81541  0.04162  0.51071  1.0000
  C   C29       1.0  0.26516  0.01690  0.50788  1.0000
  C   C30       1.0  0.73483  0.98310  0.49212  1.0000
  C   C31       1.0  0.38618  0.03010  0.42776  1.0000
  C   C32       1.0  0.61382  0.96989  0.57224  1.0000
  C   C33       1.0  0.42264  0.98785  0.33184  1.0000
  C   C34       1.0  0.57736  0.01214  0.66816  1.0000
  C   C35       1.0  0.12925  0.85234  0.37728  1.0000
  C   C36       1.0  0.87075  0.14766  0.62272  1.0000
  C   C37       1.0  0.22128  0.06823  0.60950  1.0000
  C   C38       1.0  0.77872  0.93177  0.39050  1.0000
  C   C39       1.0  0.78584  0.63287  0.43410  1.0000
  C   C40       1.0  0.21417  0.36713  0.56590  1.0000
  C   C41       1.0  0.92877  0.61679  0.41955  1.0000
  C   C42       1.0  0.07124  0.38321  0.58045  1.0000
  C   C43       1.0  0.96048  0.64949  0.49767  1.0000
  C   C44       1.0  0.03953  0.35051  0.50233  1.0000
  C   C45       1.0  0.85663  0.69889  0.58712  1.0000
  C   C46       1.0  0.14338  0.30111  0.41288  1.0000
  C   C47       1.0  0.71549  0.71145  0.60027  1.0000
  C   C48       1.0  0.28452  0.28855  0.39973  1.0000
  C   C49       1.0  0.68044  0.67818  0.52501  1.0000
  C   C50       1.0  0.31957  0.32181  0.47499  1.0000
  C   C51       1.0  0.04616  0.56798  0.32391  1.0000
  C   C52       1.0  0.95384  0.43202  0.67609  1.0000
  C   C53       1.0  0.89536  0.74009  0.66536  1.0000
  C   C54       1.0  0.10465  0.25991  0.33464  1.0000
  C   C55       1.0  0.47633  0.46099  0.22734  1.0000
  C   C56       1.0  0.52365  0.53901  0.77267  1.0000
  C   C57       1.0  0.42788  0.44095  0.14966  1.0000
  C   C58       1.0  0.57211  0.55905  0.85034  1.0000
  S   S1        1.0  0.74972  0.89153  0.10024  1.0000
  S   S2        1.0  0.25028  0.10848  0.89976  1.0000
  S   S3        1.0  0.38652  0.87865  0.19096  1.0000
  S   S4        1.0  0.61348  0.12135  0.80904  1.0000
  S   S5        1.0  0.73930  0.59896  0.33485  1.0000
  S   S6        1.0  0.26070  0.40104  0.66515  1.0000
  I   I1        1.0  0.45193  0.16131  0.07985  1.0000
  I   I2        1.0  0.54807  0.83869  0.92015  1.0000
  I   I3        1.0  0.33039  0.65340  0.50963  1.0000
  I   I4        1.0  0.66962  0.34661  0.49037  1.0000
  N   N1        1.0  0.63152  0.73204  0.20727  1.0000
  N   N2        1.0  0.36848  0.26796  0.79273  1.0000
  N   N3        1.0  0.51462  0.47667  0.29061  1.0000
  N   N4        1.0  0.48536  0.52333  0.70940  1.0000
