data_image0
_chemical_formula_structural       Cu2H44C48N8O12
_chemical_formula_sum              "Cu2 H44 C48 N8 O12"
_cell_length_a       6.79994
_cell_length_b       11.0378
_cell_length_c       15.0031
_cell_angle_alpha    89.3133
_cell_angle_beta     87.6963
_cell_angle_gamma    72.0557

_space_group_name_H-M_alt    "P 1"
_space_group_IT_number       1

loop_
  _space_group_symop_operation_xyz
  'x, y, z'

loop_
  _atom_site_type_symbol
  _atom_site_label
  _atom_site_symmetry_multiplicity
  _atom_site_fract_x
  _atom_site_fract_y
  _atom_site_fract_z
  _atom_site_occupancy
  Cu  Cu1       1.0  0.46470  0.06955  0.75005  1.0000
  Cu  Cu2       1.0  0.53525  0.93054  0.24994  1.0000
  H   H1        1.0  0.84360  0.01366  0.85647  1.0000
  H   H2        1.0  0.14194  0.01338  0.64341  1.0000
  H   H3        1.0  0.15647  0.98630  0.14355  1.0000
  H   H4        1.0  0.85802  0.98659  0.35656  1.0000
  H   H5        1.0  0.42379  0.72361  0.06553  1.0000
  H   H6        1.0  0.85290  0.72365  0.43464  1.0000
  H   H7        1.0  0.57619  0.27633  0.93450  1.0000
  H   H8        1.0  0.14717  0.27630  0.56534  1.0000
  H   H9        1.0  0.93002  0.90987  0.00733  1.0000
  H   H10       1.0  0.16014  0.90963  0.49239  1.0000
  H   H11       1.0  0.06998  0.09010  0.99271  1.0000
  H   H12       1.0  0.83989  0.09034  0.50756  1.0000
  H   H13       1.0  0.71609  0.78397  0.07227  1.0000
  H   H14       1.0  0.50037  0.78394  0.42763  1.0000
  H   H15       1.0  0.28393  0.21598  0.92778  1.0000
  H   H16       1.0  0.49966  0.21601  0.57231  1.0000
  H   H17       1.0  0.34677  0.87082  0.83876  1.0000
  H   H18       1.0  0.78154  0.87083  0.66153  1.0000
  H   H19       1.0  0.65324  0.12912  0.16126  1.0000
  H   H20       1.0  0.21850  0.12910  0.33845  1.0000
  H   H21       1.0  0.08542  0.66506  0.07131  1.0000
  H   H22       1.0  0.24941  0.66501  0.42889  1.0000
  H   H23       1.0  0.91458  0.33493  0.92869  1.0000
  H   H24       1.0  0.75060  0.33498  0.57110  1.0000
  H   H25       1.0  0.30798  0.53538  0.05261  1.0000
  H   H26       1.0  0.15650  0.53538  0.44760  1.0000
  H   H27       1.0  0.69202  0.46461  0.94739  1.0000
  H   H28       1.0  0.84352  0.46461  0.55240  1.0000
  H   H29       1.0  0.94118  0.60461  0.92809  1.0000
  H   H30       1.0  0.45445  0.60467  0.57190  1.0000
  H   H31       1.0  0.05883  0.39538  0.07191  1.0000
  H   H32       1.0  0.54556  0.39532  0.42810  1.0000
  H   H33       1.0  0.15639  0.46816  0.92002  1.0000
  H   H34       1.0  0.37571  0.46823  0.58007  1.0000
  H   H35       1.0  0.84363  0.53182  0.07998  1.0000
  H   H36       1.0  0.62430  0.53176  0.41993  1.0000
  H   H37       1.0  0.40120  0.47000  0.77300  1.0000
  H   H38       1.0  0.12830  0.46988  0.72693  1.0000
  H   H39       1.0  0.59874  0.53004  0.22699  1.0000
  H   H40       1.0  0.87171  0.53016  0.27309  1.0000
  H   H41       1.0  0.47810  0.67377  0.76053  1.0000
  H   H42       1.0  0.84761  0.67372  0.73910  1.0000
  H   H43       1.0  0.52184  0.32632  0.23947  1.0000
  H   H44       1.0  0.15237  0.32637  0.26090  1.0000
  C   C1        1.0  0.71935  0.35455  0.75607  1.0000
  C   C2        1.0  0.92547  0.35455  0.74377  1.0000
  C   C3        1.0  0.28060  0.64550  0.24396  1.0000
  C   C4        1.0  0.07452  0.64549  0.25621  1.0000
  C   C5        1.0  0.75534  0.95623  0.88778  1.0000
  C   C6        1.0  0.28779  0.95602  0.61213  1.0000
  C   C7        1.0  0.24469  0.04374  0.11223  1.0000
  C   C8        1.0  0.71221  0.04397  0.38785  1.0000
  C   C9        1.0  0.80219  0.89854  0.97045  1.0000
  C   C10       1.0  0.29910  0.89838  0.52939  1.0000
  C   C11       1.0  0.19786  0.10141  0.02957  1.0000
  C   C12       1.0  0.70091  0.10158  0.47058  1.0000
  C   C13       1.0  0.68301  0.82728  0.00681  1.0000
  C   C14       1.0  0.48978  0.82722  0.49314  1.0000
  C   C15       1.0  0.31703  0.17268  0.99323  1.0000
  C   C16       1.0  0.51023  0.17274  0.50682  1.0000
  C   C17       1.0  0.51798  0.81232  0.95947  1.0000
  C   C18       1.0  0.66951  0.81231  0.54063  1.0000
  C   C19       1.0  0.48207  0.18765  0.04055  1.0000
  C   C20       1.0  0.33046  0.18767  0.45935  1.0000
  C   C21       1.0  0.47652  0.87504  0.87718  1.0000
  C   C22       1.0  0.64776  0.87497  0.62299  1.0000
  C   C23       1.0  0.52351  0.12496  0.12283  1.0000
  C   C24       1.0  0.35221  0.12503  0.37701  1.0000
  C   C25       1.0  0.26797  0.68772  0.95755  1.0000
  C   C26       1.0  0.04426  0.68780  0.54269  1.0000
  C   C27       1.0  0.73204  0.31227  0.04246  1.0000
  C   C28       1.0  0.95574  0.31219  0.45729  1.0000
  C   C29       1.0  0.18068  0.60391  0.01796  1.0000
  C   C30       1.0  0.21533  0.60389  0.48223  1.0000
  C   C31       1.0  0.81932  0.39607  0.98204  1.0000
  C   C32       1.0  0.78469  0.39610  0.51776  1.0000
  C   C33       1.0  0.05441  0.53535  0.96846  1.0000
  C   C34       1.0  0.41032  0.53536  0.53159  1.0000
  C   C35       1.0  0.94559  0.46463  0.03154  1.0000
  C   C36       1.0  0.58970  0.46462  0.46841  1.0000
  C   C37       1.0  0.66890  0.23255  0.75125  1.0000
  C   C38       1.0  0.09795  0.23262  0.74868  1.0000
  C   C39       1.0  0.33094  0.76750  0.24882  1.0000
  C   C40       1.0  0.90214  0.76743  0.25125  1.0000
  C   C41       1.0  0.56060  0.47002  0.76301  1.0000
  C   C42       1.0  0.96881  0.46999  0.73684  1.0000
  C   C43       1.0  0.43934  0.53005  0.23698  1.0000
  C   C44       1.0  0.03118  0.53007  0.26318  1.0000
  C   C45       1.0  0.60498  0.58525  0.75594  1.0000
  C   C46       1.0  0.80913  0.58524  0.74373  1.0000
  C   C47       1.0  0.39497  0.41482  0.24406  1.0000
  C   C48       1.0  0.19084  0.41484  0.25628  1.0000
  N   N1        1.0  0.59250  0.94568  0.84402  1.0000
  N   N2        1.0  0.46095  0.94554  0.65605  1.0000
  N   N3        1.0  0.40748  0.05434  0.15598  1.0000
  N   N4        1.0  0.53903  0.05449  0.34395  1.0000
  N   N5        1.0  0.40251  0.73925  0.99847  1.0000
  N   N6        1.0  0.85828  0.73929  0.50172  1.0000
  N   N7        1.0  0.59750  0.26074  0.00155  1.0000
  N   N8        1.0  0.14173  0.26070  0.49826  1.0000
  O   O1        1.0  0.53642  0.21452  0.81053  1.0000
  O   O2        1.0  0.24837  0.21433  0.68932  1.0000
  O   O3        1.0  0.46345  0.78547  0.18953  1.0000
  O   O4        1.0  0.75176  0.78566  0.31063  1.0000
  O   O5        1.0  0.74534  0.15588  0.68850  1.0000
  O   O6        1.0  0.09840  0.15620  0.81159  1.0000
  O   O7        1.0  0.25448  0.84415  0.31156  1.0000
  O   O8        1.0  0.90172  0.84382  0.18835  1.0000
  O   O9        1.0  0.22266  0.70870  0.87876  1.0000
  O   O10       1.0  0.06855  0.70889  0.62147  1.0000
  O   O11       1.0  0.77737  0.29130  0.12125  1.0000
  O   O12       1.0  0.93142  0.29111  0.37851  1.0000
