data_image0
_chemical_formula_structural       Cu2Ni2H12C20S8N8
_chemical_formula_sum              "Cu2 Ni2 H12 C20 S8 N8"
_cell_length_a       6.85528
_cell_length_b       6.85498
_cell_length_c       16.1274
_cell_angle_alpha    90.0108
_cell_angle_beta     90
_cell_angle_gamma    90.0027

_space_group_name_H-M_alt    "P 1"
_space_group_IT_number       1

loop_
  _space_group_symop_operation_xyz
  'x, y, z'

loop_
  _atom_site_type_symbol
  _atom_site_label
  _atom_site_symmetry_multiplicity
  _atom_site_fract_x
  _atom_site_fract_y
  _atom_site_fract_z
  _atom_site_occupancy
  Cu  Cu1       1.0  0.50004  0.50056  0.24998  1.0000
  Cu  Cu2       1.0  0.50000  0.49938  0.75001  1.0000
  Ni  Ni1       1.0  0.50002  0.99976  0.99998  1.0000
  Ni  Ni2       1.0  0.00000  0.50010  0.50001  1.0000
  H   H1        1.0  0.49991  0.18600  0.38682  1.0000
  H   H2        1.0  0.50001  0.81531  0.38688  1.0000
  H   H3        1.0  0.49996  0.18468  0.61312  1.0000
  H   H4        1.0  0.81473  0.50071  0.11311  1.0000
  H   H5        1.0  0.81468  0.49945  0.88691  1.0000
  H   H6        1.0  0.18533  0.49951  0.88690  1.0000
  H   H7        1.0  0.18539  0.50071  0.11312  1.0000
  H   H8        1.0  0.49996  0.81399  0.61312  1.0000
  H   H9        1.0  0.99992  0.99976  0.35387  1.0000
  H   H10       1.0  0.99996  0.99945  0.64617  1.0000
  H   H11       1.0  0.99993  0.99972  0.14615  1.0000
  H   H12       1.0  0.99998  0.99945  0.85390  1.0000
  C   C1        1.0  0.50001  0.10476  0.18602  1.0000
  C   C2        1.0  0.50002  0.89606  0.18608  1.0000
  C   C3        1.0  0.49997  0.10375  0.81391  1.0000
  C   C4        1.0  0.89569  0.50138  0.31392  1.0000
  C   C5        1.0  0.89567  0.49936  0.68610  1.0000
  C   C6        1.0  0.10433  0.49937  0.68610  1.0000
  C   C7        1.0  0.10438  0.50142  0.31392  1.0000
  C   C8        1.0  0.50005  0.89507  0.81392  1.0000
  C   C9        1.0  0.49996  0.10169  0.32971  1.0000
  C   C10       1.0  0.50000  0.89955  0.32975  1.0000
  C   C11       1.0  0.49997  0.10040  0.67024  1.0000
  C   C12       1.0  0.89900  0.50112  0.17023  1.0000
  C   C13       1.0  0.89896  0.49943  0.82978  1.0000
  C   C14       1.0  0.10105  0.49946  0.82978  1.0000
  C   C15       1.0  0.10110  0.50113  0.17024  1.0000
  C   C16       1.0  0.49998  0.89830  0.67024  1.0000
  C   C17       1.0  0.99993  0.99983  0.28749  1.0000
  C   C18       1.0  0.99997  0.99935  0.71256  1.0000
  C   C19       1.0  0.99994  0.99982  0.21253  1.0000
  C   C20       1.0  0.99997  0.99936  0.78751  1.0000
  S   S1        1.0  0.50004  0.22660  0.09308  1.0000
  S   S2        1.0  0.50002  0.77361  0.09327  1.0000
  S   S3        1.0  0.49986  0.22604  0.90675  1.0000
  S   S4        1.0  0.77356  0.50092  0.40679  1.0000
  S   S5        1.0  0.77353  0.49937  0.59322  1.0000
  S   S6        1.0  0.22646  0.49935  0.59322  1.0000
  S   S7        1.0  0.22648  0.50103  0.40680  1.0000
  S   S8        1.0  0.50017  0.77305  0.90683  1.0000
  N   N1        1.0  0.49998  0.20322  0.25797  1.0000
  N   N2        1.0  0.50004  0.79785  0.25806  1.0000
  N   N3        1.0  0.49996  0.20206  0.74194  1.0000
  N   N4        1.0  0.79737  0.50113  0.24195  1.0000
  N   N5        1.0  0.79733  0.49935  0.75807  1.0000
  N   N6        1.0  0.20267  0.49940  0.75806  1.0000
  N   N7        1.0  0.20271  0.50117  0.24195  1.0000
  N   N8        1.0  0.50003  0.79670  0.74196  1.0000
