data_image0
_chemical_formula_structural       Cu8H44C28N20
_chemical_formula_sum              "Cu8 H44 C28 N20"
_cell_length_a       8.05025
_cell_length_b       10.8469
_cell_length_c       12.2669
_cell_angle_alpha    80.0352
_cell_angle_beta     70.8333
_cell_angle_gamma    68.2246

_space_group_name_H-M_alt    "P 1"
_space_group_IT_number       1

loop_
  _space_group_symop_operation_xyz
  'x, y, z'

loop_
  _atom_site_type_symbol
  _atom_site_label
  _atom_site_symmetry_multiplicity
  _atom_site_fract_x
  _atom_site_fract_y
  _atom_site_fract_z
  _atom_site_occupancy
  Cu  Cu1       1.0  0.85845  0.56047  0.58623  1.0000
  Cu  Cu2       1.0  0.50572  0.93925  0.91363  1.0000
  Cu  Cu3       1.0  0.14155  0.43952  0.41377  1.0000
  Cu  Cu4       1.0  0.49428  0.06074  0.08637  1.0000
  Cu  Cu5       1.0  0.27880  0.83240  0.46866  1.0000
  Cu  Cu6       1.0  0.08009  0.66751  0.03142  1.0000
  Cu  Cu7       1.0  0.72120  0.16761  0.53134  1.0000
  Cu  Cu8       1.0  0.91991  0.33248  0.96858  1.0000
  H   H1        1.0  0.01824  0.04626  0.57544  1.0000
  H   H2        1.0  0.14035  0.45373  0.92453  1.0000
  H   H3        1.0  0.98176  0.95375  0.42456  1.0000
  H   H4        1.0  0.85964  0.54627  0.07547  1.0000
  H   H5        1.0  0.39527  0.97945  0.59754  1.0000
  H   H6        1.0  0.47270  0.52062  0.90218  1.0000
  H   H7        1.0  0.60474  0.02055  0.40246  1.0000
  H   H8        1.0  0.52729  0.47937  0.09782  1.0000
  H   H9        1.0  0.29214  0.10325  0.50133  1.0000
  H   H10       1.0  0.39718  0.39687  0.99858  1.0000
  H   H11       1.0  0.70786  0.89675  0.49867  1.0000
  H   H12       1.0  0.60281  0.60312  0.00142  1.0000
  H   H13       1.0  0.28800  0.19892  0.67456  1.0000
  H   H14       1.0  0.66168  0.30099  0.82528  1.0000
  H   H15       1.0  0.71201  0.80108  0.32544  1.0000
  H   H16       1.0  0.33832  0.69901  0.17472  1.0000
  H   H17       1.0  0.05855  0.23525  0.66430  1.0000
  H   H18       1.0  0.45807  0.26487  0.83565  1.0000
  H   H19       1.0  0.94146  0.76476  0.33569  1.0000
  H   H20       1.0  0.54193  0.73513  0.16434  1.0000
  H   H21       1.0  0.24576  0.02695  0.81880  1.0000
  H   H22       1.0  0.59185  0.47307  0.68114  1.0000
  H   H23       1.0  0.75424  0.97305  0.18120  1.0000
  H   H24       1.0  0.40815  0.52694  0.31887  1.0000
  H   H25       1.0  0.06570  0.16646  0.85544  1.0000
  H   H26       1.0  0.58779  0.33364  0.64445  1.0000
  H   H27       1.0  0.93430  0.83354  0.14456  1.0000
  H   H28       1.0  0.41221  0.66636  0.35554  1.0000
  H   H29       1.0  0.96896  0.97241  0.89164  1.0000
  H   H30       1.0  0.33342  0.52786  0.60835  1.0000
  H   H31       1.0  0.03104  0.02759  0.10836  1.0000
  H   H32       1.0  0.66658  0.47216  0.39165  1.0000
  H   H33       1.0  0.86561  0.09632  0.79517  1.0000
  H   H34       1.0  0.25728  0.40394  0.70470  1.0000
  H   H35       1.0  0.13439  0.90368  0.20483  1.0000
  H   H36       1.0  0.74272  0.59607  0.29529  1.0000
  H   H37       1.0  0.98129  0.87258  0.71779  1.0000
  H   H38       1.0  0.07200  0.62752  0.78227  1.0000
  H   H39       1.0  0.01871  0.12742  0.28221  1.0000
  H   H40       1.0  0.92799  0.37249  0.21773  1.0000
  H   H41       1.0  0.20776  0.84441  0.72819  1.0000
  H   H42       1.0  0.28072  0.65569  0.77187  1.0000
  H   H43       1.0  0.79224  0.15559  0.27181  1.0000
  H   H44       1.0  0.71927  0.34431  0.22814  1.0000
  C   C1        1.0  0.04702  0.64172  0.51644  1.0000
  C   C2        1.0  0.70538  0.85797  0.98360  1.0000
  C   C3        1.0  0.95298  0.35828  0.48356  1.0000
  C   C4        1.0  0.29461  0.14202  0.01639  1.0000
  C   C5        1.0  0.62324  0.65318  0.55906  1.0000
  C   C6        1.0  0.33571  0.84677  0.94066  1.0000
  C   C7        1.0  0.37676  0.34682  0.44094  1.0000
  C   C8        1.0  0.66428  0.15322  0.05933  1.0000
  C   C9        1.0  0.35923  0.91932  0.32572  1.0000
  C   C10       1.0  0.10464  0.58056  0.17431  1.0000
  C   C11       1.0  0.64076  0.08067  0.67428  1.0000
  C   C12       1.0  0.89536  0.41944  0.82569  1.0000
  C   C13       1.0  0.26296  0.05286  0.58734  1.0000
  C   C14       1.0  0.40353  0.44722  0.91254  1.0000
  C   C15       1.0  0.73705  0.94714  0.41266  1.0000
  C   C16       1.0  0.59646  0.55278  0.08746  1.0000
  C   C17       1.0  0.18367  0.15559  0.67720  1.0000
  C   C18       1.0  0.51663  0.34441  0.82272  1.0000
  C   C19       1.0  0.81633  0.84440  0.32280  1.0000
  C   C20       1.0  0.48336  0.65558  0.17728  1.0000
  C   C21       1.0  0.99647  0.02132  0.80512  1.0000
  C   C22       1.0  0.32318  0.47885  0.69484  1.0000
  C   C23       1.0  0.00353  0.97868  0.19488  1.0000
  C   C24       1.0  0.67682  0.52116  0.30516  1.0000
  C   C25       1.0  0.08156  0.92101  0.71263  1.0000
  C   C26       1.0  0.21556  0.57911  0.78738  1.0000
  C   C27       1.0  0.91844  0.07900  0.28737  1.0000
  C   C28       1.0  0.78444  0.42090  0.21262  1.0000
  N   N1        1.0  0.12500  0.71995  0.49731  1.0000
  N   N2        1.0  0.84243  0.77982  0.00284  1.0000
  N   N3        1.0  0.87500  0.28005  0.50269  1.0000
  N   N4        1.0  0.15759  0.22016  0.99715  1.0000
  N   N5        1.0  0.48541  0.71921  0.53455  1.0000
  N   N6        1.0  0.23933  0.78077  0.96521  1.0000
  N   N7        1.0  0.51459  0.28080  0.46545  1.0000
  N   N8        1.0  0.76067  0.21923  0.03479  1.0000
  N   N9        1.0  0.41813  0.97161  0.23631  1.0000
  N   N10       1.0  0.12626  0.52829  0.26374  1.0000
  N   N11       1.0  0.58188  0.02838  0.76369  1.0000
  N   N12       1.0  0.87374  0.47171  0.73627  1.0000
  N   N13       1.0  0.13676  0.98001  0.59466  1.0000
  N   N14       1.0  0.21179  0.51999  0.90532  1.0000
  N   N15       1.0  0.86324  0.01999  0.40534  1.0000
  N   N16       1.0  0.78821  0.48001  0.09468  1.0000
  N   N17       1.0  0.12838  0.09250  0.79558  1.0000
  N   N18       1.0  0.51671  0.40758  0.70435  1.0000
  N   N19       1.0  0.87163  0.90750  0.20442  1.0000
  N   N20       1.0  0.48329  0.59242  0.29565  1.0000
