data_image0
_chemical_formula_structural       Zn10H8C8N36O8
_chemical_formula_sum              "Zn10 H8 C8 N36 O8"
_cell_length_a       8.47833
_cell_length_b       9.11574
_cell_length_c       14.2527
_cell_angle_alpha    71.4933
_cell_angle_beta     72.6918
_cell_angle_gamma    62.2868

_space_group_name_H-M_alt    "P 1"
_space_group_IT_number       1

loop_
  _space_group_symop_operation_xyz
  'x, y, z'

loop_
  _atom_site_type_symbol
  _atom_site_label
  _atom_site_symmetry_multiplicity
  _atom_site_fract_x
  _atom_site_fract_y
  _atom_site_fract_z
  _atom_site_occupancy
  Zn  Zn1       1.0  0.15570  0.92132  0.63181  1.0000
  Zn  Zn2       1.0  0.70872  0.57879  0.86809  1.0000
  Zn  Zn3       1.0  0.84430  0.07868  0.36819  1.0000
  Zn  Zn4       1.0  0.29128  0.42121  0.13191  1.0000
  Zn  Zn5       1.0  0.77387  0.28298  0.52797  1.0000
  Zn  Zn6       1.0  0.58474  0.21699  0.97207  1.0000
  Zn  Zn7       1.0  0.22613  0.71702  0.47203  1.0000
  Zn  Zn8       1.0  0.41526  0.78301  0.02793  1.0000
  Zn  Zn9       1.0  0.87530  0.25004  0.74997  1.0000
  Zn  Zn10      1.0  0.12470  0.74996  0.25003  1.0000
  H   H1        1.0  0.05741  0.24830  0.57459  1.0000
  H   H2        1.0  0.88008  0.25193  0.92531  1.0000
  H   H3        1.0  0.94259  0.75170  0.42541  1.0000
  H   H4        1.0  0.11992  0.74807  0.07469  1.0000
  H   H5        1.0  0.16813  0.01439  0.43962  1.0000
  H   H6        1.0  0.62217  0.48569  0.06029  1.0000
  H   H7        1.0  0.83186  0.98562  0.56038  1.0000
  H   H8        1.0  0.37783  0.51431  0.93971  1.0000
  C   C1        1.0  0.34183  0.81465  0.81878  1.0000
  C   C2        1.0  0.97545  0.68532  0.68126  1.0000
  C   C3        1.0  0.65816  0.18535  0.18122  1.0000
  C   C4        1.0  0.02455  0.31468  0.31874  1.0000
  C   C5        1.0  0.49295  0.60122  0.72565  1.0000
  C   C6        1.0  0.81993  0.89884  0.77432  1.0000
  C   C7        1.0  0.50705  0.39878  0.27435  1.0000
  C   C8        1.0  0.18007  0.10115  0.22568  1.0000
  N   N1        1.0  0.47632  0.66006  0.80661  1.0000
  N   N2        1.0  0.94317  0.83994  0.69339  1.0000
  N   N3        1.0  0.52368  0.33995  0.19339  1.0000
  N   N4        1.0  0.05683  0.16006  0.30661  1.0000
  N   N5        1.0  0.22521  0.93130  0.75663  1.0000
  N   N6        1.0  0.91321  0.56873  0.74338  1.0000
  N   N7        1.0  0.77479  0.06871  0.24337  1.0000
  N   N8        1.0  0.08679  0.43127  0.25662  1.0000
  N   N9        1.0  0.11975  0.06157  0.80362  1.0000
  N   N10       1.0  0.98497  0.43848  0.69637  1.0000
  N   N11       1.0  0.88025  0.93843  0.19638  1.0000
  N   N12       1.0  0.01503  0.56152  0.30363  1.0000
  N   N13       1.0  0.16499  0.03130  0.88940  1.0000
  N   N14       1.0  0.08577  0.46874  0.61061  1.0000
  N   N15       1.0  0.83501  0.96870  0.11060  1.0000
  N   N16       1.0  0.91423  0.53126  0.38939  1.0000
  N   N17       1.0  0.30399  0.87752  0.90154  1.0000
  N   N18       1.0  0.08322  0.62247  0.59849  1.0000
  N   N19       1.0  0.69601  0.12248  0.09846  1.0000
  N   N20       1.0  0.91678  0.37753  0.40151  1.0000
  N   N21       1.0  0.38424  0.67812  0.65512  1.0000
  N   N22       1.0  0.71750  0.82196  0.84483  1.0000
  N   N23       1.0  0.61577  0.32188  0.34488  1.0000
  N   N24       1.0  0.28250  0.17804  0.15517  1.0000
  N   N25       1.0  0.45208  0.57952  0.58832  1.0000
  N   N26       1.0  0.61990  0.92056  0.91162  1.0000
  N   N27       1.0  0.54792  0.42048  0.41168  1.0000
  N   N28       1.0  0.38010  0.07944  0.08839  1.0000
  N   N29       1.0  0.59458  0.44689  0.61627  1.0000
  N   N30       1.0  0.65772  0.05319  0.88370  1.0000
  N   N31       1.0  0.40542  0.55311  0.38373  1.0000
  N   N32       1.0  0.34228  0.94681  0.11630  1.0000
  N   N33       1.0  0.62568  0.45357  0.70200  1.0000
  N   N34       1.0  0.78130  0.04651  0.79797  1.0000
  N   N35       1.0  0.37432  0.54643  0.29800  1.0000
  N   N36       1.0  0.21870  0.95349  0.20203  1.0000
  O   O1        1.0  0.98436  0.18296  0.60924  1.0000
  O   O2        1.0  0.77636  0.31720  0.89065  1.0000
  O   O3        1.0  0.01564  0.81704  0.39076  1.0000
  O   O4        1.0  0.22364  0.68280  0.10935  1.0000
  O   O5        1.0  0.23836  0.91620  0.48598  1.0000
  O   O6        1.0  0.64063  0.58385  0.01392  1.0000
  O   O7        1.0  0.76164  0.08380  0.51402  1.0000
  O   O8        1.0  0.35937  0.41615  0.98608  1.0000
