data_image0
_chemical_formula_structural       Li4B4H48C16O4
_chemical_formula_sum              "Li4 B4 H48 C16 O4"
_cell_length_a       4.35379
_cell_length_b       10.825
_cell_length_c       13.1798
_cell_angle_alpha    90.0001
_cell_angle_beta     100.726
_cell_angle_gamma    89.9999

_space_group_name_H-M_alt    "P 1"
_space_group_IT_number       1

loop_
  _space_group_symop_operation_xyz
  'x, y, z'

loop_
  _atom_site_type_symbol
  _atom_site_label
  _atom_site_symmetry_multiplicity
  _atom_site_fract_x
  _atom_site_fract_y
  _atom_site_fract_z
  _atom_site_occupancy
  Li  Li1       1.0  0.19671  0.54921  0.41874  1.0000
  Li  Li2       1.0  0.80329  0.04921  0.08126  1.0000
  Li  Li3       1.0  0.80329  0.45079  0.58126  1.0000
  Li  Li4       1.0  0.19671  0.95079  0.91874  1.0000
  B   B1        1.0  0.26354  0.36782  0.52775  1.0000
  B   B2        1.0  0.73646  0.86781  0.97225  1.0000
  B   B3        1.0  0.73646  0.63218  0.47225  1.0000
  B   B4        1.0  0.26354  0.13218  0.02775  1.0000
  H   H1        1.0  0.29020  0.47416  0.56227  1.0000
  H   H2        1.0  0.70980  0.97416  0.93773  1.0000
  H   H3        1.0  0.70981  0.52584  0.43773  1.0000
  H   H4        1.0  0.29019  0.02584  0.06227  1.0000
  H   H5        1.0  0.07373  0.31146  0.56781  1.0000
  H   H6        1.0  0.92627  0.81146  0.93219  1.0000
  H   H7        1.0  0.92627  0.68854  0.43219  1.0000
  H   H8        1.0  0.07373  0.18854  0.06781  1.0000
  H   H9        1.0  0.51288  0.31383  0.54960  1.0000
  H   H10       1.0  0.48711  0.81383  0.95040  1.0000
  H   H11       1.0  0.48712  0.68617  0.45040  1.0000
  H   H12       1.0  0.51288  0.18617  0.04960  1.0000
  H   H13       1.0  0.17720  0.36840  0.43383  1.0000
  H   H14       1.0  0.82279  0.86840  0.06616  1.0000
  H   H15       1.0  0.82280  0.63160  0.56617  1.0000
  H   H16       1.0  0.17721  0.13160  0.93384  1.0000
  H   H17       1.0  0.48465  0.68646  0.26034  1.0000
  H   H18       1.0  0.51534  0.18646  0.23966  1.0000
  H   H19       1.0  0.51535  0.31354  0.73966  1.0000
  H   H20       1.0  0.48465  0.81354  0.76034  1.0000
  H   H21       1.0  0.07586  0.71927  0.22123  1.0000
  H   H22       1.0  0.92414  0.21927  0.27877  1.0000
  H   H23       1.0  0.92413  0.28073  0.77877  1.0000
  H   H24       1.0  0.07586  0.78073  0.72123  1.0000
  H   H25       1.0  0.04693  0.60184  0.06250  1.0000
  H   H26       1.0  0.95308  0.10184  0.43750  1.0000
  H   H27       1.0  0.95308  0.39816  0.93750  1.0000
  H   H28       1.0  0.04692  0.89816  0.56250  1.0000
  H   H29       1.0  0.41873  0.67196  0.07170  1.0000
  H   H30       1.0  0.58127  0.17196  0.42830  1.0000
  H   H31       1.0  0.58127  0.32804  0.92830  1.0000
  H   H32       1.0  0.41873  0.82804  0.57170  1.0000
  H   H33       1.0  0.68787  0.48783  0.14468  1.0000
  H   H34       1.0  0.31213  0.98784  0.35532  1.0000
  H   H35       1.0  0.31213  0.51217  0.85532  1.0000
  H   H36       1.0  0.68787  0.01216  0.64468  1.0000
  H   H37       1.0  0.36198  0.41516  0.06673  1.0000
  H   H38       1.0  0.63802  0.91516  0.43327  1.0000
  H   H39       1.0  0.63802  0.58484  0.93327  1.0000
  H   H40       1.0  0.36198  0.08484  0.56673  1.0000
  H   H41       1.0  0.14827  0.36202  0.21362  1.0000
  H   H42       1.0  0.85174  0.86202  0.28639  1.0000
  H   H43       1.0  0.85174  0.63798  0.78639  1.0000
  H   H44       1.0  0.14826  0.13798  0.71361  1.0000
  H   H45       1.0  0.52090  0.40312  0.28825  1.0000
  H   H46       1.0  0.47910  0.90312  0.21175  1.0000
  H   H47       1.0  0.47910  0.59688  0.71175  1.0000
  H   H48       1.0  0.52090  0.09688  0.78825  1.0000
  C   C1        1.0  0.25965  0.65079  0.21827  1.0000
  C   C2        1.0  0.74035  0.15079  0.28173  1.0000
  C   C3        1.0  0.74035  0.34921  0.78173  1.0000
  C   C4        1.0  0.25964  0.84921  0.71827  1.0000
  C   C5        1.0  0.28174  0.60817  0.11021  1.0000
  C   C6        1.0  0.71827  0.10817  0.38979  1.0000
  C   C7        1.0  0.71826  0.39183  0.88979  1.0000
  C   C8        1.0  0.28174  0.89183  0.61021  1.0000
  C   C9        1.0  0.43249  0.47997  0.13065  1.0000
  C   C10       1.0  0.56751  0.97997  0.36935  1.0000
  C   C11       1.0  0.56751  0.52003  0.86935  1.0000
  C   C12       1.0  0.43249  0.02003  0.63065  1.0000
  C   C13       1.0  0.32523  0.43537  0.22895  1.0000
  C   C14       1.0  0.67478  0.93537  0.27105  1.0000
  C   C15       1.0  0.67478  0.56463  0.77105  1.0000
  C   C16       1.0  0.32522  0.06462  0.72895  1.0000
  O   O1        1.0  0.17827  0.54046  0.26993  1.0000
  O   O2        1.0  0.82174  0.04046  0.23008  1.0000
  O   O3        1.0  0.82174  0.45953  0.73008  1.0000
  O   O4        1.0  0.17826  0.95953  0.76992  1.0000
