data_image0
_chemical_formula_structural       K2As2H46C20N6
_chemical_formula_sum              "K2 As2 H46 C20 N6"
_cell_length_a       5.84651
_cell_length_b       10.444
_cell_length_c       11.3567
_cell_angle_alpha    94.4125
_cell_angle_beta     101.363
_cell_angle_gamma    97.2422

_space_group_name_H-M_alt    "P 1"
_space_group_IT_number       1

loop_
  _space_group_symop_operation_xyz
  'x, y, z'

loop_
  _atom_site_type_symbol
  _atom_site_label
  _atom_site_symmetry_multiplicity
  _atom_site_fract_x
  _atom_site_fract_y
  _atom_site_fract_z
  _atom_site_occupancy
  K   K1        1.0  0.74909  0.05249  0.91066  1.0000
  K   K2        1.0  0.25095  0.94751  0.08936  1.0000
  As  As1       1.0  0.19683  0.13236  0.76207  1.0000
  As  As2       1.0  0.80317  0.86764  0.23793  1.0000
  H   H1        1.0  0.30065  0.80123  0.78626  1.0000
  H   H2        1.0  0.69935  0.19878  0.21373  1.0000
  H   H3        1.0  0.96804  0.78994  0.90146  1.0000
  H   H4        1.0  0.03197  0.21004  0.09853  1.0000
  H   H5        1.0  0.78745  0.83636  0.77147  1.0000
  H   H6        1.0  0.21254  0.16363  0.22854  1.0000
  H   H7        1.0  0.03449  0.59462  0.77992  1.0000
  H   H8        1.0  0.96554  0.40538  0.22007  1.0000
  H   H9        1.0  0.73109  0.59603  0.77404  1.0000
  H   H10       1.0  0.26893  0.40395  0.22595  1.0000
  H   H11       1.0  0.81516  0.53649  0.56823  1.0000
  H   H12       1.0  0.18486  0.46351  0.43175  1.0000
  H   H13       1.0  0.67834  0.67754  0.57376  1.0000
  H   H14       1.0  0.32166  0.32245  0.42623  1.0000
  H   H15       1.0  0.00908  0.71546  0.46832  1.0000
  H   H16       1.0  0.99090  0.28456  0.53167  1.0000
  H   H17       1.0  0.20710  0.66956  0.59134  1.0000
  H   H18       1.0  0.79290  0.33045  0.40863  1.0000
  H   H19       1.0  0.24437  0.90960  0.59461  1.0000
  H   H20       1.0  0.75560  0.09042  0.40539  1.0000
  H   H21       1.0  0.94369  0.90608  0.59816  1.0000
  H   H22       1.0  0.05628  0.09393  0.40184  1.0000
  H   H23       1.0  0.99156  0.35864  0.80160  1.0000
  H   H24       1.0  0.00844  0.64137  0.19841  1.0000
  H   H25       1.0  0.27348  0.44784  0.86916  1.0000
  H   H26       1.0  0.72653  0.55216  0.13085  1.0000
  H   H27       1.0  0.06324  0.40898  0.95939  1.0000
  H   H28       1.0  0.93677  0.59102  0.04062  1.0000
  H   H29       1.0  0.47308  0.17120  0.02541  1.0000
  H   H30       1.0  0.52689  0.82879  0.97459  1.0000
  H   H31       1.0  0.40341  0.32209  0.07874  1.0000
  H   H32       1.0  0.59658  0.67790  0.92126  1.0000
  H   H33       1.0  0.58512  0.31770  0.97071  1.0000
  H   H34       1.0  0.41488  0.68229  0.02929  1.0000
  H   H35       1.0  0.55159  0.39418  0.79227  1.0000
  H   H36       1.0  0.44842  0.60581  0.20774  1.0000
  H   H37       1.0  0.37129  0.34903  0.64512  1.0000
  H   H38       1.0  0.62871  0.65096  0.35490  1.0000
  H   H39       1.0  0.68186  0.35782  0.66727  1.0000
  H   H40       1.0  0.31814  0.64217  0.33274  1.0000
  H   H41       1.0  0.56224  0.01373  0.64934  1.0000
  H   H42       1.0  0.43777  0.98627  0.35065  1.0000
  H   H43       1.0  0.72907  0.15070  0.60906  1.0000
  H   H44       1.0  0.27094  0.84931  0.39094  1.0000
  H   H45       1.0  0.41954  0.11430  0.54713  1.0000
  H   H46       1.0  0.58047  0.88571  0.45287  1.0000
  C   C1        1.0  0.15691  0.86191  0.76570  1.0000
  C   C2        1.0  0.84308  0.13809  0.23430  1.0000
  C   C3        1.0  0.94176  0.78685  0.80248  1.0000
  C   C4        1.0  0.05824  0.21314  0.19752  1.0000
  C   C5        1.0  0.88525  0.64593  0.74569  1.0000
  C   C6        1.0  0.11475  0.35406  0.25430  1.0000
  C   C7        1.0  0.84250  0.63819  0.60798  1.0000
  C   C8        1.0  0.15750  0.36181  0.39201  1.0000
  C   C9        1.0  0.04715  0.71624  0.56733  1.0000
  C   C10       1.0  0.95284  0.28378  0.43266  1.0000
  C   C11       1.0  0.09850  0.85648  0.62679  1.0000
  C   C12       1.0  0.90149  0.14353  0.37321  1.0000
  C   C13       1.0  0.13374  0.37142  0.88227  1.0000
  C   C14       1.0  0.86627  0.62858  0.11774  1.0000
  C   C15       1.0  0.42975  0.26523  0.99797  1.0000
  C   C16       1.0  0.57023  0.73476  0.00203  1.0000
  C   C17       1.0  0.53025  0.32943  0.70875  1.0000
  C   C18       1.0  0.46976  0.67056  0.29127  1.0000
  C   C19       1.0  0.55771  0.11519  0.63006  1.0000
  C   C20       1.0  0.44229  0.88481  0.36994  1.0000
  N   N1        1.0  0.23608  0.98844  0.83824  1.0000
  N   N2        1.0  0.76389  0.01156  0.16176  1.0000
  N   N3        1.0  0.21594  0.24785  0.90477  1.0000
  N   N4        1.0  0.78404  0.75215  0.09523  1.0000
  N   N5        1.0  0.52196  0.19438  0.73488  1.0000
  N   N6        1.0  0.47805  0.80562  0.26513  1.0000
