data_image0
_chemical_formula_structural       Cd2H44C48N16O12
_chemical_formula_sum              "Cd2 H44 C48 N16 O12"
_cell_length_a       8.14064
_cell_length_b       11.8343
_cell_length_c       13.763
_cell_angle_alpha    109.544
_cell_angle_beta     89.9994
_cell_angle_gamma    89.9997

_space_group_name_H-M_alt    "P 1"
_space_group_IT_number       1

loop_
  _space_group_symop_operation_xyz
  'x, y, z'

loop_
  _atom_site_type_symbol
  _atom_site_label
  _atom_site_symmetry_multiplicity
  _atom_site_fract_x
  _atom_site_fract_y
  _atom_site_fract_z
  _atom_site_occupancy
  Cd  Cd1       1.0  0.24077  0.25000  0.50000  1.0000
  Cd  Cd2       1.0  0.75924  0.75001  0.50000  1.0000
  H   H1        1.0  0.54499  0.16522  0.39815  1.0000
  H   H2        1.0  0.54500  0.33477  0.60183  1.0000
  H   H3        1.0  0.45501  0.83478  0.60184  1.0000
  H   H4        1.0  0.45501  0.66522  0.39816  1.0000
  H   H5        1.0  0.51872  0.30523  0.39716  1.0000
  H   H6        1.0  0.51872  0.19477  0.60283  1.0000
  H   H7        1.0  0.48128  0.69478  0.60284  1.0000
  H   H8        1.0  0.48128  0.80523  0.39717  1.0000
  H   H9        1.0  0.05034  0.65733  0.60776  1.0000
  H   H10       1.0  0.05036  0.84267  0.39224  1.0000
  H   H11       1.0  0.94966  0.34267  0.39223  1.0000
  H   H12       1.0  0.94965  0.15733  0.60776  1.0000
  H   H13       1.0  0.23384  0.72336  0.76241  1.0000
  H   H14       1.0  0.23384  0.77664  0.23758  1.0000
  H   H15       1.0  0.76617  0.27663  0.23758  1.0000
  H   H16       1.0  0.76615  0.22336  0.76241  1.0000
  H   H17       1.0  0.03321  0.07932  0.83068  1.0000
  H   H18       1.0  0.03320  0.42068  0.16932  1.0000
  H   H19       1.0  0.96680  0.92067  0.16934  1.0000
  H   H20       1.0  0.96679  0.57932  0.83067  1.0000
  H   H21       1.0  0.86284  0.99864  0.67020  1.0000
  H   H22       1.0  0.86284  0.50137  0.32982  1.0000
  H   H23       1.0  0.13716  0.00137  0.32982  1.0000
  H   H24       1.0  0.13716  0.49863  0.67019  1.0000
  H   H25       1.0  0.32048  0.87746  0.91965  1.0000
  H   H26       1.0  0.32047  0.62255  0.08035  1.0000
  H   H27       1.0  0.67954  0.12254  0.08036  1.0000
  H   H28       1.0  0.67951  0.37746  0.91964  1.0000
  H   H29       1.0  0.24211  0.27291  0.08953  1.0000
  H   H30       1.0  0.24211  0.22708  0.91046  1.0000
  H   H31       1.0  0.75790  0.72708  0.91046  1.0000
  H   H32       1.0  0.75788  0.77291  0.08953  1.0000
  H   H33       1.0  0.34696  0.35127  0.26932  1.0000
  H   H34       1.0  0.34697  0.14873  0.73067  1.0000
  H   H35       1.0  0.65305  0.64874  0.73067  1.0000
  H   H36       1.0  0.65305  0.85127  0.26933  1.0000
  H   H37       1.0  0.46963  0.99195  0.25445  1.0000
  H   H38       1.0  0.46963  0.50805  0.74554  1.0000
  H   H39       1.0  0.53035  0.00806  0.74556  1.0000
  H   H40       1.0  0.53036  0.49195  0.25446  1.0000
  H   H41       1.0  0.36323  0.91294  0.07703  1.0000
  H   H42       1.0  0.36323  0.58706  0.92297  1.0000
  H   H43       1.0  0.63675  0.08706  0.92298  1.0000
  H   H44       1.0  0.63676  0.41294  0.07703  1.0000
  C   C1        1.0  0.05288  0.75029  0.65831  1.0000
  C   C2        1.0  0.05289  0.74972  0.34168  1.0000
  C   C3        1.0  0.94712  0.24972  0.34169  1.0000
  C   C4        1.0  0.94712  0.25028  0.65831  1.0000
  C   C5        1.0  0.15291  0.78756  0.74502  1.0000
  C   C6        1.0  0.15291  0.71244  0.25498  1.0000
  C   C7        1.0  0.84710  0.21244  0.25498  1.0000
  C   C8        1.0  0.84709  0.28755  0.74502  1.0000
  C   C9        1.0  0.14577  0.90734  0.81063  1.0000
  C   C10       1.0  0.14576  0.59267  0.18937  1.0000
  C   C11       1.0  0.85424  0.09266  0.18937  1.0000
  C   C12       1.0  0.85423  0.40733  0.81063  1.0000
  C   C13       1.0  0.04175  0.98562  0.78212  1.0000
  C   C14       1.0  0.04174  0.51438  0.21788  1.0000
  C   C15       1.0  0.95826  0.01438  0.21789  1.0000
  C   C16       1.0  0.95825  0.48561  0.78212  1.0000
  C   C17       1.0  0.94765  0.94136  0.69365  1.0000
  C   C18       1.0  0.94765  0.55865  0.30636  1.0000
  C   C19       1.0  0.05235  0.05864  0.30637  1.0000
  C   C20       1.0  0.05235  0.44135  0.69364  1.0000
  C   C21       1.0  0.23859  0.94562  0.90702  1.0000
  C   C22       1.0  0.23859  0.55438  0.09298  1.0000
  C   C23       1.0  0.76142  0.05438  0.09298  1.0000
  C   C24       1.0  0.76140  0.44562  0.90702  1.0000
  C   C25       1.0  0.29542  0.08780  0.06950  1.0000
  C   C26       1.0  0.29543  0.41220  0.93050  1.0000
  C   C27       1.0  0.70457  0.91220  0.93051  1.0000
  C   C28       1.0  0.70457  0.58779  0.06949  1.0000
  C   C29       1.0  0.29402  0.21165  0.12561  1.0000
  C   C30       1.0  0.29402  0.28835  0.87438  1.0000
  C   C31       1.0  0.70598  0.78835  0.87438  1.0000
  C   C32       1.0  0.70597  0.71165  0.12562  1.0000
  C   C33       1.0  0.35507  0.25580  0.22540  1.0000
  C   C34       1.0  0.35507  0.24420  0.77459  1.0000
  C   C35       1.0  0.64493  0.74421  0.77459  1.0000
  C   C36       1.0  0.64493  0.75579  0.22541  1.0000
  C   C37       1.0  0.41831  0.17709  0.27311  1.0000
  C   C38       1.0  0.41832  0.32292  0.72689  1.0000
  C   C39       1.0  0.58169  0.82292  0.72689  1.0000
  C   C40       1.0  0.58168  0.67709  0.27311  1.0000
  C   C41       1.0  0.42274  0.05346  0.21721  1.0000
  C   C42       1.0  0.42274  0.44654  0.78279  1.0000
  C   C43       1.0  0.57725  0.94654  0.78279  1.0000
  C   C44       1.0  0.57725  0.55346  0.21721  1.0000
  C   C45       1.0  0.36234  0.00959  0.11724  1.0000
  C   C46       1.0  0.36235  0.49041  0.88275  1.0000
  C   C47       1.0  0.63765  0.99041  0.88277  1.0000
  C   C48       1.0  0.63764  0.50959  0.11724  1.0000
  N   N1        1.0  0.95014  0.82516  0.63325  1.0000
  N   N2        1.0  0.95014  0.67485  0.36676  1.0000
  N   N3        1.0  0.04987  0.17484  0.36675  1.0000
  N   N4        1.0  0.04986  0.32515  0.63325  1.0000
  N   N5        1.0  0.22062  0.05185  0.97264  1.0000
  N   N6        1.0  0.22062  0.44815  0.02735  1.0000
  N   N7        1.0  0.77938  0.94815  0.02736  1.0000
  N   N8        1.0  0.77936  0.55185  0.97264  1.0000
  N   N9        1.0  0.46636  0.22114  0.37724  1.0000
  N   N10       1.0  0.46636  0.27886  0.62276  1.0000
  N   N11       1.0  0.53364  0.77887  0.62276  1.0000
  N   N12       1.0  0.53364  0.72114  0.37724  1.0000
  N   N13       1.0  0.28712  0.52561  0.49787  1.0000
  N   N14       1.0  0.28712  0.97440  0.50213  1.0000
  N   N15       1.0  0.71288  0.47440  0.50213  1.0000
  N   N16       1.0  0.71288  0.02560  0.49786  1.0000
  O   O1        1.0  0.20278  0.43014  0.45808  1.0000
  O   O2        1.0  0.20278  0.06986  0.54192  1.0000
  O   O3        1.0  0.79722  0.56987  0.54192  1.0000
  O   O4        1.0  0.79721  0.93014  0.45807  1.0000
  O   O5        1.0  0.36544  0.54108  0.58120  1.0000
  O   O6        1.0  0.36545  0.95893  0.41880  1.0000
  O   O7        1.0  0.63457  0.45893  0.41880  1.0000
  O   O8        1.0  0.63457  0.04107  0.58120  1.0000
  O   O9        1.0  0.28814  0.60340  0.45445  1.0000
  O   O10       1.0  0.28814  0.89660  0.54555  1.0000
  O   O11       1.0  0.71185  0.39661  0.54555  1.0000
  O   O12       1.0  0.71185  0.10340  0.45445  1.0000
