data_image0
_chemical_formula_structural       Zn2H44C48N16O12
_chemical_formula_sum              "Zn2 H44 C48 N16 O12"
_cell_length_a       8.17559
_cell_length_b       11.609
_cell_length_c       13.5927
_cell_angle_alpha    110.279
_cell_angle_beta     90
_cell_angle_gamma    90

_space_group_name_H-M_alt    "P 1"
_space_group_IT_number       1

loop_
  _space_group_symop_operation_xyz
  'x, y, z'

loop_
  _atom_site_type_symbol
  _atom_site_label
  _atom_site_symmetry_multiplicity
  _atom_site_fract_x
  _atom_site_fract_y
  _atom_site_fract_z
  _atom_site_occupancy
  Zn  Zn1       1.0  0.23071  0.25000  0.50000  1.0000
  Zn  Zn2       1.0  0.76929  0.75000  0.50000  1.0000
  H   H1        1.0  0.51765  0.15513  0.40371  1.0000
  H   H2        1.0  0.51765  0.34487  0.59629  1.0000
  H   H3        1.0  0.48235  0.84487  0.59629  1.0000
  H   H4        1.0  0.48234  0.65513  0.40371  1.0000
  H   H5        1.0  0.49648  0.29863  0.40589  1.0000
  H   H6        1.0  0.49648  0.20137  0.59411  1.0000
  H   H7        1.0  0.50352  0.70137  0.59411  1.0000
  H   H8        1.0  0.50352  0.79863  0.40589  1.0000
  H   H9        1.0  0.05351  0.64997  0.58860  1.0000
  H   H10       1.0  0.05351  0.85003  0.41140  1.0000
  H   H11       1.0  0.94649  0.35003  0.41140  1.0000
  H   H12       1.0  0.94649  0.14997  0.58860  1.0000
  H   H13       1.0  0.23918  0.71712  0.74443  1.0000
  H   H14       1.0  0.23918  0.78289  0.25557  1.0000
  H   H15       1.0  0.76082  0.28289  0.25558  1.0000
  H   H16       1.0  0.76082  0.21712  0.74442  1.0000
  H   H17       1.0  0.02271  0.07756  0.82788  1.0000
  H   H18       1.0  0.02271  0.42244  0.17212  1.0000
  H   H19       1.0  0.97728  0.92245  0.17212  1.0000
  H   H20       1.0  0.97729  0.57755  0.82788  1.0000
  H   H21       1.0  0.85242  0.99605  0.66497  1.0000
  H   H22       1.0  0.85242  0.50394  0.33502  1.0000
  H   H23       1.0  0.14757  0.00395  0.33503  1.0000
  H   H24       1.0  0.14758  0.49605  0.66497  1.0000
  H   H25       1.0  0.32165  0.87193  0.90818  1.0000
  H   H26       1.0  0.32165  0.62807  0.09181  1.0000
  H   H27       1.0  0.67836  0.12807  0.09182  1.0000
  H   H28       1.0  0.67835  0.37193  0.90818  1.0000
  H   H29       1.0  0.23223  0.27334  0.09220  1.0000
  H   H30       1.0  0.23223  0.22666  0.90781  1.0000
  H   H31       1.0  0.76777  0.72667  0.90781  1.0000
  H   H32       1.0  0.76777  0.77334  0.09220  1.0000
  H   H33       1.0  0.32732  0.35038  0.27741  1.0000
  H   H34       1.0  0.32732  0.14962  0.72259  1.0000
  H   H35       1.0  0.67268  0.64962  0.72259  1.0000
  H   H36       1.0  0.67268  0.85038  0.27742  1.0000
  H   H37       1.0  0.46011  0.98202  0.25181  1.0000
  H   H38       1.0  0.46011  0.51798  0.74819  1.0000
  H   H39       1.0  0.53989  0.01798  0.74819  1.0000
  H   H40       1.0  0.53989  0.48202  0.25181  1.0000
  H   H41       1.0  0.36323  0.90429  0.06875  1.0000
  H   H42       1.0  0.36323  0.59571  0.93125  1.0000
  H   H43       1.0  0.63677  0.09571  0.93125  1.0000
  H   H44       1.0  0.63677  0.40429  0.06875  1.0000
  C   C1        1.0  0.05358  0.74428  0.64265  1.0000
  C   C2        1.0  0.05358  0.75572  0.35735  1.0000
  C   C3        1.0  0.94643  0.25572  0.35735  1.0000
  C   C4        1.0  0.94642  0.24428  0.64264  1.0000
  C   C5        1.0  0.15429  0.78216  0.73033  1.0000
  C   C6        1.0  0.15429  0.71784  0.26967  1.0000
  C   C7        1.0  0.84571  0.21784  0.26968  1.0000
  C   C8        1.0  0.84571  0.28216  0.73032  1.0000
  C   C9        1.0  0.14339  0.90327  0.80070  1.0000
  C   C10       1.0  0.14340  0.59673  0.19930  1.0000
  C   C11       1.0  0.85661  0.09673  0.19930  1.0000
  C   C12       1.0  0.85661  0.40327  0.80070  1.0000
  C   C13       1.0  0.03468  0.98268  0.77569  1.0000
  C   C14       1.0  0.03468  0.51732  0.22431  1.0000
  C   C15       1.0  0.96532  0.01732  0.22431  1.0000
  C   C16       1.0  0.96532  0.48268  0.77569  1.0000
  C   C17       1.0  0.94046  0.93804  0.68586  1.0000
  C   C18       1.0  0.94046  0.56196  0.31414  1.0000
  C   C19       1.0  0.05954  0.06196  0.31414  1.0000
  C   C20       1.0  0.05954  0.43804  0.68585  1.0000
  C   C21       1.0  0.23705  0.94128  0.89828  1.0000
  C   C22       1.0  0.23706  0.55872  0.10172  1.0000
  C   C23       1.0  0.76294  0.05872  0.10172  1.0000
  C   C24       1.0  0.76295  0.44128  0.89828  1.0000
  C   C25       1.0  0.28956  0.08373  0.06689  1.0000
  C   C26       1.0  0.28956  0.41627  0.93311  1.0000
  C   C27       1.0  0.71043  0.91627  0.93311  1.0000
  C   C28       1.0  0.71044  0.58373  0.06689  1.0000
  C   C29       1.0  0.28374  0.20987  0.12734  1.0000
  C   C30       1.0  0.28374  0.29013  0.87266  1.0000
  C   C31       1.0  0.71625  0.79013  0.87266  1.0000
  C   C32       1.0  0.71626  0.70987  0.12734  1.0000
  C   C33       1.0  0.33900  0.25326  0.23026  1.0000
  C   C34       1.0  0.33900  0.24674  0.76974  1.0000
  C   C35       1.0  0.66100  0.74674  0.76974  1.0000
  C   C36       1.0  0.66100  0.75326  0.23026  1.0000
  C   C37       1.0  0.40038  0.17120  0.27661  1.0000
  C   C38       1.0  0.40037  0.32880  0.72339  1.0000
  C   C39       1.0  0.59962  0.82880  0.72339  1.0000
  C   C40       1.0  0.59962  0.67120  0.27661  1.0000
  C   C41       1.0  0.41234  0.04573  0.21590  1.0000
  C   C42       1.0  0.41234  0.45427  0.78411  1.0000
  C   C43       1.0  0.58766  0.95427  0.78410  1.0000
  C   C44       1.0  0.58766  0.54573  0.21589  1.0000
  C   C45       1.0  0.35758  0.00264  0.11278  1.0000
  C   C46       1.0  0.35758  0.49736  0.88722  1.0000
  C   C47       1.0  0.64242  0.99736  0.88721  1.0000
  C   C48       1.0  0.64242  0.50264  0.11278  1.0000
  N   N1        1.0  0.94632  0.81998  0.62087  1.0000
  N   N2        1.0  0.94632  0.68002  0.37913  1.0000
  N   N3        1.0  0.05368  0.18002  0.37913  1.0000
  N   N4        1.0  0.05368  0.31998  0.62087  1.0000
  N   N5        1.0  0.21629  0.04846  0.96804  1.0000
  N   N6        1.0  0.21629  0.45154  0.03196  1.0000
  N   N7        1.0  0.78371  0.95154  0.03196  1.0000
  N   N8        1.0  0.78371  0.54846  0.96804  1.0000
  N   N9        1.0  0.43965  0.21401  0.38464  1.0000
  N   N10       1.0  0.43965  0.28599  0.61537  1.0000
  N   N11       1.0  0.56035  0.78599  0.61537  1.0000
  N   N12       1.0  0.56035  0.71401  0.38463  1.0000
  N   N13       1.0  0.29622  0.52216  0.49598  1.0000
  N   N14       1.0  0.29622  0.97784  0.50402  1.0000
  N   N15       1.0  0.70378  0.47784  0.50403  1.0000
  N   N16       1.0  0.70378  0.02216  0.49597  1.0000
  O   O1        1.0  0.20691  0.42573  0.46959  1.0000
  O   O2        1.0  0.20691  0.07427  0.53041  1.0000
  O   O3        1.0  0.79310  0.57427  0.53041  1.0000
  O   O4        1.0  0.79309  0.92573  0.46958  1.0000
  O   O5        1.0  0.37515  0.55403  0.58148  1.0000
  O   O6        1.0  0.37515  0.94597  0.41852  1.0000
  O   O7        1.0  0.62485  0.44598  0.41852  1.0000
  O   O8        1.0  0.62485  0.05402  0.58148  1.0000
  O   O9        1.0  0.30059  0.58429  0.43668  1.0000
  O   O10       1.0  0.30059  0.91571  0.56332  1.0000
  O   O11       1.0  0.69941  0.41571  0.56332  1.0000
  O   O12       1.0  0.69941  0.08429  0.43668  1.0000
