data_image0
_chemical_formula_structural       Cd8H40C32O52
_chemical_formula_sum              "Cd8 H40 C32 O52"
_cell_length_a       7.58378
_cell_length_b       11.0086
_cell_length_c       18.0435
_cell_angle_alpha    89.9998
_cell_angle_beta     90.0001
_cell_angle_gamma    89.9997

_space_group_name_H-M_alt    "P 1"
_space_group_IT_number       1

loop_
  _space_group_symop_operation_xyz
  'x, y, z'

loop_
  _atom_site_type_symbol
  _atom_site_label
  _atom_site_symmetry_multiplicity
  _atom_site_fract_x
  _atom_site_fract_y
  _atom_site_fract_z
  _atom_site_occupancy
  Cd  Cd1       1.0  0.65736  0.23443  0.37957  1.0000
  Cd  Cd2       1.0  0.84263  0.76558  0.87957  1.0000
  Cd  Cd3       1.0  0.15737  0.26558  0.62043  1.0000
  Cd  Cd4       1.0  0.34263  0.73442  0.12043  1.0000
  Cd  Cd5       1.0  0.73814  0.74420  0.37988  1.0000
  Cd  Cd6       1.0  0.76186  0.25579  0.87988  1.0000
  Cd  Cd7       1.0  0.23814  0.75580  0.62012  1.0000
  Cd  Cd8       1.0  0.26186  0.24421  0.12012  1.0000
  H   H1        1.0  0.44760  0.36675  0.46646  1.0000
  H   H2        1.0  0.05240  0.63325  0.96646  1.0000
  H   H3        1.0  0.94760  0.13325  0.53354  1.0000
  H   H4        1.0  0.55240  0.86674  0.03354  1.0000
  H   H5        1.0  0.93453  0.64491  0.48588  1.0000
  H   H6        1.0  0.56546  0.35509  0.98588  1.0000
  H   H7        1.0  0.43453  0.85509  0.51411  1.0000
  H   H8        1.0  0.06546  0.14491  0.01412  1.0000
  H   H9        1.0  0.62932  0.50096  0.35603  1.0000
  H   H10       1.0  0.87069  0.49904  0.85603  1.0000
  H   H11       1.0  0.12932  0.99904  0.64397  1.0000
  H   H12       1.0  0.37068  0.00096  0.14397  1.0000
  H   H13       1.0  0.92694  0.29822  0.27163  1.0000
  H   H14       1.0  0.57306  0.70177  0.77164  1.0000
  H   H15       1.0  0.42695  0.20178  0.72837  1.0000
  H   H16       1.0  0.07305  0.79823  0.22837  1.0000
  H   H17       1.0  0.65171  0.99112  0.32925  1.0000
  H   H18       1.0  0.84830  0.00888  0.82925  1.0000
  H   H19       1.0  0.15171  0.50888  0.67076  1.0000
  H   H20       1.0  0.34830  0.49112  0.17075  1.0000
  H   H21       1.0  0.84209  0.05867  0.31534  1.0000
  H   H22       1.0  0.65791  0.94134  0.81534  1.0000
  H   H23       1.0  0.34210  0.44133  0.68466  1.0000
  H   H24       1.0  0.15791  0.55867  0.18466  1.0000
  H   H25       1.0  0.57115  0.41506  0.56490  1.0000
  H   H26       1.0  0.92885  0.58494  0.06490  1.0000
  H   H27       1.0  0.07113  0.08494  0.43509  1.0000
  H   H28       1.0  0.42885  0.91506  0.93510  1.0000
  H   H29       1.0  0.79190  0.56713  0.57592  1.0000
  H   H30       1.0  0.70809  0.43287  0.07592  1.0000
  H   H31       1.0  0.29190  0.93288  0.42408  1.0000
  H   H32       1.0  0.20809  0.06712  0.92408  1.0000
  H   H33       1.0  0.61750  0.57605  0.20792  1.0000
  H   H34       1.0  0.88251  0.42395  0.70793  1.0000
  H   H35       1.0  0.11751  0.92395  0.79208  1.0000
  H   H36       1.0  0.38249  0.07605  0.29208  1.0000
  H   H37       1.0  0.81002  0.40041  0.18513  1.0000
  H   H38       1.0  0.69000  0.59959  0.68513  1.0000
  H   H39       1.0  0.31002  0.09959  0.81487  1.0000
  H   H40       1.0  0.18998  0.90042  0.31487  1.0000
  C   C1        1.0  0.80810  0.33955  0.52668  1.0000
  C   C2        1.0  0.69191  0.66045  0.02668  1.0000
  C   C3        1.0  0.30808  0.16045  0.47332  1.0000
  C   C4        1.0  0.19191  0.83955  0.97332  1.0000
  C   C5        1.0  0.65663  0.43040  0.51650  1.0000
  C   C6        1.0  0.84337  0.56960  0.01650  1.0000
  C   C7        1.0  0.15662  0.06960  0.48350  1.0000
  C   C8        1.0  0.34337  0.93040  0.98350  1.0000
  C   C9        1.0  0.72109  0.56118  0.52273  1.0000
  C   C10       1.0  0.77891  0.43881  0.02273  1.0000
  C   C11       1.0  0.22109  0.93882  0.47727  1.0000
  C   C12       1.0  0.27891  0.06118  0.97727  1.0000
  C   C13       1.0  0.56606  0.65117  0.52891  1.0000
  C   C14       1.0  0.93394  0.34883  0.02891  1.0000
  C   C15       1.0  0.06606  0.84883  0.47109  1.0000
  C   C16       1.0  0.43393  0.15117  0.97109  1.0000
  C   C17       1.0  0.87508  0.61847  0.23781  1.0000
  C   C18       1.0  0.62492  0.38153  0.73781  1.0000
  C   C19       1.0  0.37509  0.88152  0.76219  1.0000
  C   C20       1.0  0.12492  0.11848  0.26219  1.0000
  C   C21       1.0  0.70694  0.54354  0.25164  1.0000
  C   C22       1.0  0.79307  0.45647  0.75164  1.0000
  C   C23       1.0  0.20694  0.95646  0.74836  1.0000
  C   C24       1.0  0.29306  0.04354  0.24836  1.0000
  C   C25       1.0  0.73616  0.40754  0.23722  1.0000
  C   C26       1.0  0.76385  0.59246  0.73722  1.0000
  C   C27       1.0  0.23617  0.09246  0.76278  1.0000
  C   C28       1.0  0.26383  0.90754  0.26278  1.0000
  C   C29       1.0  0.55447  0.34750  0.22733  1.0000
  C   C30       1.0  0.94554  0.65250  0.72733  1.0000
  C   C31       1.0  0.05448  0.15250  0.77267  1.0000
  C   C32       1.0  0.44552  0.84750  0.27267  1.0000
  O   O1        1.0  0.81565  0.24275  0.48706  1.0000
  O   O2        1.0  0.68435  0.75725  0.98706  1.0000
  O   O3        1.0  0.31564  0.25725  0.51295  1.0000
  O   O4        1.0  0.18435  0.74275  0.01295  1.0000
  O   O5        1.0  0.91240  0.36405  0.57875  1.0000
  O   O6        1.0  0.58760  0.63595  0.07875  1.0000
  O   O7        1.0  0.41238  0.13596  0.42124  1.0000
  O   O8        1.0  0.08760  0.86405  0.92125  1.0000
  O   O9        1.0  0.55592  0.41099  0.44980  1.0000
  O   O10       1.0  0.94408  0.58901  0.94980  1.0000
  O   O11       1.0  0.05592  0.08901  0.55020  1.0000
  O   O12       1.0  0.44408  0.91099  0.05020  1.0000
  O   O13       1.0  0.84153  0.58965  0.46437  1.0000
  O   O14       1.0  0.65847  0.41035  0.96437  1.0000
  O   O15       1.0  0.34153  0.91035  0.53562  1.0000
  O   O16       1.0  0.15846  0.08965  0.03563  1.0000
  O   O17       1.0  0.56395  0.74428  0.48664  1.0000
  O   O18       1.0  0.93605  0.25572  0.98664  1.0000
  O   O19       1.0  0.06394  0.75573  0.51336  1.0000
  O   O20       1.0  0.43605  0.24428  0.01336  1.0000
  O   O21       1.0  0.45430  0.62836  0.57900  1.0000
  O   O22       1.0  0.04569  0.37165  0.07900  1.0000
  O   O23       1.0  0.95431  0.87164  0.42099  1.0000
  O   O24       1.0  0.54569  0.12836  0.92099  1.0000
  O   O25       1.0  0.91874  0.70579  0.28096  1.0000
  O   O26       1.0  0.58125  0.29421  0.78096  1.0000
  O   O27       1.0  0.41875  0.79420  0.71904  1.0000
  O   O28       1.0  0.08126  0.20580  0.21904  1.0000
  O   O29       1.0  0.95582  0.59211  0.17911  1.0000
  O   O30       1.0  0.54419  0.40790  0.67911  1.0000
  O   O31       1.0  0.45582  0.90788  0.82089  1.0000
  O   O32       1.0  0.04419  0.09213  0.32090  1.0000
  O   O33       1.0  0.62115  0.56867  0.32078  1.0000
  O   O34       1.0  0.87885  0.43133  0.82078  1.0000
  O   O35       1.0  0.12115  0.93133  0.67922  1.0000
  O   O36       1.0  0.37885  0.06867  0.17922  1.0000
  O   O37       1.0  0.83731  0.35248  0.29561  1.0000
  O   O38       1.0  0.66269  0.64752  0.79561  1.0000
  O   O39       1.0  0.33732  0.14752  0.70440  1.0000
  O   O40       1.0  0.16268  0.85248  0.20440  1.0000
  O   O41       1.0  0.48301  0.29242  0.28021  1.0000
  O   O42       1.0  0.01700  0.70758  0.78021  1.0000
  O   O43       1.0  0.98301  0.20757  0.71979  1.0000
  O   O44       1.0  0.51698  0.79242  0.21979  1.0000
  O   O45       1.0  0.48399  0.36445  0.16321  1.0000
  O   O46       1.0  0.01602  0.63555  0.66322  1.0000
  O   O47       1.0  0.98399  0.13555  0.83679  1.0000
  O   O48       1.0  0.51600  0.86445  0.33679  1.0000
  O   O49       1.0  0.71042  0.06706  0.31379  1.0000
  O   O50       1.0  0.78958  0.93294  0.81379  1.0000
  O   O51       1.0  0.21042  0.43293  0.68622  1.0000
  O   O52       1.0  0.28958  0.56706  0.18622  1.0000
