data_image0
_chemical_formula_structural       Co2H20C24Br4N4O12
_chemical_formula_sum              "Co2 H20 C24 Br4 N4 O12"
_cell_length_a       7.03927
_cell_length_b       9.88947
_cell_length_c       10.2728
_cell_angle_alpha    90.0002
_cell_angle_beta     97.332
_cell_angle_gamma    89.9991

_space_group_name_H-M_alt    "P 1"
_space_group_IT_number       1

loop_
  _space_group_symop_operation_xyz
  'x, y, z'

loop_
  _atom_site_type_symbol
  _atom_site_label
  _atom_site_symmetry_multiplicity
  _atom_site_fract_x
  _atom_site_fract_y
  _atom_site_fract_z
  _atom_site_occupancy
  Co  Co1       1.0  1.00000  1.00000  0.50000  1.0000
  Co  Co2       1.0  0.50000  0.50000  0.50000  1.0000
  H   H1        1.0  0.78725  0.87799  0.66549  1.0000
  H   H2        1.0  0.71274  0.37799  0.33451  1.0000
  H   H3        1.0  0.21274  0.12201  0.33451  1.0000
  H   H4        1.0  0.28726  0.62201  0.66549  1.0000
  H   H5        1.0  0.96332  0.77335  0.65727  1.0000
  H   H6        1.0  0.53668  0.27335  0.34274  1.0000
  H   H7        1.0  0.03668  0.22665  0.34273  1.0000
  H   H8        1.0  0.46332  0.72665  0.65726  1.0000
  H   H9        1.0  0.89709  0.55610  0.10554  1.0000
  H   H10       1.0  0.60291  0.05610  0.89446  1.0000
  H   H11       1.0  0.10292  0.44390  0.89446  1.0000
  H   H12       1.0  0.39709  0.94391  0.10554  1.0000
  H   H13       1.0  0.90691  0.98163  0.20517  1.0000
  H   H14       1.0  0.59309  0.48163  0.79483  1.0000
  H   H15       1.0  0.09309  0.01837  0.79483  1.0000
  H   H16       1.0  0.40691  0.51837  0.20517  1.0000
  H   H17       1.0  0.12676  0.70581  0.48793  1.0000
  H   H18       1.0  0.37323  0.20581  0.51207  1.0000
  H   H19       1.0  0.87323  0.29419  0.51207  1.0000
  H   H20       1.0  0.62677  0.79419  0.48793  1.0000
  C   C1        1.0  0.06517  0.47043  0.34760  1.0000
  C   C2        1.0  0.43482  0.97043  0.65241  1.0000
  C   C3        1.0  0.93483  0.52958  0.65241  1.0000
  C   C4        1.0  0.56518  0.02957  0.34759  1.0000
  C   C5        1.0  0.01911  0.61273  0.30218  1.0000
  C   C6        1.0  0.48089  0.11273  0.69782  1.0000
  C   C7        1.0  0.98089  0.38727  0.69782  1.0000
  C   C8        1.0  0.51911  0.88727  0.30217  1.0000
  C   C9        1.0  0.93267  0.63871  0.17444  1.0000
  C   C10       1.0  0.56733  0.13871  0.82556  1.0000
  C   C11       1.0  0.06733  0.36129  0.82556  1.0000
  C   C12       1.0  0.43267  0.86129  0.17444  1.0000
  C   C13       1.0  0.89740  0.77285  0.13764  1.0000
  C   C14       1.0  0.60260  0.27285  0.86236  1.0000
  C   C15       1.0  0.10260  0.22715  0.86236  1.0000
  C   C16       1.0  0.39740  0.72715  0.13764  1.0000
  C   C17       1.0  0.93645  0.87589  0.22954  1.0000
  C   C18       1.0  0.56355  0.37589  0.77046  1.0000
  C   C19       1.0  0.06355  0.12411  0.77046  1.0000
  C   C20       1.0  0.43645  0.62411  0.22954  1.0000
  C   C21       1.0  0.05856  0.72154  0.38822  1.0000
  C   C22       1.0  0.44144  0.22154  0.61178  1.0000
  C   C23       1.0  0.94144  0.27846  0.61178  1.0000
  C   C24       1.0  0.55857  0.77846  0.38822  1.0000
  Br  Br1       1.0  0.78995  0.81679  0.96407  1.0000
  Br  Br2       1.0  0.71005  0.31679  0.03593  1.0000
  Br  Br3       1.0  0.21005  0.18321  0.03593  1.0000
  Br  Br4       1.0  0.28996  0.68321  0.96407  1.0000
  N   N1        1.0  0.01188  0.84938  0.35404  1.0000
  N   N2        1.0  0.48812  0.34937  0.64596  1.0000
  N   N3        1.0  0.98811  0.15063  0.64596  1.0000
  N   N4        1.0  0.51188  0.65063  0.35404  1.0000
  O   O1        1.0  0.94915  0.37765  0.30038  1.0000
  O   O2        1.0  0.55083  0.87764  0.69962  1.0000
  O   O3        1.0  0.05085  0.62235  0.69962  1.0000
  O   O4        1.0  0.44916  0.12236  0.30038  1.0000
  O   O5        1.0  0.21126  0.44750  0.42985  1.0000
  O   O6        1.0  0.28873  0.94751  0.57015  1.0000
  O   O7        1.0  0.78874  0.55250  0.57015  1.0000
  O   O8        1.0  0.71127  0.05249  0.42985  1.0000
  O   O9        1.0  0.91553  0.86802  0.63609  1.0000
  O   O10       1.0  0.58447  0.36801  0.36391  1.0000
  O   O11       1.0  0.08447  0.13198  0.36391  1.0000
  O   O12       1.0  0.41553  0.63199  0.63609  1.0000
