data_image0
_chemical_formula_structural       Zn4H24C48Br8N8O16
_chemical_formula_sum              "Zn4 H24 C48 Br8 N8 O16"
_cell_length_a       7.7947
_cell_length_b       7.7542
_cell_length_c       26.3197
_cell_angle_alpha    89.9996
_cell_angle_beta     97.2924
_cell_angle_gamma    90.0005

_space_group_name_H-M_alt    "P 1"
_space_group_IT_number       1

loop_
  _space_group_symop_operation_xyz
  'x, y, z'

loop_
  _atom_site_type_symbol
  _atom_site_label
  _atom_site_symmetry_multiplicity
  _atom_site_fract_x
  _atom_site_fract_y
  _atom_site_fract_z
  _atom_site_occupancy
  Zn  Zn1       1.0  0.88325  0.11960  0.90306  1.0000
  Zn  Zn2       1.0  0.11675  0.11959  0.59694  1.0000
  Zn  Zn3       1.0  0.11675  0.88040  0.09694  1.0000
  Zn  Zn4       1.0  0.88324  0.88040  0.40306  1.0000
  H   H1        1.0  0.88670  0.50657  0.91580  1.0000
  H   H2        1.0  0.11331  0.50656  0.58420  1.0000
  H   H3        1.0  0.11331  0.49343  0.08420  1.0000
  H   H4        1.0  0.88669  0.49343  0.41580  1.0000
  H   H5        1.0  0.78793  0.18081  0.79040  1.0000
  H   H6        1.0  0.21206  0.18081  0.70960  1.0000
  H   H7        1.0  0.21207  0.81919  0.20960  1.0000
  H   H8        1.0  0.78793  0.81919  0.29040  1.0000
  H   H9        1.0  0.75254  0.73491  0.76691  1.0000
  H   H10       1.0  0.24745  0.73491  0.73309  1.0000
  H   H11       1.0  0.24746  0.26509  0.23309  1.0000
  H   H12       1.0  0.75255  0.26510  0.26691  1.0000
  H   H13       1.0  0.50114  0.10624  0.88859  1.0000
  H   H14       1.0  0.49886  0.10625  0.61141  1.0000
  H   H15       1.0  0.49886  0.89375  0.11141  1.0000
  H   H16       1.0  0.50114  0.89375  0.38859  1.0000
  H   H17       1.0  0.86411  0.23233  0.01341  1.0000
  H   H18       1.0  0.13590  0.23233  0.48659  1.0000
  H   H19       1.0  0.13589  0.76767  0.98659  1.0000
  H   H20       1.0  0.86411  0.76767  0.51341  1.0000
  H   H21       1.0  0.31512  0.26871  0.02795  1.0000
  H   H22       1.0  0.68488  0.26872  0.47204  1.0000
  H   H23       1.0  0.68488  0.73129  0.97204  1.0000
  H   H24       1.0  0.31512  0.73129  0.52796  1.0000
  C   C1        1.0  0.83635  0.81509  0.86922  1.0000
  C   C2        1.0  0.16364  0.81509  0.63078  1.0000
  C   C3        1.0  0.16365  0.18490  0.13079  1.0000
  C   C4        1.0  0.83635  0.18491  0.36921  1.0000
  C   C5        1.0  0.81985  0.64136  0.84421  1.0000
  C   C6        1.0  0.18014  0.64136  0.65579  1.0000
  C   C7        1.0  0.18015  0.35864  0.15579  1.0000
  C   C8        1.0  0.81985  0.35864  0.34421  1.0000
  C   C9        1.0  0.85009  0.49440  0.87460  1.0000
  C   C10       1.0  0.14991  0.49439  0.62539  1.0000
  C   C11       1.0  0.14991  0.50560  0.12540  1.0000
  C   C12       1.0  0.85009  0.50561  0.37460  1.0000
  C   C13       1.0  0.79615  0.31331  0.80422  1.0000
  C   C14       1.0  0.20385  0.31331  0.69578  1.0000
  C   C15       1.0  0.20385  0.68668  0.19578  1.0000
  C   C16       1.0  0.79615  0.68669  0.30422  1.0000
  C   C17       1.0  0.76634  0.45459  0.77155  1.0000
  C   C18       1.0  0.23366  0.45459  0.72845  1.0000
  C   C19       1.0  0.23367  0.54541  0.22845  1.0000
  C   C20       1.0  0.76634  0.54541  0.27155  1.0000
  C   C21       1.0  0.77648  0.62160  0.79126  1.0000
  C   C22       1.0  0.22352  0.62159  0.70874  1.0000
  C   C23       1.0  0.22353  0.37840  0.20875  1.0000
  C   C24       1.0  0.77648  0.37841  0.29126  1.0000
  C   C25       1.0  0.20651  0.16252  0.92966  1.0000
  C   C26       1.0  0.79349  0.16253  0.57033  1.0000
  C   C27       1.0  0.79349  0.83747  0.07033  1.0000
  C   C28       1.0  0.20651  0.83747  0.42967  1.0000
  C   C29       1.0  0.38758  0.18830  0.95518  1.0000
  C   C30       1.0  0.61242  0.18831  0.54482  1.0000
  C   C31       1.0  0.61242  0.81170  0.04482  1.0000
  C   C32       1.0  0.38758  0.81170  0.45518  1.0000
  C   C33       1.0  0.52560  0.15204  0.92803  1.0000
  C   C34       1.0  0.47440  0.15205  0.57197  1.0000
  C   C35       1.0  0.47440  0.84795  0.07197  1.0000
  C   C36       1.0  0.52560  0.84796  0.42803  1.0000
  C   C37       1.0  0.72770  0.22297  0.99790  1.0000
  C   C38       1.0  0.27230  0.22297  0.50210  1.0000
  C   C39       1.0  0.27230  0.77703  0.00210  1.0000
  C   C40       1.0  0.72770  0.77703  0.49790  1.0000
  C   C41       1.0  0.59471  0.26164  0.02693  1.0000
  C   C42       1.0  0.40530  0.26164  0.47307  1.0000
  C   C43       1.0  0.40529  0.73837  0.97307  1.0000
  C   C44       1.0  0.59471  0.73836  0.52693  1.0000
  C   C45       1.0  0.42214  0.24408  0.00592  1.0000
  C   C46       1.0  0.57785  0.24409  0.49407  1.0000
  C   C47       1.0  0.57785  0.75592  0.99408  1.0000
  C   C48       1.0  0.42215  0.75592  0.50593  1.0000
  Br  Br1       1.0  0.71490  0.40833  0.70051  1.0000
  Br  Br2       1.0  0.28509  0.40833  0.79949  1.0000
  Br  Br3       1.0  0.28510  0.59168  0.29949  1.0000
  Br  Br4       1.0  0.71490  0.59167  0.20051  1.0000
  Br  Br5       1.0  0.65001  0.33689  0.09556  1.0000
  Br  Br6       1.0  0.34999  0.33689  0.40444  1.0000
  Br  Br7       1.0  0.34999  0.66311  0.90445  1.0000
  Br  Br8       1.0  0.65001  0.66311  0.59556  1.0000
  N   N1        1.0  0.83671  0.33469  0.85495  1.0000
  N   N2        1.0  0.16329  0.33468  0.64505  1.0000
  N   N3        1.0  0.16329  0.66531  0.14505  1.0000
  N   N4        1.0  0.83671  0.66531  0.35495  1.0000
  N   N5        1.0  0.69087  0.16915  0.94899  1.0000
  N   N6        1.0  0.30914  0.16915  0.55102  1.0000
  N   N7        1.0  0.30913  0.83084  0.05101  1.0000
  N   N8        1.0  0.69086  0.83085  0.44899  1.0000
  O   O1        1.0  0.89288  0.82506  0.91644  1.0000
  O   O2        1.0  0.10712  0.82506  0.58356  1.0000
  O   O3        1.0  0.10713  0.17494  0.08357  1.0000
  O   O4        1.0  0.89287  0.17494  0.41643  1.0000
  O   O5        1.0  0.79341  0.94871  0.84193  1.0000
  O   O6        1.0  0.20658  0.94871  0.65808  1.0000
  O   O7        1.0  0.20659  0.05129  0.15808  1.0000
  O   O8        1.0  0.79341  0.05129  0.34192  1.0000
  O   O9        1.0  0.08292  0.20052  0.95589  1.0000
  O   O10       1.0  0.91708  0.20052  0.54411  1.0000
  O   O11       1.0  0.91708  0.79948  0.04411  1.0000
  O   O12       1.0  0.08291  0.79948  0.45589  1.0000
  O   O13       1.0  0.18183  0.10393  0.88475  1.0000
  O   O14       1.0  0.81817  0.10394  0.61525  1.0000
  O   O15       1.0  0.81817  0.89606  0.11525  1.0000
  O   O16       1.0  0.18183  0.89606  0.38475  1.0000
