data_image0
_chemical_formula_structural       Cu4P4H24C16N4O14
_chemical_formula_sum              "Cu4 P4 H24 C16 N4 O14"
_cell_length_a       5.41822
_cell_length_b       9.20582
_cell_length_c       13.1424
_cell_angle_alpha    99.2873
_cell_angle_beta     91.1403
_cell_angle_gamma    98.8223

_space_group_name_H-M_alt    "P 1"
_space_group_IT_number       1

loop_
  _space_group_symop_operation_xyz
  'x, y, z'

loop_
  _atom_site_type_symbol
  _atom_site_label
  _atom_site_symmetry_multiplicity
  _atom_site_fract_x
  _atom_site_fract_y
  _atom_site_fract_z
  _atom_site_occupancy
  Cu  Cu1       1.0  0.28133  0.03610  0.54346  1.0000
  Cu  Cu2       1.0  0.71866  0.96389  0.45654  1.0000
  Cu  Cu3       1.0  0.86650  0.74870  0.14607  1.0000
  Cu  Cu4       1.0  0.13347  0.25130  0.85393  1.0000
  P   P1        1.0  0.74127  0.13042  0.67859  1.0000
  P   P2        1.0  0.25870  0.86958  0.32140  1.0000
  P   P3        1.0  0.52223  0.80655  0.63678  1.0000
  P   P4        1.0  0.47778  0.19345  0.36323  1.0000
  H   H1        1.0  0.68166  0.07440  0.88541  1.0000
  H   H2        1.0  0.31834  0.92560  0.11459  1.0000
  H   H3        1.0  0.38903  0.01702  0.81650  1.0000
  H   H4        1.0  0.61096  0.98299  0.18349  1.0000
  H   H5        1.0  0.14328  0.76446  0.82594  1.0000
  H   H6        1.0  0.85671  0.23554  0.17404  1.0000
  H   H7        1.0  0.06046  0.57823  0.94474  1.0000
  H   H8        1.0  0.93952  0.42177  0.05524  1.0000
  H   H9        1.0  0.37906  0.57849  0.08614  1.0000
  H   H10       1.0  0.62091  0.42152  0.91384  1.0000
  H   H11       1.0  0.86737  0.90923  0.98063  1.0000
  H   H12       1.0  0.13259  0.09079  0.01938  1.0000
  H   H13       1.0  0.04503  0.89777  0.69932  1.0000
  H   H14       1.0  0.95496  0.10224  0.30068  1.0000
  H   H15       1.0  0.76074  0.65893  0.45155  1.0000
  H   H16       1.0  0.23929  0.34106  0.54847  1.0000
  H   H17       1.0  0.89510  0.56347  0.60338  1.0000
  H   H18       1.0  0.10492  0.43651  0.39665  1.0000
  H   H19       1.0  0.80080  0.37993  0.53300  1.0000
  H   H20       1.0  0.19923  0.62005  0.46703  1.0000
  H   H21       1.0  0.30566  0.51221  0.63052  1.0000
  H   H22       1.0  0.69437  0.48778  0.36950  1.0000
  H   H23       1.0  0.09703  0.36739  0.66047  1.0000
  H   H24       1.0  0.90303  0.63260  0.33955  1.0000
  C   C1        1.0  0.70570  0.95516  0.73458  1.0000
  C   C2        1.0  0.29431  0.04485  0.26541  1.0000
  C   C3        1.0  0.56600  0.98053  0.83465  1.0000
  C   C4        1.0  0.43399  0.01947  0.16534  1.0000
  C   C5        1.0  0.51337  0.85369  0.89437  1.0000
  C   C6        1.0  0.48659  0.14631  0.10562  1.0000
  C   C7        1.0  0.28508  0.75621  0.88373  1.0000
  C   C8        1.0  0.71489  0.24379  0.11627  1.0000
  C   C9        1.0  0.23752  0.65388  0.95103  1.0000
  C   C10       1.0  0.76245  0.34613  0.04894  1.0000
  C   C11       1.0  0.41448  0.65051  0.02828  1.0000
  C   C12       1.0  0.58549  0.34949  0.97171  1.0000
  C   C13       1.0  0.68572  0.83807  0.97019  1.0000
  C   C14       1.0  0.31426  0.16194  0.02982  1.0000
  C   C15       1.0  0.95631  0.47317  0.54949  1.0000
  C   C16       1.0  0.04373  0.52681  0.45053  1.0000
  N   N1        1.0  0.63886  0.74049  0.03710  1.0000
  N   N2        1.0  0.36110  0.25952  0.96289  1.0000
  N   N3        1.0  0.16445  0.42022  0.60052  1.0000
  N   N4        1.0  0.83559  0.57977  0.39951  1.0000
  O   O1        1.0  0.89779  0.26066  0.75438  1.0000
  O   O2        1.0  0.10221  0.73936  0.24562  1.0000
  O   O3        1.0  0.88847  0.10031  0.57962  1.0000
  O   O4        1.0  0.11154  0.89970  0.42037  1.0000
  O   O5        1.0  0.48021  0.16979  0.65997  1.0000
  O   O6        1.0  0.51981  0.83019  0.34003  1.0000
  O   O7        1.0  0.94500  0.92245  0.76146  1.0000
  O   O8        1.0  0.05500  0.07756  0.23854  1.0000
  O   O9        1.0  0.49080  0.66130  0.67826  1.0000
  O   O10       1.0  0.50924  0.33870  0.32174  1.0000
  O   O11       1.0  0.27082  0.86375  0.61842  1.0000
  O   O12       1.0  0.72921  0.13624  0.38157  1.0000
  O   O13       1.0  0.67307  0.79871  0.53741  1.0000
  O   O14       1.0  0.32692  0.20128  0.46258  1.0000
