data_image0
_chemical_formula_structural       Ba4H16C16O24
_chemical_formula_sum              "Ba4 H16 C16 O24"
_cell_length_a       8.27138
_cell_length_b       8.34094
_cell_length_c       9.15302
_cell_angle_alpha    90
_cell_angle_beta     90.0002
_cell_angle_gamma    90

_space_group_name_H-M_alt    "P 1"
_space_group_IT_number       1

loop_
  _space_group_symop_operation_xyz
  'x, y, z'

loop_
  _atom_site_type_symbol
  _atom_site_label
  _atom_site_symmetry_multiplicity
  _atom_site_fract_x
  _atom_site_fract_y
  _atom_site_fract_z
  _atom_site_occupancy
  Ba  Ba1       1.0  0.84286  0.52948  0.98144  1.0000
  Ba  Ba2       1.0  0.65713  0.02948  0.01856  1.0000
  Ba  Ba3       1.0  0.34287  0.47052  0.51856  1.0000
  Ba  Ba4       1.0  0.15713  0.97052  0.48144  1.0000
  H   H1        1.0  0.25403  0.10012  0.08549  1.0000
  H   H2        1.0  0.24597  0.60012  0.91451  1.0000
  H   H3        1.0  0.75403  0.89988  0.41451  1.0000
  H   H4        1.0  0.74597  0.39988  0.58549  1.0000
  H   H5        1.0  0.36770  0.10874  0.72339  1.0000
  H   H6        1.0  0.13230  0.60874  0.27661  1.0000
  H   H7        1.0  0.86770  0.89126  0.77661  1.0000
  H   H8        1.0  0.63230  0.39126  0.22339  1.0000
  H   H9        1.0  0.21497  0.35446  0.02143  1.0000
  H   H10       1.0  0.28503  0.85445  0.97857  1.0000
  H   H11       1.0  0.71497  0.64555  0.47857  1.0000
  H   H12       1.0  0.78503  0.14555  0.52143  1.0000
  H   H13       1.0  0.13283  0.36103  0.77172  1.0000
  H   H14       1.0  0.36717  0.86103  0.22828  1.0000
  H   H15       1.0  0.63284  0.63897  0.72828  1.0000
  H   H16       1.0  0.86717  0.13897  0.27172  1.0000
  C   C1        1.0  0.42984  0.38173  0.89051  1.0000
  C   C2        1.0  0.07016  0.88172  0.10949  1.0000
  C   C3        1.0  0.92985  0.61828  0.60948  1.0000
  C   C4        1.0  0.57016  0.11828  0.39052  1.0000
  C   C5        1.0  0.28595  0.28011  0.94528  1.0000
  C   C6        1.0  0.21405  0.78011  0.05472  1.0000
  C   C7        1.0  0.78595  0.71989  0.55472  1.0000
  C   C8        1.0  0.71405  0.21989  0.44528  1.0000
  C   C9        1.0  0.18316  0.24512  0.80820  1.0000
  C   C10       1.0  0.31683  0.74512  0.19180  1.0000
  C   C11       1.0  0.68316  0.75488  0.69180  1.0000
  C   C12       1.0  0.81684  0.25488  0.30820  1.0000
  C   C13       1.0  0.03172  0.14297  0.83440  1.0000
  C   C14       1.0  0.46828  0.64296  0.16561  1.0000
  C   C15       1.0  0.53172  0.85704  0.66561  1.0000
  C   C16       1.0  0.96828  0.35704  0.33439  1.0000
  O   O1        1.0  0.57194  0.33151  0.90785  1.0000
  O   O2        1.0  0.92807  0.83151  0.09215  1.0000
  O   O3        1.0  0.07193  0.66849  0.59214  1.0000
  O   O4        1.0  0.42807  0.16849  0.40786  1.0000
  O   O5        1.0  0.39163  0.51176  0.82427  1.0000
  O   O6        1.0  0.10837  0.01176  0.17573  1.0000
  O   O7        1.0  0.89163  0.48824  0.67573  1.0000
  O   O8        1.0  0.60837  0.98824  0.32427  1.0000
  O   O9        1.0  0.34143  0.14002  0.01756  1.0000
  O   O10       1.0  0.15857  0.64002  0.98244  1.0000
  O   O11       1.0  0.84142  0.85999  0.48244  1.0000
  O   O12       1.0  0.65858  0.35999  0.51756  1.0000
  O   O13       1.0  0.28100  0.18786  0.69109  1.0000
  O   O14       1.0  0.21900  0.68785  0.30891  1.0000
  O   O15       1.0  0.78100  0.81214  0.80891  1.0000
  O   O16       1.0  0.71899  0.31214  0.19109  1.0000
  O   O17       1.0  0.93026  0.19809  0.92532  1.0000
  O   O18       1.0  0.56974  0.69809  0.07468  1.0000
  O   O19       1.0  0.43026  0.80191  0.57468  1.0000
  O   O20       1.0  0.06974  0.30191  0.42532  1.0000
  O   O21       1.0  0.01577  0.01561  0.75891  1.0000
  O   O22       1.0  0.48423  0.51561  0.24109  1.0000
  O   O23       1.0  0.51577  0.98439  0.74110  1.0000
  O   O24       1.0  0.98423  0.48439  0.25890  1.0000
