data_image0
_chemical_formula_structural       Ni3P4H24C14N2O18
_chemical_formula_sum              "Ni3 P4 H24 C14 N2 O18"
_cell_length_a       6.41918
_cell_length_b       9.98304
_cell_length_c       11.9658
_cell_angle_alpha    71.1526
_cell_angle_beta     80.1673
_cell_angle_gamma    78.3577

_space_group_name_H-M_alt    "P 1"
_space_group_IT_number       1

loop_
  _space_group_symop_operation_xyz
  'x, y, z'

loop_
  _atom_site_type_symbol
  _atom_site_label
  _atom_site_symmetry_multiplicity
  _atom_site_fract_x
  _atom_site_fract_y
  _atom_site_fract_z
  _atom_site_occupancy
  Ni  Ni1       1.0  0.50000  0.50000  1.00000  1.0000
  Ni  Ni2       1.0  0.86911  0.55150  0.29849  1.0000
  Ni  Ni3       1.0  0.13089  0.44850  0.70151  1.0000
  P   P1        1.0  0.62482  0.47376  0.75382  1.0000
  P   P2        1.0  0.37518  0.52624  0.24618  1.0000
  P   P3        1.0  0.79677  0.68910  0.82621  1.0000
  P   P4        1.0  0.20323  0.31090  0.17379  1.0000
  H   H1        1.0  0.94743  0.31987  0.46285  1.0000
  H   H2        1.0  0.05257  0.68013  0.53715  1.0000
  H   H3        1.0  0.82807  0.41887  0.54230  1.0000
  H   H4        1.0  0.17193  0.58113  0.45770  1.0000
  H   H5        1.0  0.85472  0.65231  0.06936  1.0000
  H   H6        1.0  0.14528  0.34768  0.93063  1.0000
  H   H7        1.0  0.07873  0.66249  0.10594  1.0000
  H   H8        1.0  0.92127  0.33751  0.89406  1.0000
  H   H9        1.0  0.25961  0.65149  0.82288  1.0000
  H   H10       1.0  0.74039  0.34851  0.17712  1.0000
  H   H11       1.0  0.67573  0.88793  0.86993  1.0000
  H   H12       1.0  0.32427  0.11207  0.13007  1.0000
  H   H13       1.0  0.34952  0.75420  0.63368  1.0000
  H   H14       1.0  0.65048  0.24580  0.36632  1.0000
  H   H15       1.0  0.46054  0.88070  0.67150  1.0000
  H   H16       1.0  0.53946  0.11930  0.32850  1.0000
  H   H17       1.0  0.76559  0.98233  0.54475  1.0000
  H   H18       1.0  0.23441  0.01767  0.45525  1.0000
  H   H19       1.0  0.99100  0.01422  0.34508  1.0000
  H   H20       1.0  0.00901  0.98578  0.65492  1.0000
  H   H21       1.0  0.00507  0.83512  0.23752  1.0000
  H   H22       1.0  0.99493  0.16488  0.76248  1.0000
  H   H23       1.0  0.55684  0.62661  0.49063  1.0000
  H   H24       1.0  0.44316  0.37339  0.50937  1.0000
  C   C1        1.0  0.57124  0.66174  0.76017  1.0000
  C   C2        1.0  0.42875  0.33826  0.23983  1.0000
  C   C3        1.0  0.49948  0.77979  0.64871  1.0000
  C   C4        1.0  0.50051  0.22021  0.35129  1.0000
  C   C5        1.0  0.64785  0.79924  0.53518  1.0000
  C   C6        1.0  0.35215  0.20076  0.46482  1.0000
  C   C7        1.0  0.77250  0.90910  0.49306  1.0000
  C   C8        1.0  0.22751  0.09090  0.50694  1.0000
  C   C9        1.0  0.89856  0.92668  0.38349  1.0000
  C   C10       1.0  0.10143  0.07332  0.61651  1.0000
  C   C11       1.0  0.90476  0.82954  0.32148  1.0000
  C   C12       1.0  0.09524  0.17046  0.67852  1.0000
  C   C13       1.0  0.65735  0.71003  0.46448  1.0000
  C   C14       1.0  0.34265  0.28997  0.53552  1.0000
  N   N1        1.0  0.78848  0.72171  0.36286  1.0000
  N   N2        1.0  0.21153  0.27829  0.63714  1.0000
  O   O1        1.0  0.82620  0.39536  0.46667  1.0000
  O   O2        1.0  0.17380  0.60464  0.53333  1.0000
  O   O3        1.0  0.82916  0.45570  0.66771  1.0000
  O   O4        1.0  0.17084  0.54430  0.33229  1.0000
  O   O5        1.0  0.91936  0.68135  0.12610  1.0000
  O   O6        1.0  0.08063  0.31865  0.87390  1.0000
  O   O7        1.0  0.43412  0.45016  0.70943  1.0000
  O   O8        1.0  0.56588  0.54984  0.29057  1.0000
  O   O9        1.0  0.65897  0.38820  0.88437  1.0000
  O   O10       1.0  0.34103  0.61181  0.11563  1.0000
  O   O11       1.0  0.38885  0.66340  0.85318  1.0000
  O   O12       1.0  0.61115  0.33660  0.14682  1.0000
  O   O13       1.0  0.77029  0.86047  0.80527  1.0000
  O   O14       1.0  0.22971  0.13953  0.19473  1.0000
  O   O15       1.0  0.01276  0.64977  0.76029  1.0000
  O   O16       1.0  0.98724  0.35022  0.23971  1.0000
  O   O17       1.0  0.75504  0.61453  0.95917  1.0000
  O   O18       1.0  0.24496  0.38547  0.04083  1.0000
