data_image0
_chemical_formula_structural       Hg4H56C56I8N16
_chemical_formula_sum              "Hg4 H56 C56 I8 N16"
_cell_length_a       8.13721
_cell_length_b       13.4819
_cell_length_c       15.4793
_cell_angle_alpha    90
_cell_angle_beta     90
_cell_angle_gamma    90.0002

_space_group_name_H-M_alt    "P 1"
_space_group_IT_number       1

loop_
  _space_group_symop_operation_xyz
  'x, y, z'

loop_
  _atom_site_type_symbol
  _atom_site_label
  _atom_site_symmetry_multiplicity
  _atom_site_fract_x
  _atom_site_fract_y
  _atom_site_fract_z
  _atom_site_occupancy
  Hg  Hg1       1.0  0.79033  0.52052  0.75000  1.0000
  Hg  Hg2       1.0  0.70967  0.02052  0.25000  1.0000
  Hg  Hg3       1.0  0.20967  0.47948  0.25000  1.0000
  Hg  Hg4       1.0  0.29034  0.97948  0.75000  1.0000
  H   H1        1.0  0.43687  0.46148  0.66876  1.0000
  H   H2        1.0  0.06313  0.96148  0.33124  1.0000
  H   H3        1.0  0.56313  0.53852  0.16876  1.0000
  H   H4        1.0  0.93687  0.03852  0.83124  1.0000
  H   H5        1.0  0.56313  0.53852  0.33124  1.0000
  H   H6        1.0  0.93687  0.03852  0.66876  1.0000
  H   H7        1.0  0.43687  0.46148  0.83124  1.0000
  H   H8        1.0  0.06313  0.96148  0.16876  1.0000
  H   H9        1.0  0.28108  0.65180  0.46003  1.0000
  H   H10       1.0  0.21891  0.15180  0.53997  1.0000
  H   H11       1.0  0.71892  0.34820  0.96003  1.0000
  H   H12       1.0  0.78109  0.84820  0.03997  1.0000
  H   H13       1.0  0.71891  0.34820  0.53997  1.0000
  H   H14       1.0  0.78109  0.84820  0.46003  1.0000
  H   H15       1.0  0.28108  0.65180  0.03997  1.0000
  H   H16       1.0  0.21892  0.15180  0.96003  1.0000
  H   H17       1.0  0.54299  0.74753  0.48056  1.0000
  H   H18       1.0  0.95700  0.24753  0.51945  1.0000
  H   H19       1.0  0.45701  0.25247  0.98056  1.0000
  H   H20       1.0  0.04300  0.75247  0.01944  1.0000
  H   H21       1.0  0.45700  0.25247  0.51945  1.0000
  H   H22       1.0  0.04299  0.75247  0.48055  1.0000
  H   H23       1.0  0.54299  0.74753  0.01945  1.0000
  H   H24       1.0  0.95701  0.24753  0.98056  1.0000
  H   H25       1.0  0.73995  0.69254  0.59689  1.0000
  H   H26       1.0  0.76005  0.19254  0.40311  1.0000
  H   H27       1.0  0.26004  0.30747  0.09689  1.0000
  H   H28       1.0  0.23996  0.80747  0.90311  1.0000
  H   H29       1.0  0.26005  0.30746  0.40311  1.0000
  H   H30       1.0  0.23995  0.80747  0.59688  1.0000
  H   H31       1.0  0.73995  0.69253  0.90312  1.0000
  H   H32       1.0  0.76005  0.19254  0.09689  1.0000
  H   H33       1.0  0.03127  0.37518  0.60748  1.0000
  H   H34       1.0  0.46872  0.87518  0.39252  1.0000
  H   H35       1.0  0.96873  0.62482  0.10748  1.0000
  H   H36       1.0  0.53127  0.12482  0.89252  1.0000
  H   H37       1.0  0.96872  0.62482  0.39252  1.0000
  H   H38       1.0  0.53127  0.12482  0.60748  1.0000
  H   H39       1.0  0.03128  0.37518  0.89252  1.0000
  H   H40       1.0  0.46873  0.87518  0.10748  1.0000
  H   H41       1.0  0.16091  0.43188  0.68548  1.0000
  H   H42       1.0  0.33909  0.93187  0.31452  1.0000
  H   H43       1.0  0.83909  0.56812  0.18548  1.0000
  H   H44       1.0  0.66091  0.06813  0.81453  1.0000
  H   H45       1.0  0.83909  0.56812  0.31453  1.0000
  H   H46       1.0  0.66091  0.06813  0.68548  1.0000
  H   H47       1.0  0.16091  0.43187  0.81452  1.0000
  H   H48       1.0  0.33909  0.93187  0.18547  1.0000
  H   H49       1.0  0.24780  0.35169  0.60794  1.0000
  H   H50       1.0  0.25220  0.85170  0.39206  1.0000
  H   H51       1.0  0.75220  0.64831  0.10794  1.0000
  H   H52       1.0  0.74780  0.14831  0.89206  1.0000
  H   H53       1.0  0.75220  0.64831  0.39206  1.0000
  H   H54       1.0  0.74780  0.14831  0.60794  1.0000
  H   H55       1.0  0.24780  0.35169  0.89206  1.0000
  H   H56       1.0  0.25219  0.85169  0.10794  1.0000
  C   C1        1.0  0.45191  0.52578  0.62663  1.0000
  C   C2        1.0  0.04809  0.02578  0.37337  1.0000
  C   C3        1.0  0.54808  0.47423  0.12663  1.0000
  C   C4        1.0  0.95191  0.97423  0.87337  1.0000
  C   C5        1.0  0.54809  0.47422  0.37337  1.0000
  C   C6        1.0  0.95191  0.97423  0.62663  1.0000
  C   C7        1.0  0.45191  0.52578  0.87337  1.0000
  C   C8        1.0  0.04809  0.02577  0.12663  1.0000
  C   C9        1.0  0.33210  0.55161  0.56551  1.0000
  C   C10       1.0  0.16790  0.05161  0.43449  1.0000
  C   C11       1.0  0.66790  0.44839  0.06551  1.0000
  C   C12       1.0  0.83210  0.94839  0.93449  1.0000
  C   C13       1.0  0.66790  0.44839  0.43449  1.0000
  C   C14       1.0  0.83210  0.94839  0.56551  1.0000
  C   C15       1.0  0.33210  0.55161  0.93449  1.0000
  C   C16       1.0  0.16790  0.05161  0.06551  1.0000
  C   C17       1.0  0.36796  0.63205  0.51075  1.0000
  C   C18       1.0  0.13203  0.13204  0.48925  1.0000
  C   C19       1.0  0.63204  0.36795  0.01075  1.0000
  C   C20       1.0  0.86796  0.86796  0.98925  1.0000
  C   C21       1.0  0.63204  0.36795  0.48925  1.0000
  C   C22       1.0  0.86796  0.86796  0.51075  1.0000
  C   C23       1.0  0.36796  0.63204  0.98925  1.0000
  C   C24       1.0  0.13204  0.13204  0.01075  1.0000
  C   C25       1.0  0.51408  0.68392  0.52124  1.0000
  C   C26       1.0  0.98591  0.18393  0.47875  1.0000
  C   C27       1.0  0.48591  0.31607  0.02125  1.0000
  C   C28       1.0  0.01409  0.81607  0.97875  1.0000
  C   C29       1.0  0.48592  0.31607  0.47876  1.0000
  C   C30       1.0  0.01408  0.81608  0.52125  1.0000
  C   C31       1.0  0.51408  0.68392  0.97876  1.0000
  C   C32       1.0  0.98592  0.18393  0.02125  1.0000
  C   C33       1.0  0.62390  0.65400  0.58548  1.0000
  C   C34       1.0  0.87610  0.15400  0.41452  1.0000
  C   C35       1.0  0.37610  0.34601  0.08548  1.0000
  C   C36       1.0  0.12390  0.84601  0.91452  1.0000
  C   C37       1.0  0.37610  0.34600  0.41452  1.0000
  C   C38       1.0  0.12390  0.84601  0.58548  1.0000
  C   C39       1.0  0.62390  0.65399  0.91452  1.0000
  C   C40       1.0  0.87611  0.15400  0.08548  1.0000
  C   C41       1.0  0.17723  0.49523  0.55924  1.0000
  C   C42       1.0  0.32277  0.99523  0.44077  1.0000
  C   C43       1.0  0.82277  0.50477  0.05923  1.0000
  C   C44       1.0  0.67723  0.00477  0.94076  1.0000
  C   C45       1.0  0.82277  0.50477  0.44077  1.0000
  C   C46       1.0  0.67724  0.00477  0.55923  1.0000
  C   C47       1.0  0.17723  0.49523  0.94076  1.0000
  C   C48       1.0  0.32277  0.99523  0.05923  1.0000
  C   C49       1.0  0.15219  0.40816  0.61772  1.0000
  C   C50       1.0  0.34781  0.90816  0.38228  1.0000
  C   C51       1.0  0.84781  0.59184  0.11772  1.0000
  C   C52       1.0  0.65219  0.09184  0.88228  1.0000
  C   C53       1.0  0.84781  0.59184  0.38228  1.0000
  C   C54       1.0  0.65219  0.09184  0.61772  1.0000
  C   C55       1.0  0.15219  0.40816  0.88228  1.0000
  C   C56       1.0  0.34781  0.90816  0.11772  1.0000
  I   I1        1.0  0.71165  0.32561  0.75000  1.0000
  I   I2        1.0  0.78835  0.82560  0.25000  1.0000
  I   I3        1.0  0.28835  0.67439  0.25000  1.0000
  I   I4        1.0  0.21165  0.17439  0.75000  1.0000
  I   I5        1.0  0.02410  0.66057  0.75000  1.0000
  I   I6        1.0  0.47590  0.16057  0.25000  1.0000
  I   I7        1.0  0.97591  0.33943  0.25000  1.0000
  I   I8        1.0  0.52409  0.83944  0.75000  1.0000
  N   N1        1.0  0.59310  0.57559  0.63622  1.0000
  N   N2        1.0  0.90690  0.07559  0.36378  1.0000
  N   N3        1.0  0.40689  0.42441  0.13622  1.0000
  N   N4        1.0  0.09311  0.92442  0.86378  1.0000
  N   N5        1.0  0.40690  0.42441  0.36378  1.0000
  N   N6        1.0  0.09311  0.92441  0.63622  1.0000
  N   N7        1.0  0.59311  0.57558  0.86378  1.0000
  N   N8        1.0  0.90690  0.07559  0.13622  1.0000
  N   N9        1.0  0.07149  0.52714  0.50230  1.0000
  N   N10       1.0  0.42851  0.02714  0.49770  1.0000
  N   N11       1.0  0.92851  0.47286  0.00230  1.0000
  N   N12       1.0  0.57149  0.97286  0.99770  1.0000
  N   N13       1.0  0.92851  0.47286  0.49770  1.0000
  N   N14       1.0  0.57150  0.97286  0.50230  1.0000
  N   N15       1.0  0.07149  0.52714  0.99770  1.0000
  N   N16       1.0  0.42851  0.02714  0.00230  1.0000
