data_image0
_chemical_formula_structural       Hg4H20C24I8N8
_chemical_formula_sum              "Hg4 H20 C24 I8 N8"
_cell_length_a       7.70445
_cell_length_b       7.39387
_cell_length_c       18.033
_cell_angle_alpha    100.896
_cell_angle_beta     90.0017
_cell_angle_gamma    90.0005

_space_group_name_H-M_alt    "P 1"
_space_group_IT_number       1

loop_
  _space_group_symop_operation_xyz
  'x, y, z'

loop_
  _atom_site_type_symbol
  _atom_site_label
  _atom_site_symmetry_multiplicity
  _atom_site_fract_x
  _atom_site_fract_y
  _atom_site_fract_z
  _atom_site_occupancy
  Hg  Hg1       1.0  0.15081  0.45802  0.15907  1.0000
  Hg  Hg2       1.0  0.65081  0.54202  0.34094  1.0000
  Hg  Hg3       1.0  0.84919  0.54200  0.84093  1.0000
  Hg  Hg4       1.0  0.34923  0.45797  0.65906  1.0000
  H   H1        1.0  0.19543  0.60323  0.93174  1.0000
  H   H2        1.0  0.69543  0.39674  0.56826  1.0000
  H   H3        1.0  0.80455  0.39677  0.06825  1.0000
  H   H4        1.0  0.30458  0.60326  0.43175  1.0000
  H   H5        1.0  0.46878  0.76589  0.94273  1.0000
  H   H6        1.0  0.96879  0.23408  0.55727  1.0000
  H   H7        1.0  0.53121  0.23410  0.05727  1.0000
  H   H8        1.0  0.03125  0.76589  0.44274  1.0000
  H   H9        1.0  0.49175  0.71328  0.21049  1.0000
  H   H10       1.0  0.99174  0.28678  0.28951  1.0000
  H   H11       1.0  0.50825  0.28675  0.78950  1.0000
  H   H12       1.0  0.00826  0.71321  0.71050  1.0000
  H   H13       1.0  0.72354  0.90277  0.02084  1.0000
  H   H14       1.0  0.22351  0.09726  0.47913  1.0000
  H   H15       1.0  0.27646  0.09724  0.97914  1.0000
  H   H16       1.0  0.77649  0.90273  0.52087  1.0000
  H   H17       1.0  0.72903  0.88412  0.15903  1.0000
  H   H18       1.0  0.22900  0.11591  0.34095  1.0000
  H   H19       1.0  0.27098  0.11590  0.84096  1.0000
  H   H20       1.0  0.77100  0.88407  0.65905  1.0000
  C   C1        1.0  0.34883  0.66845  0.03595  1.0000
  C   C2        1.0  0.84883  0.33154  0.46404  1.0000
  C   C3        1.0  0.65118  0.33155  0.96404  1.0000
  C   C4        1.0  0.15119  0.66847  0.53596  1.0000
  C   C5        1.0  0.19745  0.59624  0.99196  1.0000
  C   C6        1.0  0.69749  0.40376  0.50805  1.0000
  C   C7        1.0  0.80251  0.40379  0.00804  1.0000
  C   C8        1.0  0.30253  0.59621  0.49195  1.0000
  C   C9        1.0  0.47908  0.75772  0.00239  1.0000
  C   C10       1.0  0.97909  0.24228  0.49761  1.0000
  C   C11       1.0  0.52090  0.24232  0.99761  1.0000
  C   C12       1.0  0.02092  0.75772  0.50240  1.0000
  C   C13       1.0  0.49117  0.72766  0.15139  1.0000
  C   C14       1.0  0.99118  0.27236  0.34861  1.0000
  C   C15       1.0  0.50880  0.27236  0.84861  1.0000
  C   C16       1.0  0.00886  0.72763  0.65140  1.0000
  C   C17       1.0  0.61936  0.83473  0.04611  1.0000
  C   C18       1.0  0.11932  0.16524  0.45387  1.0000
  C   C19       1.0  0.38064  0.16527  0.95387  1.0000
  C   C20       1.0  0.88065  0.83471  0.54615  1.0000
  C   C21       1.0  0.62377  0.82320  0.12227  1.0000
  C   C22       1.0  0.12378  0.17683  0.37773  1.0000
  C   C23       1.0  0.37621  0.17681  0.87773  1.0000
  C   C24       1.0  0.87622  0.82313  0.62228  1.0000
  I   I1        1.0  0.06256  0.09476  0.11789  1.0000
  I   I2        1.0  0.56252  0.90528  0.38211  1.0000
  I   I3        1.0  0.93743  0.90526  0.88211  1.0000
  I   I4        1.0  0.43747  0.09471  0.61789  1.0000
  I   I5        1.0  0.99698  0.71157  0.27069  1.0000
  I   I6        1.0  0.49703  0.28847  0.22930  1.0000
  I   I7        1.0  0.00300  0.28843  0.72931  1.0000
  I   I8        1.0  0.50299  0.71155  0.77069  1.0000
  N   N1        1.0  0.35929  0.64968  0.10912  1.0000
  N   N2        1.0  0.85930  0.35034  0.39087  1.0000
  N   N3        1.0  0.64070  0.35035  0.89087  1.0000
  N   N4        1.0  0.14072  0.64963  0.60912  1.0000
  N   N5        1.0  0.06738  0.53082  0.02385  1.0000
  N   N6        1.0  0.56739  0.46917  0.47616  1.0000
  N   N7        1.0  0.93259  0.46918  0.97615  1.0000
  N   N8        1.0  0.43263  0.53082  0.52386  1.0000
