data_image0
_chemical_formula_structural       Hg4H28C28I8N8
_chemical_formula_sum              "Hg4 H28 C28 I8 N8"
_cell_length_a       8.03185
_cell_length_b       11.73
_cell_length_c       13.0755
_cell_angle_alpha    105.911
_cell_angle_beta     89.9971
_cell_angle_gamma    109.994

_space_group_name_H-M_alt    "P 1"
_space_group_IT_number       1

loop_
  _space_group_symop_operation_xyz
  'x, y, z'

loop_
  _atom_site_type_symbol
  _atom_site_label
  _atom_site_symmetry_multiplicity
  _atom_site_fract_x
  _atom_site_fract_y
  _atom_site_fract_z
  _atom_site_occupancy
  Hg  Hg1       1.0  0.88008  0.84601  0.56920  1.0000
  Hg  Hg2       1.0  0.03308  0.15343  0.93055  1.0000
  Hg  Hg3       1.0  0.11991  0.15399  0.43080  1.0000
  Hg  Hg4       1.0  0.96691  0.84657  0.06945  1.0000
  H   H1        1.0  0.22017  0.66939  0.82396  1.0000
  H   H2        1.0  0.55060  0.33051  0.67633  1.0000
  H   H3        1.0  0.77982  0.33061  0.17605  1.0000
  H   H4        1.0  0.44940  0.66948  0.32367  1.0000
  H   H5        1.0  0.05155  0.43725  0.74274  1.0000
  H   H6        1.0  0.61375  0.56263  0.75789  1.0000
  H   H7        1.0  0.94845  0.56275  0.25725  1.0000
  H   H8        1.0  0.38626  0.43737  0.24211  1.0000
  H   H9        1.0  0.81951  0.36827  0.58802  1.0000
  H   H10       1.0  0.45027  0.63129  0.91247  1.0000
  H   H11       1.0  0.18050  0.63173  0.41198  1.0000
  H   H12       1.0  0.54974  0.36871  0.08753  1.0000
  H   H13       1.0  0.75858  0.53487  0.52498  1.0000
  H   H14       1.0  0.22272  0.46457  0.97522  1.0000
  H   H15       1.0  0.24142  0.46514  0.47501  1.0000
  H   H16       1.0  0.77729  0.53542  0.02478  1.0000
  H   H17       1.0  0.38085  0.01189  0.87676  1.0000
  H   H18       1.0  0.36896  0.98790  0.62318  1.0000
  H   H19       1.0  0.61915  0.98811  0.12323  1.0000
  H   H20       1.0  0.63103  0.01209  0.37682  1.0000
  H   H21       1.0  0.43214  0.87472  0.81374  1.0000
  H   H22       1.0  0.55701  0.12520  0.68635  1.0000
  H   H23       1.0  0.56786  0.12528  0.18626  1.0000
  H   H24       1.0  0.44299  0.87480  0.31365  1.0000
  H   H25       1.0  0.28679  0.87091  0.91540  1.0000
  H   H26       1.0  0.41551  0.12901  0.58466  1.0000
  H   H27       1.0  0.71321  0.12909  0.08460  1.0000
  H   H28       1.0  0.58448  0.87099  0.41534  1.0000
  C   C1        1.0  0.07977  0.72382  0.71551  1.0000
  C   C2        1.0  0.35503  0.27581  0.78442  1.0000
  C   C3        1.0  0.92024  0.27618  0.28449  1.0000
  C   C4        1.0  0.64497  0.72419  0.21558  1.0000
  C   C5        1.0  0.11885  0.63646  0.75683  1.0000
  C   C6        1.0  0.48174  0.36322  0.74331  1.0000
  C   C7        1.0  0.88115  0.36354  0.24317  1.0000
  C   C8        1.0  0.51826  0.63678  0.25670  1.0000
  C   C9        1.0  0.02444  0.50723  0.71185  1.0000
  C   C10       1.0  0.51634  0.49245  0.78842  1.0000
  C   C11       1.0  0.97556  0.49277  0.28815  1.0000
  C   C12       1.0  0.48366  0.50755  0.21158  1.0000
  C   C13       1.0  0.89422  0.46844  0.62664  1.0000
  C   C14       1.0  0.42478  0.53116  0.87362  1.0000
  C   C15       1.0  0.10578  0.53157  0.37336  1.0000
  C   C16       1.0  0.57523  0.46884  0.12638  1.0000
  C   C17       1.0  0.86187  0.56096  0.59027  1.0000
  C   C18       1.0  0.29975  0.43856  0.90979  1.0000
  C   C19       1.0  0.13814  0.43904  0.40973  1.0000
  C   C20       1.0  0.70026  0.56144  0.09021  1.0000
  C   C21       1.0  0.17403  0.86210  0.76281  1.0000
  C   C22       1.0  0.31140  0.13755  0.73715  1.0000
  C   C23       1.0  0.82596  0.13790  0.23719  1.0000
  C   C24       1.0  0.68859  0.86244  0.26285  1.0000
  C   C25       1.0  0.32588  0.90842  0.84714  1.0000
  C   C26       1.0  0.41714  0.09140  0.65286  1.0000
  C   C27       1.0  0.67411  0.09158  0.15285  1.0000
  C   C28       1.0  0.58285  0.90860  0.34714  1.0000
  I   I1        1.0  0.08645  0.86135  0.40061  1.0000
  I   I2        1.0  0.22502  0.13927  0.09945  1.0000
  I   I3        1.0  0.91355  0.13864  0.59940  1.0000
  I   I4        1.0  0.77498  0.86074  0.90055  1.0000
  I   I5        1.0  0.52439  0.74629  0.58900  1.0000
  I   I6        1.0  0.77697  0.25312  0.91070  1.0000
  I   I7        1.0  0.47560  0.25369  0.41099  1.0000
  I   I8        1.0  0.22304  0.74689  0.08930  1.0000
  N   N1        1.0  0.95260  0.68468  0.63334  1.0000
  N   N2        1.0  0.26679  0.31485  0.86653  1.0000
  N   N3        1.0  0.04740  0.31532  0.36666  1.0000
  N   N4        1.0  0.73322  0.68515  0.13348  1.0000
  N   N5        1.0  0.11799  0.93651  0.72684  1.0000
  N   N6        1.0  0.18109  0.06305  0.77309  1.0000
  N   N7        1.0  0.88200  0.06349  0.27316  1.0000
  N   N8        1.0  0.81891  0.93696  0.22691  1.0000
