data_image0
_chemical_formula_structural       Sn4H48C36I4N12
_chemical_formula_sum              "Sn4 H48 C36 I4 N12"
_cell_length_a       8.48045
_cell_length_b       11.0638
_cell_length_c       13.7401
_cell_angle_alpha    89.9999
_cell_angle_beta     103.943
_cell_angle_gamma    89.9999

_space_group_name_H-M_alt    "P 1"
_space_group_IT_number       1

loop_
  _space_group_symop_operation_xyz
  'x, y, z'

loop_
  _atom_site_type_symbol
  _atom_site_label
  _atom_site_symmetry_multiplicity
  _atom_site_fract_x
  _atom_site_fract_y
  _atom_site_fract_z
  _atom_site_occupancy
  Sn  Sn1       1.0  0.41332  0.25681  0.18715  1.0000
  Sn  Sn2       1.0  0.08668  0.75681  0.31285  1.0000
  Sn  Sn3       1.0  0.58668  0.74319  0.81285  1.0000
  Sn  Sn4       1.0  0.91332  0.24319  0.68715  1.0000
  H   H1        1.0  0.36056  0.15335  0.35541  1.0000
  H   H2        1.0  0.13944  0.65335  0.14459  1.0000
  H   H3        1.0  0.63945  0.84665  0.64459  1.0000
  H   H4        1.0  0.86056  0.34665  0.85541  1.0000
  H   H5        1.0  0.38229  0.31285  0.37399  1.0000
  H   H6        1.0  0.11771  0.81285  0.12601  1.0000
  H   H7        1.0  0.61771  0.68715  0.62601  1.0000
  H   H8        1.0  0.88229  0.18715  0.87399  1.0000
  H   H9        1.0  0.09433  0.33899  0.25963  1.0000
  H   H10       1.0  0.40567  0.83899  0.24037  1.0000
  H   H11       1.0  0.90567  0.66101  0.74037  1.0000
  H   H12       1.0  0.59433  0.16101  0.75963  1.0000
  H   H13       1.0  0.07808  0.18101  0.24879  1.0000
  H   H14       1.0  0.42192  0.68101  0.25121  1.0000
  H   H15       1.0  0.92192  0.81899  0.75121  1.0000
  H   H16       1.0  0.57808  0.31899  0.74879  1.0000
  H   H17       1.0  0.27851  0.47478  0.13862  1.0000
  H   H18       1.0  0.22149  0.97478  0.36138  1.0000
  H   H19       1.0  0.72150  0.52522  0.86138  1.0000
  H   H20       1.0  0.77851  0.02522  0.63862  1.0000
  H   H21       1.0  0.43458  0.45063  0.07392  1.0000
  H   H22       1.0  0.06542  0.95063  0.42608  1.0000
  H   H23       1.0  0.56543  0.54937  0.92608  1.0000
  H   H24       1.0  0.93458  0.04937  0.57392  1.0000
  H   H25       1.0  0.24619  0.31016  0.95291  1.0000
  H   H26       1.0  0.25381  0.81016  0.54709  1.0000
  H   H27       1.0  0.75381  0.68984  0.04709  1.0000
  H   H28       1.0  0.74619  0.18984  0.45290  1.0000
  H   H29       1.0  0.08929  0.33971  0.01394  1.0000
  H   H30       1.0  0.41071  0.83971  0.48606  1.0000
  H   H31       1.0  0.91071  0.66029  0.98606  1.0000
  H   H32       1.0  0.58929  0.16029  0.51393  1.0000
  H   H33       1.0  0.77756  0.73844  0.33110  1.0000
  H   H34       1.0  0.72244  0.23844  0.16890  1.0000
  H   H35       1.0  0.22244  0.26156  0.66890  1.0000
  H   H36       1.0  0.27756  0.76156  0.83110  1.0000
  H   H37       1.0  0.79777  0.66673  0.21873  1.0000
  H   H38       1.0  0.70223  0.16673  0.28127  1.0000
  H   H39       1.0  0.20223  0.33327  0.78127  1.0000
  H   H40       1.0  0.29777  0.83327  0.71873  1.0000
  H   H41       1.0  0.96154  0.49601  0.34092  1.0000
  H   H42       1.0  0.53845  0.99601  0.15908  1.0000
  H   H43       1.0  0.03845  0.50399  0.65908  1.0000
  H   H44       1.0  0.46154  0.00399  0.84092  1.0000
  H   H45       1.0  0.87430  0.56077  0.43272  1.0000
  H   H46       1.0  0.62570  0.06077  0.06728  1.0000
  H   H47       1.0  0.12570  0.43923  0.56728  1.0000
  H   H48       1.0  0.37430  0.93923  0.93272  1.0000
  C   C1        1.0  0.32256  0.24205  0.32221  1.0000
  C   C2        1.0  0.17744  0.74205  0.17779  1.0000
  C   C3        1.0  0.67744  0.75795  0.67779  1.0000
  C   C4        1.0  0.82256  0.25795  0.82221  1.0000
  C   C5        1.0  0.13709  0.25412  0.29917  1.0000
  C   C6        1.0  0.36291  0.75412  0.20083  1.0000
  C   C7        1.0  0.86291  0.74588  0.70083  1.0000
  C   C8        1.0  0.63709  0.24588  0.79917  1.0000
  C   C9        1.0  0.07549  0.25032  0.38912  1.0000
  C   C10       1.0  0.42451  0.75032  0.11089  1.0000
  C   C11       1.0  0.92451  0.74968  0.61088  1.0000
  C   C12       1.0  0.57549  0.24968  0.88912  1.0000
  C   C13       1.0  0.32612  0.41113  0.09143  1.0000
  C   C14       1.0  0.17387  0.91113  0.40857  1.0000
  C   C15       1.0  0.67388  0.58887  0.90857  1.0000
  C   C16       1.0  0.82612  0.08887  0.59143  1.0000
  C   C17       1.0  0.19816  0.37900  0.99605  1.0000
  C   C18       1.0  0.30184  0.87900  0.50394  1.0000
  C   C19       1.0  0.80184  0.62100  0.00395  1.0000
  C   C20       1.0  0.69816  0.12100  0.49605  1.0000
  C   C21       1.0  0.14710  0.48307  0.93140  1.0000
  C   C22       1.0  0.35290  0.98306  0.56859  1.0000
  C   C23       1.0  0.85290  0.51694  0.06859  1.0000
  C   C24       1.0  0.64709  0.01693  0.43140  1.0000
  C   C25       1.0  0.84991  0.67379  0.29975  1.0000
  C   C26       1.0  0.65009  0.17379  0.20025  1.0000
  C   C27       1.0  0.15008  0.32621  0.70025  1.0000
  C   C28       1.0  0.34991  0.82621  0.79975  1.0000
  C   C29       1.0  0.85777  0.55037  0.35123  1.0000
  C   C30       1.0  0.64223  0.05037  0.14877  1.0000
  C   C31       1.0  0.14223  0.44963  0.64877  1.0000
  C   C32       1.0  0.35777  0.94963  0.85123  1.0000
  C   C33       1.0  0.71333  0.47879  0.31317  1.0000
  C   C34       1.0  0.78666  0.97878  0.18683  1.0000
  C   C35       1.0  0.28666  0.52121  0.68683  1.0000
  C   C36       1.0  0.21333  0.02121  0.81317  1.0000
  I   I1        1.0  0.20227  0.07260  0.08346  1.0000
  I   I2        1.0  0.29773  0.57260  0.41654  1.0000
  I   I3        1.0  0.79773  0.92740  0.91654  1.0000
  I   I4        1.0  0.70226  0.42740  0.58346  1.0000
  N   N1        1.0  0.02688  0.24766  0.46163  1.0000
  N   N2        1.0  0.47313  0.74765  0.03836  1.0000
  N   N3        1.0  0.97313  0.75234  0.53836  1.0000
  N   N4        1.0  0.52687  0.25234  0.96164  1.0000
  N   N5        1.0  0.10531  0.56637  0.87946  1.0000
  N   N6        1.0  0.39470  0.06637  0.62054  1.0000
  N   N7        1.0  0.89470  0.43363  0.12055  1.0000
  N   N8        1.0  0.60530  0.93363  0.37945  1.0000
  N   N9        1.0  0.59812  0.42142  0.27959  1.0000
  N   N10       1.0  0.90188  0.92142  0.22041  1.0000
  N   N11       1.0  0.40188  0.57858  0.72041  1.0000
  N   N12       1.0  0.09811  0.07858  0.77959  1.0000
