data_image0
_chemical_formula_structural       Sn4H48C36Br4N12
_chemical_formula_sum              "Sn4 H48 C36 Br4 N12"
_cell_length_a       8.63631
_cell_length_b       10.7208
_cell_length_c       13.5568
_cell_angle_alpha    90.0002
_cell_angle_beta     103.984
_cell_angle_gamma    89.9998

_space_group_name_H-M_alt    "P 1"
_space_group_IT_number       1

loop_
  _space_group_symop_operation_xyz
  'x, y, z'

loop_
  _atom_site_type_symbol
  _atom_site_label
  _atom_site_symmetry_multiplicity
  _atom_site_fract_x
  _atom_site_fract_y
  _atom_site_fract_z
  _atom_site_occupancy
  Sn  Sn1       1.0  0.41202  0.24952  0.18796  1.0000
  Sn  Sn2       1.0  0.08799  0.74952  0.31204  1.0000
  Sn  Sn3       1.0  0.58798  0.75048  0.81204  1.0000
  Sn  Sn4       1.0  0.91201  0.25048  0.68796  1.0000
  H   H1        1.0  0.36283  0.15128  0.36304  1.0000
  H   H2        1.0  0.13717  0.65128  0.13695  1.0000
  H   H3        1.0  0.63717  0.84872  0.63696  1.0000
  H   H4        1.0  0.86283  0.34872  0.86304  1.0000
  H   H5        1.0  0.36868  0.31753  0.37123  1.0000
  H   H6        1.0  0.13133  0.81753  0.12877  1.0000
  H   H7        1.0  0.63133  0.68246  0.62877  1.0000
  H   H8        1.0  0.86868  0.18246  0.87123  1.0000
  H   H9        1.0  0.08802  0.32367  0.25022  1.0000
  H   H10       1.0  0.41198  0.82367  0.24978  1.0000
  H   H11       1.0  0.91199  0.67633  0.74978  1.0000
  H   H12       1.0  0.58802  0.17633  0.75022  1.0000
  H   H13       1.0  0.08645  0.15947  0.24887  1.0000
  H   H14       1.0  0.41355  0.65947  0.25113  1.0000
  H   H15       1.0  0.91354  0.84053  0.75113  1.0000
  H   H16       1.0  0.58645  0.34053  0.74887  1.0000
  H   H17       1.0  0.26666  0.46935  0.13852  1.0000
  H   H18       1.0  0.23334  0.96935  0.36148  1.0000
  H   H19       1.0  0.73333  0.53064  0.86148  1.0000
  H   H20       1.0  0.76666  0.03065  0.63852  1.0000
  H   H21       1.0  0.42048  0.45158  0.07254  1.0000
  H   H22       1.0  0.07952  0.95158  0.42746  1.0000
  H   H23       1.0  0.57952  0.54842  0.92747  1.0000
  H   H24       1.0  0.92048  0.04842  0.57254  1.0000
  H   H25       1.0  0.24322  0.30087  0.95058  1.0000
  H   H26       1.0  0.25678  0.80088  0.54943  1.0000
  H   H27       1.0  0.75678  0.69913  0.04943  1.0000
  H   H28       1.0  0.74322  0.19912  0.45057  1.0000
  H   H29       1.0  0.08792  0.32609  0.01265  1.0000
  H   H30       1.0  0.41208  0.82609  0.48735  1.0000
  H   H31       1.0  0.91207  0.67391  0.98735  1.0000
  H   H32       1.0  0.58792  0.17391  0.51265  1.0000
  H   H33       1.0  0.78651  0.74254  0.33551  1.0000
  H   H34       1.0  0.71350  0.24254  0.16449  1.0000
  H   H35       1.0  0.21349  0.25746  0.66449  1.0000
  H   H36       1.0  0.28650  0.75746  0.83551  1.0000
  H   H37       1.0  0.79622  0.66568  0.22102  1.0000
  H   H38       1.0  0.70378  0.16568  0.27898  1.0000
  H   H39       1.0  0.20378  0.33432  0.77898  1.0000
  H   H40       1.0  0.29622  0.83432  0.72102  1.0000
  H   H41       1.0  0.95176  0.48596  0.34390  1.0000
  H   H42       1.0  0.54825  0.98596  0.15610  1.0000
  H   H43       1.0  0.04824  0.51404  0.65610  1.0000
  H   H44       1.0  0.45176  0.01404  0.84390  1.0000
  H   H45       1.0  0.87303  0.55753  0.43817  1.0000
  H   H46       1.0  0.62697  0.05753  0.06183  1.0000
  H   H47       1.0  0.12697  0.44247  0.56183  1.0000
  H   H48       1.0  0.37303  0.94247  0.93817  1.0000
  C   C1        1.0  0.31883  0.23800  0.32308  1.0000
  C   C2        1.0  0.18117  0.73799  0.17692  1.0000
  C   C3        1.0  0.68117  0.76200  0.67692  1.0000
  C   C4        1.0  0.81883  0.26201  0.82308  1.0000
  C   C5        1.0  0.13583  0.24088  0.29573  1.0000
  C   C6        1.0  0.36417  0.74088  0.20427  1.0000
  C   C7        1.0  0.86417  0.75912  0.70427  1.0000
  C   C8        1.0  0.63583  0.25912  0.79573  1.0000
  C   C9        1.0  0.07128  0.24162  0.38530  1.0000
  C   C10       1.0  0.42872  0.74162  0.11470  1.0000
  C   C11       1.0  0.92872  0.75838  0.61470  1.0000
  C   C12       1.0  0.57128  0.25838  0.88530  1.0000
  C   C13       1.0  0.31736  0.40611  0.09095  1.0000
  C   C14       1.0  0.18265  0.90611  0.40905  1.0000
  C   C15       1.0  0.68264  0.59389  0.90905  1.0000
  C   C16       1.0  0.81736  0.09389  0.59095  1.0000
  C   C17       1.0  0.19299  0.36968  0.99449  1.0000
  C   C18       1.0  0.30701  0.86968  0.50552  1.0000
  C   C19       1.0  0.80702  0.63032  0.00551  1.0000
  C   C20       1.0  0.69299  0.13032  0.49448  1.0000
  C   C21       1.0  0.13893  0.47703  0.92964  1.0000
  C   C22       1.0  0.36107  0.97703  0.57036  1.0000
  C   C23       1.0  0.86107  0.52297  0.07036  1.0000
  C   C24       1.0  0.63893  0.02297  0.42964  1.0000
  C   C25       1.0  0.85195  0.67273  0.30255  1.0000
  C   C26       1.0  0.64805  0.17273  0.19744  1.0000
  C   C27       1.0  0.14805  0.32728  0.69745  1.0000
  C   C28       1.0  0.35195  0.82727  0.80255  1.0000
  C   C29       1.0  0.85435  0.54613  0.35548  1.0000
  C   C30       1.0  0.64565  0.04613  0.14452  1.0000
  C   C31       1.0  0.14565  0.45387  0.64452  1.0000
  C   C32       1.0  0.35435  0.95387  0.85548  1.0000
  C   C33       1.0  0.70735  0.47792  0.31805  1.0000
  C   C34       1.0  0.79265  0.97792  0.18195  1.0000
  C   C35       1.0  0.29265  0.52208  0.68195  1.0000
  C   C36       1.0  0.20735  0.02208  0.81805  1.0000
  Br  Br1       1.0  0.23019  0.06806  0.09137  1.0000
  Br  Br2       1.0  0.26981  0.56805  0.40863  1.0000
  Br  Br3       1.0  0.76982  0.93194  0.90863  1.0000
  Br  Br4       1.0  0.73018  0.43195  0.59137  1.0000
  N   N1        1.0  0.02123  0.24354  0.45790  1.0000
  N   N2        1.0  0.47877  0.74354  0.04210  1.0000
  N   N3        1.0  0.97877  0.75647  0.54211  1.0000
  N   N4        1.0  0.52123  0.25647  0.95790  1.0000
  N   N5        1.0  0.09653  0.56374  0.87810  1.0000
  N   N6        1.0  0.40347  0.06374  0.62189  1.0000
  N   N7        1.0  0.90347  0.43626  0.12189  1.0000
  N   N8        1.0  0.59653  0.93626  0.37810  1.0000
  N   N9        1.0  0.58944  0.42401  0.28421  1.0000
  N   N10       1.0  0.91056  0.92401  0.21579  1.0000
  N   N11       1.0  0.41056  0.57599  0.71579  1.0000
  N   N12       1.0  0.08945  0.07599  0.78421  1.0000
