data_image0
_chemical_formula_structural       Cd2H40C44N12O12
_chemical_formula_sum              "Cd2 H40 C44 N12 O12"
_cell_length_a       7.33045
_cell_length_b       9.5178
_cell_length_c       16.7606
_cell_angle_alpha    89.9999
_cell_angle_beta     90.0001
_cell_angle_gamma    108.736

_space_group_name_H-M_alt    "P 1"
_space_group_IT_number       1

loop_
  _space_group_symop_operation_xyz
  'x, y, z'

loop_
  _atom_site_type_symbol
  _atom_site_label
  _atom_site_symmetry_multiplicity
  _atom_site_fract_x
  _atom_site_fract_y
  _atom_site_fract_z
  _atom_site_occupancy
  Cd  Cd1       1.0  1.00000  0.50000  0.50000  1.0000
  Cd  Cd2       1.0  1.00000  1.00000  1.00000  1.0000
  H   H1        1.0  0.07669  0.46222  0.31271  1.0000
  H   H2        1.0  0.07669  0.96222  0.18729  1.0000
  H   H3        1.0  0.92331  0.53778  0.68729  1.0000
  H   H4        1.0  0.92331  0.03778  0.81271  1.0000
  H   H5        1.0  0.96460  0.52016  0.17914  1.0000
  H   H6        1.0  0.96460  0.02016  0.32086  1.0000
  H   H7        1.0  0.03540  0.47984  0.82086  1.0000
  H   H8        1.0  0.03540  0.97983  0.67914  1.0000
  H   H9        1.0  0.49659  0.61429  0.29939  1.0000
  H   H10       1.0  0.49659  0.11429  0.20060  1.0000
  H   H11       1.0  0.50341  0.38571  0.70061  1.0000
  H   H12       1.0  0.50342  0.88571  0.79940  1.0000
  H   H13       1.0  0.62568  0.55359  0.42701  1.0000
  H   H14       1.0  0.62568  0.05359  0.07299  1.0000
  H   H15       1.0  0.37432  0.44641  0.57299  1.0000
  H   H16       1.0  0.37432  0.94641  0.92701  1.0000
  H   H17       1.0  0.77439  0.64994  0.10827  1.0000
  H   H18       1.0  0.77439  0.14994  0.39173  1.0000
  H   H19       1.0  0.22561  0.35006  0.89173  1.0000
  H   H20       1.0  0.22561  0.85006  0.60827  1.0000
  H   H21       1.0  0.58247  0.69425  0.15674  1.0000
  H   H22       1.0  0.58247  0.19425  0.34326  1.0000
  H   H23       1.0  0.41753  0.30575  0.84326  1.0000
  H   H24       1.0  0.41753  0.80576  0.65674  1.0000
  H   H25       1.0  0.25877  0.52068  0.15964  1.0000
  H   H26       1.0  0.25877  0.02068  0.34036  1.0000
  H   H27       1.0  0.74123  0.47932  0.84036  1.0000
  H   H28       1.0  0.74123  0.97932  0.65964  1.0000
  H   H29       1.0  0.97672  0.20211  0.59646  1.0000
  H   H30       1.0  0.97672  0.70211  0.90354  1.0000
  H   H31       1.0  0.02328  0.79789  0.40354  1.0000
  H   H32       1.0  0.02328  0.29789  0.09646  1.0000
  H   H33       1.0  0.53843  0.32579  0.49306  1.0000
  H   H34       1.0  0.53843  0.82579  0.00694  1.0000
  H   H35       1.0  0.46157  0.67421  0.50694  1.0000
  H   H36       1.0  0.46157  0.17421  0.99306  1.0000
  H   H37       1.0  0.71374  0.39138  0.05035  1.0000
  H   H38       1.0  0.71374  0.89139  0.44965  1.0000
  H   H39       1.0  0.28626  0.60861  0.94965  1.0000
  H   H40       1.0  0.28626  0.10861  0.55036  1.0000
  C   C1        1.0  0.94682  0.49392  0.30690  1.0000
  C   C2        1.0  0.94683  0.99392  0.19310  1.0000
  C   C3        1.0  0.05318  0.50607  0.69310  1.0000
  C   C4        1.0  0.05318  0.00607  0.80690  1.0000
  C   C5        1.0  0.88399  0.52564  0.23297  1.0000
  C   C6        1.0  0.88399  0.02564  0.26703  1.0000
  C   C7        1.0  0.11601  0.47436  0.76703  1.0000
  C   C8        1.0  0.11601  0.97436  0.73297  1.0000
  C   C9        1.0  0.72104  0.57164  0.22813  1.0000
  C   C10       1.0  0.72104  0.07164  0.27187  1.0000
  C   C11       1.0  0.27896  0.42836  0.77187  1.0000
  C   C12       1.0  0.27896  0.92836  0.72813  1.0000
  C   C13       1.0  0.62526  0.58049  0.29910  1.0000
  C   C14       1.0  0.62526  0.08049  0.20090  1.0000
  C   C15       1.0  0.37474  0.41951  0.70090  1.0000
  C   C16       1.0  0.37474  0.91951  0.79910  1.0000
  C   C17       1.0  0.69609  0.54599  0.37076  1.0000
  C   C18       1.0  0.69609  0.04598  0.12924  1.0000
  C   C19       1.0  0.30391  0.45401  0.62924  1.0000
  C   C20       1.0  0.30392  0.95402  0.87076  1.0000
  C   C21       1.0  0.65090  0.60810  0.14867  1.0000
  C   C22       1.0  0.65090  0.10810  0.35133  1.0000
  C   C23       1.0  0.34910  0.39190  0.85133  1.0000
  C   C24       1.0  0.34910  0.89190  0.64867  1.0000
  C   C25       1.0  0.50606  0.47260  0.11226  1.0000
  C   C26       1.0  0.50606  0.97260  0.38773  1.0000
  C   C27       1.0  0.49394  0.52740  0.88774  1.0000
  C   C28       1.0  0.49394  0.02740  0.61227  1.0000
  C   C29       1.0  0.30890  0.44345  0.12503  1.0000
  C   C30       1.0  0.30890  0.94345  0.37497  1.0000
  C   C31       1.0  0.69110  0.55655  0.87497  1.0000
  C   C32       1.0  0.69110  0.05655  0.62503  1.0000
  C   C33       1.0  0.17779  0.32052  0.08941  1.0000
  C   C34       1.0  0.17779  0.82052  0.41059  1.0000
  C   C35       1.0  0.82221  0.67948  0.91059  1.0000
  C   C36       1.0  0.82221  0.17948  0.58941  1.0000
  C   C37       1.0  0.57807  0.24777  0.53139  1.0000
  C   C38       1.0  0.57807  0.74777  0.96861  1.0000
  C   C39       1.0  0.42193  0.75223  0.46861  1.0000
  C   C40       1.0  0.42193  0.25223  0.03139  1.0000
  C   C41       1.0  0.56262  0.37342  0.06436  1.0000
  C   C42       1.0  0.56262  0.87342  0.43564  1.0000
  C   C43       1.0  0.43737  0.62658  0.93564  1.0000
  C   C44       1.0  0.43737  0.12658  0.56436  1.0000
  N   N1        1.0  0.85454  0.50398  0.37524  1.0000
  N   N2        1.0  0.85454  0.00399  0.12476  1.0000
  N   N3        1.0  0.14546  0.49602  0.62476  1.0000
  N   N4        1.0  0.14546  0.99602  0.87524  1.0000
  N   N5        1.0  0.23220  0.22520  0.04340  1.0000
  N   N6        1.0  0.23220  0.72520  0.45660  1.0000
  N   N7        1.0  0.76780  0.77480  0.95660  1.0000
  N   N8        1.0  0.76780  0.27480  0.54340  1.0000
  N   N9        1.0  0.79805  0.71628  0.59647  1.0000
  N   N10       1.0  0.79805  0.21628  0.90353  1.0000
  N   N11       1.0  0.20195  0.28372  0.40353  1.0000
  N   N12       1.0  0.20196  0.78372  0.09647  1.0000
  O   O1        1.0  0.75721  0.58434  0.56602  1.0000
  O   O2        1.0  0.75722  0.08434  0.93398  1.0000
  O   O3        1.0  0.24278  0.41566  0.43398  1.0000
  O   O4        1.0  0.24279  0.91566  0.06602  1.0000
  O   O5        1.0  0.91124  0.82529  0.55993  1.0000
  O   O6        1.0  0.91124  0.32529  0.94007  1.0000
  O   O7        1.0  0.08876  0.17471  0.44007  1.0000
  O   O8        1.0  0.08876  0.67471  0.05993  1.0000
  O   O9        1.0  0.72243  0.73053  0.66197  1.0000
  O   O10       1.0  0.72243  0.23053  0.83803  1.0000
  O   O11       1.0  0.27757  0.26947  0.33803  1.0000
  O   O12       1.0  0.27757  0.76947  0.16197  1.0000
