data_image0
_chemical_formula_structural       Na2B2H32C24S6N12
_chemical_formula_sum              "Na2 B2 H32 C24 S6 N12"
_cell_length_a       7.95786
_cell_length_b       10.0497
_cell_length_c       11.3554
_cell_angle_alpha    79.6782
_cell_angle_beta     82.4447
_cell_angle_gamma    70.5823

_space_group_name_H-M_alt    "P 1"
_space_group_IT_number       1

loop_
  _space_group_symop_operation_xyz
  'x, y, z'

loop_
  _atom_site_type_symbol
  _atom_site_label
  _atom_site_symmetry_multiplicity
  _atom_site_fract_x
  _atom_site_fract_y
  _atom_site_fract_z
  _atom_site_occupancy
  Na  Na1       1.0  0.19223  0.54357  0.54668  1.0000
  Na  Na2       1.0  0.80777  0.45643  0.45332  1.0000
  B   B1        1.0  0.25940  0.36809  0.28610  1.0000
  B   B2        1.0  0.74060  0.63191  0.71390  1.0000
  H   H1        1.0  0.35399  0.41686  0.03416  1.0000
  H   H2        1.0  0.64601  0.58314  0.96584  1.0000
  H   H3        1.0  0.15000  0.34296  0.88964  1.0000
  H   H4        1.0  0.85000  0.65703  0.11036  1.0000
  H   H5        1.0  0.85607  0.16208  0.09794  1.0000
  H   H6        1.0  0.14392  0.83792  0.90206  1.0000
  H   H7        1.0  0.95135  0.18403  0.94490  1.0000
  H   H8        1.0  0.04865  0.81597  0.05510  1.0000
  H   H9        1.0  0.76944  0.32414  0.99970  1.0000
  H   H10       1.0  0.23056  0.67586  0.00030  1.0000
  H   H11       1.0  0.44456  0.13263  0.15447  1.0000
  H   H12       1.0  0.55544  0.86738  0.84553  1.0000
  H   H13       1.0  0.71304  0.91883  0.27745  1.0000
  H   H14       1.0  0.28696  0.08117  0.72255  1.0000
  H   H15       1.0  0.85492  0.05016  0.49985  1.0000
  H   H16       1.0  0.14509  0.94984  0.50015  1.0000
  H   H17       1.0  0.84071  0.88606  0.46691  1.0000
  H   H18       1.0  0.15929  0.11394  0.53309  1.0000
  H   H19       1.0  0.69167  0.97612  0.58069  1.0000
  H   H20       1.0  0.30832  0.02388  0.41931  1.0000
  H   H21       1.0  0.59201  0.43197  0.21010  1.0000
  H   H22       1.0  0.40799  0.56803  0.78990  1.0000
  H   H23       1.0  0.54993  0.72234  0.17637  1.0000
  H   H24       1.0  0.45007  0.27766  0.82363  1.0000
  H   H25       1.0  0.17778  0.94602  0.14261  1.0000
  H   H26       1.0  0.82223  0.05398  0.85739  1.0000
  H   H27       1.0  0.29565  0.92526  0.27235  1.0000
  H   H28       1.0  0.70435  0.07474  0.72765  1.0000
  H   H29       1.0  0.07501  0.91194  0.28928  1.0000
  H   H30       1.0  0.92499  0.08806  0.71071  1.0000
  H   H31       1.0  0.15636  0.37109  0.37446  1.0000
  H   H32       1.0  0.84364  0.62892  0.62554  1.0000
  C   C1        1.0  0.24243  0.37587  0.05778  1.0000
  C   C2        1.0  0.75757  0.62413  0.94222  1.0000
  C   C3        1.0  0.14702  0.33706  0.98647  1.0000
  C   C4        1.0  0.85299  0.66294  0.01353  1.0000
  C   C5        1.0  0.03574  0.30005  0.17936  1.0000
  C   C6        1.0  0.96426  0.69995  0.82065  1.0000
  C   C7        1.0  0.89163  0.23667  0.02380  1.0000
  C   C8        1.0  0.10837  0.76333  0.97620  1.0000
  C   C9        1.0  0.49678  0.12771  0.23900  1.0000
  C   C10       1.0  0.50322  0.87229  0.76100  1.0000
  C   C11       1.0  0.62757  0.02221  0.29856  1.0000
  C   C12       1.0  0.37243  0.97779  0.70144  1.0000
  C   C13       1.0  0.52097  0.20291  0.40864  1.0000
  C   C14       1.0  0.47903  0.79709  0.59136  1.0000
  C   C15       1.0  0.76446  0.99046  0.49312  1.0000
  C   C16       1.0  0.23554  0.00954  0.50689  1.0000
  C   C17       1.0  0.47275  0.52373  0.21733  1.0000
  C   C18       1.0  0.52725  0.47627  0.78267  1.0000
  C   C19       1.0  0.45355  0.66574  0.20199  1.0000
  C   C20       1.0  0.54645  0.33426  0.79800  1.0000
  C   C21       1.0  0.18570  0.63934  0.26984  1.0000
  C   C22       1.0  0.81430  0.36066  0.73016  1.0000
  C   C23       1.0  0.20191  0.88915  0.23413  1.0000
  C   C24       1.0  0.79809  0.11085  0.76587  1.0000
  S   S1        1.0  0.90506  0.25323  0.29765  1.0000
  S   S2        1.0  0.09494  0.74677  0.70235  1.0000
  S   S3        1.0  0.50125  0.30090  0.51965  1.0000
  S   S4        1.0  0.49875  0.69910  0.48035  1.0000
  S   S5        1.0  0.96765  0.67613  0.32393  1.0000
  S   S6        1.0  0.03235  0.32387  0.67607  1.0000
  N   N1        1.0  0.17458  0.35307  0.17624  1.0000
  N   N2        1.0  0.82542  0.64693  0.82376  1.0000
  N   N3        1.0  0.02103  0.28930  0.06213  1.0000
  N   N4        1.0  0.97897  0.71069  0.93787  1.0000
  N   N5        1.0  0.42997  0.23873  0.30715  1.0000
  N   N6        1.0  0.57003  0.76127  0.69285  1.0000
  N   N7        1.0  0.63998  0.06877  0.40336  1.0000
  N   N8        1.0  0.36002  0.93123  0.59664  1.0000
  N   N9        1.0  0.30735  0.50824  0.25840  1.0000
  N   N10       1.0  0.69264  0.49176  0.74160  1.0000
  N   N11       1.0  0.27634  0.73650  0.23371  1.0000
  N   N12       1.0  0.72367  0.26350  0.76629  1.0000
