data_image0
_chemical_formula_structural       Mn4H30C38N2O18
_chemical_formula_sum              "Mn4 H30 C38 N2 O18"
_cell_length_a       9.70578
_cell_length_b       12.1711
_cell_length_c       11.9892
_cell_angle_alpha    104.088
_cell_angle_beta     109.382
_cell_angle_gamma    108.41

_space_group_name_H-M_alt    "P 1"
_space_group_IT_number       1

loop_
  _space_group_symop_operation_xyz
  'x, y, z'

loop_
  _atom_site_type_symbol
  _atom_site_label
  _atom_site_symmetry_multiplicity
  _atom_site_fract_x
  _atom_site_fract_y
  _atom_site_fract_z
  _atom_site_occupancy
  Mn  Mn1       1.0  0.21576  0.33271  0.12805  1.0000
  Mn  Mn2       1.0  0.78425  0.66729  0.87196  1.0000
  Mn  Mn3       1.0  0.00000  0.00000  1.00000  1.0000
  Mn  Mn4       1.0  0.00000  0.50000  1.00000  1.0000
  H   H1        1.0  0.48601  0.37145  0.51889  1.0000
  H   H2        1.0  0.51398  0.62855  0.48111  1.0000
  H   H3        1.0  0.57177  0.14056  0.72934  1.0000
  H   H4        1.0  0.42823  0.85944  0.27066  1.0000
  H   H5        1.0  0.34408  0.95009  0.54313  1.0000
  H   H6        1.0  0.65592  0.04991  0.45687  1.0000
  H   H7        1.0  0.19773  0.97196  0.33868  1.0000
  H   H8        1.0  0.80226  0.02804  0.66133  1.0000
  H   H9        1.0  0.71477  0.00959  0.85249  1.0000
  H   H10       1.0  0.28523  0.99041  0.14751  1.0000
  H   H11       1.0  0.41967  0.87189  0.75047  1.0000
  H   H12       1.0  0.58033  0.12811  0.24954  1.0000
  H   H13       1.0  0.23719  0.95238  0.81435  1.0000
  H   H14       1.0  0.76282  0.04763  0.18566  1.0000
  H   H15       1.0  0.64577  0.30792  0.07030  1.0000
  H   H16       1.0  0.35424  0.69208  0.92970  1.0000
  H   H17       1.0  0.37239  0.48416  0.91064  1.0000
  H   H18       1.0  0.62760  0.51584  0.08935  1.0000
  H   H19       1.0  0.37232  0.43404  0.75707  1.0000
  H   H20       1.0  0.62766  0.56596  0.24291  1.0000
  H   H21       1.0  0.43650  0.36456  0.86716  1.0000
  H   H22       1.0  0.56349  0.63545  0.13283  1.0000
  H   H23       1.0  0.00146  0.13973  0.62781  1.0000
  H   H24       1.0  0.99854  0.86026  0.37218  1.0000
  H   H25       1.0  0.20226  0.15167  0.67434  1.0000
  H   H26       1.0  0.79774  0.84833  0.32565  1.0000
  H   H27       1.0  0.13752  0.23740  0.58368  1.0000
  H   H28       1.0  0.86247  0.76259  0.41631  1.0000
  H   H29       1.0  0.96691  0.24180  0.78514  1.0000
  H   H30       1.0  0.03309  0.75818  0.21487  1.0000
  C   C1        1.0  0.24647  0.18177  0.29278  1.0000
  C   C2        1.0  0.75352  0.81823  0.70721  1.0000
  C   C3        1.0  0.33296  0.17209  0.41676  1.0000
  C   C4        1.0  0.66703  0.82791  0.58325  1.0000
  C   C5        1.0  0.45618  0.27915  0.52373  1.0000
  C   C6        1.0  0.54382  0.72085  0.47627  1.0000
  C   C7        1.0  0.54326  0.26687  0.63566  1.0000
  C   C8        1.0  0.45674  0.73314  0.36434  1.0000
  C   C9        1.0  0.50257  0.14825  0.64180  1.0000
  C   C10       1.0  0.49743  0.85174  0.35820  1.0000
  C   C11       1.0  0.37515  0.04206  0.53718  1.0000
  C   C12       1.0  0.62485  0.95794  0.46282  1.0000
  C   C13       1.0  0.29267  0.05363  0.42423  1.0000
  C   C14       1.0  0.70733  0.94638  0.57577  1.0000
  C   C15       1.0  0.87696  0.24690  0.03025  1.0000
  C   C16       1.0  0.12304  0.75309  0.96975  1.0000
  C   C17       1.0  0.69934  0.16692  0.96834  1.0000
  C   C18       1.0  0.30067  0.83308  0.03167  1.0000
  C   C19       1.0  0.63452  0.04394  0.87852  1.0000
  C   C20       1.0  0.36549  0.95607  0.12149  1.0000
  C   C21       1.0  0.46850  0.96719  0.82058  1.0000
  C   C22       1.0  0.53150  0.03281  0.17942  1.0000
  C   C23       1.0  0.36661  0.01161  0.85457  1.0000
  C   C24       1.0  0.63340  0.98838  0.14543  1.0000
  C   C25       1.0  0.43037  0.13432  0.94515  1.0000
  C   C26       1.0  0.56964  0.86569  0.05486  1.0000
  C   C27       1.0  0.59620  0.21291  0.99978  1.0000
  C   C28       1.0  0.40381  0.78709  0.00023  1.0000
  C   C29       1.0  0.35159  0.40393  0.83148  1.0000
  C   C30       1.0  0.64840  0.59607  0.16851  1.0000
  C   C31       1.0  0.12781  0.20347  0.65896  1.0000
  C   C32       1.0  0.87219  0.79652  0.34103  1.0000
  C   C33       1.0  0.09204  0.31636  0.83654  1.0000
  C   C34       1.0  0.90795  0.68363  0.16346  1.0000
  C   C35       1.0  0.67808  0.38080  0.74953  1.0000
  C   C36       1.0  0.32191  0.61920  0.25046  1.0000
  C   C37       1.0  0.31989  0.17454  0.98834  1.0000
  C   C38       1.0  0.68011  0.82546  0.01166  1.0000
  N   N1        1.0  0.18522  0.30917  0.77758  1.0000
  N   N2        1.0  0.81478  0.69082  0.22241  1.0000
  O   O1        1.0  0.27521  0.29073  0.29146  1.0000
  O   O2        1.0  0.72478  0.70927  0.70855  1.0000
  O   O3        1.0  0.15105  0.07836  0.19618  1.0000
  O   O4        1.0  0.84896  0.92165  0.80382  1.0000
  O   O5        1.0  0.97153  0.19260  0.02652  1.0000
  O   O6        1.0  0.02847  0.80740  0.97348  1.0000
  O   O7        1.0  0.93387  0.36559  0.08540  1.0000
  O   O8        1.0  0.06614  0.63441  0.91460  1.0000
  O   O9        1.0  0.14030  0.40138  0.94440  1.0000
  O   O10       1.0  0.85970  0.59861  0.05559  1.0000
  O   O11       1.0  0.79407  0.36808  0.82567  1.0000
  O   O12       1.0  0.20594  0.63192  0.17433  1.0000
  O   O13       1.0  0.66375  0.48283  0.76108  1.0000
  O   O14       1.0  0.33626  0.51718  0.23892  1.0000
  O   O15       1.0  0.37420  0.28877  0.06408  1.0000
  O   O16       1.0  0.62580  0.71123  0.93592  1.0000
  O   O17       1.0  0.17632  0.09169  0.94746  1.0000
  O   O18       1.0  0.82369  0.90831  0.05255  1.0000
