data_image0
_chemical_formula_structural       Tl8H8C16S4N8O8
_chemical_formula_sum              "Tl8 H8 C16 S4 N8 O8"
_cell_length_a       3.92756
_cell_length_b       12.8282
_cell_length_c       15.1021
_cell_angle_alpha    90.0003
_cell_angle_beta     96.0642
_cell_angle_gamma    89.9992

_space_group_name_H-M_alt    "P 1"
_space_group_IT_number       1

loop_
  _space_group_symop_operation_xyz
  'x, y, z'

loop_
  _atom_site_type_symbol
  _atom_site_label
  _atom_site_symmetry_multiplicity
  _atom_site_fract_x
  _atom_site_fract_y
  _atom_site_fract_z
  _atom_site_occupancy
  Tl  Tl1       1.0  0.50639  0.67153  0.93797  1.0000
  Tl  Tl2       1.0  0.99362  0.17153  0.56203  1.0000
  Tl  Tl3       1.0  0.49361  0.32847  0.06203  1.0000
  Tl  Tl4       1.0  0.00638  0.82847  0.43797  1.0000
  Tl  Tl5       1.0  0.30135  0.09809  0.89877  1.0000
  Tl  Tl6       1.0  0.19865  0.59809  0.60123  1.0000
  Tl  Tl7       1.0  0.69865  0.90191  0.10123  1.0000
  Tl  Tl8       1.0  0.80134  0.40191  0.39877  1.0000
  H   H1        1.0  0.61891  0.24439  0.74524  1.0000
  H   H2        1.0  0.88110  0.74438  0.75476  1.0000
  H   H3        1.0  0.38110  0.75562  0.25476  1.0000
  H   H4        1.0  0.11890  0.25562  0.24524  1.0000
  H   H5        1.0  0.05270  0.46908  0.92839  1.0000
  H   H6        1.0  0.44732  0.96908  0.57160  1.0000
  H   H7        1.0  0.94732  0.53092  0.07161  1.0000
  H   H8        1.0  0.55268  0.03091  0.42839  1.0000
  C   C1        1.0  0.64319  0.39526  0.69537  1.0000
  C   C2        1.0  0.85681  0.89526  0.80463  1.0000
  C   C3        1.0  0.35680  0.60474  0.30463  1.0000
  C   C4        1.0  0.14319  0.10474  0.19537  1.0000
  C   C5        1.0  0.89104  0.52275  0.79386  1.0000
  C   C6        1.0  0.60899  0.02274  0.70614  1.0000
  C   C7        1.0  0.10896  0.47725  0.20615  1.0000
  C   C8        1.0  0.39102  0.97725  0.29386  1.0000
  C   C9        1.0  0.82262  0.34460  0.84757  1.0000
  C   C10       1.0  0.67739  0.84460  0.65242  1.0000
  C   C11       1.0  0.17739  0.65540  0.15243  1.0000
  C   C12       1.0  0.32260  0.15540  0.34758  1.0000
  C   C13       1.0  0.92869  0.44828  0.86292  1.0000
  C   C14       1.0  0.57132  0.94828  0.63708  1.0000
  C   C15       1.0  0.07132  0.55172  0.13709  1.0000
  C   C16       1.0  0.42867  0.05172  0.36292  1.0000
  S   S1        1.0  0.46708  0.36043  0.58979  1.0000
  S   S2        1.0  0.03291  0.86043  0.91020  1.0000
  S   S3        1.0  0.53291  0.63957  0.41021  1.0000
  S   S4        1.0  0.96710  0.13957  0.08979  1.0000
  N   N1        1.0  0.68493  0.32125  0.76062  1.0000
  N   N2        1.0  0.81507  0.82125  0.73938  1.0000
  N   N3        1.0  0.31507  0.67875  0.23938  1.0000
  N   N4        1.0  0.18493  0.17875  0.26062  1.0000
  N   N5        1.0  0.73672  0.49372  0.71085  1.0000
  N   N6        1.0  0.76329  0.99373  0.78915  1.0000
  N   N7        1.0  0.26327  0.50628  0.28916  1.0000
  N   N8        1.0  0.23672  0.00627  0.21085  1.0000
  O   O1        1.0  0.99291  0.61827  0.80350  1.0000
  O   O2        1.0  0.50712  0.11827  0.69649  1.0000
  O   O3        1.0  0.00709  0.38173  0.19650  1.0000
  O   O4        1.0  0.49290  0.88173  0.30350  1.0000
  O   O5        1.0  0.84295  0.27155  0.90537  1.0000
  O   O6        1.0  0.65705  0.77155  0.59462  1.0000
  O   O7        1.0  0.15706  0.72845  0.09463  1.0000
  O   O8        1.0  0.34294  0.22845  0.40538  1.0000
