data_image0
_chemical_formula_structural       Mn4H32C48N8O16
_chemical_formula_sum              "Mn4 H32 C48 N8 O16"
_cell_length_a       7.87112
_cell_length_b       8.75407
_cell_length_c       16.6989
_cell_angle_alpha    90
_cell_angle_beta     90.0001
_cell_angle_gamma    100.658

_space_group_name_H-M_alt    "P 1"
_space_group_IT_number       1

loop_
  _space_group_symop_operation_xyz
  'x, y, z'

loop_
  _atom_site_type_symbol
  _atom_site_label
  _atom_site_symmetry_multiplicity
  _atom_site_fract_x
  _atom_site_fract_y
  _atom_site_fract_z
  _atom_site_occupancy
  Mn  Mn1       1.0  0.53780  0.16685  0.21078  1.0000
  Mn  Mn2       1.0  0.96220  0.83315  0.71078  1.0000
  Mn  Mn3       1.0  0.46220  0.83315  0.78922  1.0000
  Mn  Mn4       1.0  0.03780  0.16685  0.28922  1.0000
  H   H1        1.0  0.15414  0.12749  0.82461  1.0000
  H   H2        1.0  0.34587  0.87251  0.32461  1.0000
  H   H3        1.0  0.84586  0.87251  0.17539  1.0000
  H   H4        1.0  0.65414  0.12749  0.67539  1.0000
  H   H5        1.0  0.71612  0.11380  0.98018  1.0000
  H   H6        1.0  0.78389  0.88620  0.48018  1.0000
  H   H7        1.0  0.28388  0.88620  0.01982  1.0000
  H   H8        1.0  0.21611  0.11380  0.51982  1.0000
  H   H9        1.0  0.22763  0.28010  0.06981  1.0000
  H   H10       1.0  0.27236  0.71989  0.56981  1.0000
  H   H11       1.0  0.77236  0.71990  0.93019  1.0000
  H   H12       1.0  0.72763  0.28011  0.43019  1.0000
  H   H13       1.0  0.46962  0.25893  0.99179  1.0000
  H   H14       1.0  0.03038  0.74107  0.49179  1.0000
  H   H15       1.0  0.53038  0.74107  0.00822  1.0000
  H   H16       1.0  0.96962  0.25893  0.50821  1.0000
  H   H17       1.0  0.44216  0.13475  0.90691  1.0000
  H   H18       1.0  0.05784  0.86525  0.40690  1.0000
  H   H19       1.0  0.55784  0.86525  0.09310  1.0000
  H   H20       1.0  0.94216  0.13475  0.59309  1.0000
  H   H21       1.0  0.34285  0.54759  0.92760  1.0000
  H   H22       1.0  0.15716  0.45241  0.42759  1.0000
  H   H23       1.0  0.65715  0.45241  0.07241  1.0000
  H   H24       1.0  0.84285  0.54759  0.57240  1.0000
  H   H25       1.0  0.67513  0.55446  0.72920  1.0000
  H   H26       1.0  0.82487  0.44554  0.22919  1.0000
  H   H27       1.0  0.32487  0.44554  0.27080  1.0000
  H   H28       1.0  0.17513  0.55446  0.77080  1.0000
  H   H29       1.0  0.62116  0.25936  0.79848  1.0000
  H   H30       1.0  0.87883  0.74064  0.29848  1.0000
  H   H31       1.0  0.37883  0.74064  0.20152  1.0000
  H   H32       1.0  0.12117  0.25936  0.70152  1.0000
  C   C1        1.0  0.21126  0.21394  0.94475  1.0000
  C   C2        1.0  0.28874  0.78606  0.44475  1.0000
  C   C3        1.0  0.78874  0.78606  0.05525  1.0000
  C   C4        1.0  0.71126  0.21394  0.55525  1.0000
  C   C5        1.0  0.10044  0.15491  0.88194  1.0000
  C   C6        1.0  0.39956  0.84509  0.38193  1.0000
  C   C7        1.0  0.89956  0.84509  0.11807  1.0000
  C   C8        1.0  0.60044  0.15491  0.61806  1.0000
  C   C9        1.0  0.92173  0.11925  0.89427  1.0000
  C   C10       1.0  0.57828  0.88076  0.39427  1.0000
  C   C11       1.0  0.07828  0.88075  0.10573  1.0000
  C   C12       1.0  0.42172  0.11924  0.60573  1.0000
  C   C13       1.0  0.85420  0.14671  0.96942  1.0000
  C   C14       1.0  0.64580  0.85329  0.46943  1.0000
  C   C15       1.0  0.14580  0.85329  0.03058  1.0000
  C   C16       1.0  0.35420  0.14671  0.53057  1.0000
  C   C17       1.0  0.96358  0.20571  0.03221  1.0000
  C   C18       1.0  0.53642  0.79428  0.53221  1.0000
  C   C19       1.0  0.03642  0.79429  0.96779  1.0000
  C   C20       1.0  0.46358  0.20571  0.46779  1.0000
  C   C21       1.0  0.14270  0.23987  0.01949  1.0000
  C   C22       1.0  0.35729  0.76012  0.51949  1.0000
  C   C23       1.0  0.85730  0.76013  0.98051  1.0000
  C   C24       1.0  0.64271  0.23988  0.48051  1.0000
  C   C25       1.0  0.40434  0.23810  0.93357  1.0000
  C   C26       1.0  0.09566  0.76189  0.43357  1.0000
  C   C27       1.0  0.59566  0.76190  0.06643  1.0000
  C   C28       1.0  0.90434  0.23811  0.56643  1.0000
  C   C29       1.0  0.43011  0.51302  0.88384  1.0000
  C   C30       1.0  0.06989  0.48698  0.38384  1.0000
  C   C31       1.0  0.56989  0.48698  0.11616  1.0000
  C   C32       1.0  0.93011  0.51302  0.61616  1.0000
  C   C33       1.0  0.60068  0.51054  0.78151  1.0000
  C   C34       1.0  0.89932  0.48946  0.28150  1.0000
  C   C35       1.0  0.39932  0.48946  0.21849  1.0000
  C   C36       1.0  0.10068  0.51054  0.71849  1.0000
  C   C37       1.0  0.57695  0.36489  0.81495  1.0000
  C   C38       1.0  0.92305  0.63511  0.31495  1.0000
  C   C39       1.0  0.42306  0.63511  0.18505  1.0000
  C   C40       1.0  0.07695  0.36489  0.68505  1.0000
  C   C41       1.0  0.80461  0.03547  0.83154  1.0000
  C   C42       1.0  0.69539  0.96454  0.33154  1.0000
  C   C43       1.0  0.19539  0.96454  0.16846  1.0000
  C   C44       1.0  0.30461  0.03546  0.66846  1.0000
  C   C45       1.0  0.89152  0.21515  0.11478  1.0000
  C   C46       1.0  0.60848  0.78485  0.61479  1.0000
  C   C47       1.0  0.10848  0.78485  0.88522  1.0000
  C   C48       1.0  0.39152  0.21515  0.38521  1.0000
  N   N1        1.0  0.46852  0.36833  0.87966  1.0000
  N   N2        1.0  0.03148  0.63167  0.37966  1.0000
  N   N3        1.0  0.53148  0.63167  0.12034  1.0000
  N   N4        1.0  0.96852  0.36833  0.62034  1.0000
  N   N5        1.0  0.50842  0.60228  0.82481  1.0000
  N   N6        1.0  0.99158  0.39772  0.32481  1.0000
  N   N7        1.0  0.49158  0.39771  0.17519  1.0000
  N   N8        1.0  0.00842  0.60228  0.67519  1.0000
  O   O1        1.0  0.86285  0.02081  0.76128  1.0000
  O   O2        1.0  0.63715  0.97920  0.26128  1.0000
  O   O3        1.0  0.13715  0.97920  0.23872  1.0000
  O   O4        1.0  0.36285  0.02080  0.73872  1.0000
  O   O5        1.0  0.64900  0.98052  0.85316  1.0000
  O   O6        1.0  0.85101  0.01949  0.35316  1.0000
  O   O7        1.0  0.35101  0.01948  0.14684  1.0000
  O   O8        1.0  0.14900  0.98052  0.64684  1.0000
  O   O9        1.0  0.72785  0.20107  0.12132  1.0000
  O   O10       1.0  0.77215  0.79893  0.62132  1.0000
  O   O11       1.0  0.27215  0.79893  0.87868  1.0000
  O   O12       1.0  0.22785  0.20107  0.37868  1.0000
  O   O13       1.0  0.99860  0.23476  0.17252  1.0000
  O   O14       1.0  0.50140  0.76524  0.67252  1.0000
  O   O15       1.0  0.00140  0.76524  0.82748  1.0000
  O   O16       1.0  0.49860  0.23476  0.32748  1.0000
