data_image0
_chemical_formula_structural       Mn2H34C48N10O8
_chemical_formula_sum              "Mn2 H34 C48 N10 O8"
_cell_length_a       8.43972
_cell_length_b       10.3779
_cell_length_c       14.5687
_cell_angle_alpha    99.2434
_cell_angle_beta     91.9115
_cell_angle_gamma    109.192

_space_group_name_H-M_alt    "P 1"
_space_group_IT_number       1

loop_
  _space_group_symop_operation_xyz
  'x, y, z'

loop_
  _atom_site_type_symbol
  _atom_site_label
  _atom_site_symmetry_multiplicity
  _atom_site_fract_x
  _atom_site_fract_y
  _atom_site_fract_z
  _atom_site_occupancy
  Mn  Mn1       1.0  0.77284  0.23243  0.24313  1.0000
  Mn  Mn2       1.0  0.22716  0.76757  0.75687  1.0000
  H   H1        1.0  0.80582  0.27349  0.59989  1.0000
  H   H2        1.0  0.19416  0.72650  0.40011  1.0000
  H   H3        1.0  0.40785  0.40085  0.11908  1.0000
  H   H4        1.0  0.59214  0.59915  0.88092  1.0000
  H   H5        1.0  0.81530  0.75658  0.26058  1.0000
  H   H6        1.0  0.18470  0.24341  0.73942  1.0000
  H   H7        1.0  0.43125  0.81457  0.08770  1.0000
  H   H8        1.0  0.56878  0.18543  0.91230  1.0000
  H   H9        1.0  0.18829  0.62350  0.02380  1.0000
  H   H10       1.0  0.81173  0.37651  0.97620  1.0000
  H   H11       1.0  0.27882  0.51337  0.95616  1.0000
  H   H12       1.0  0.72120  0.48664  0.04384  1.0000
  H   H13       1.0  0.04053  0.51119  0.17648  1.0000
  H   H14       1.0  0.95948  0.48881  0.82352  1.0000
  H   H15       1.0  0.88498  0.09603  0.03661  1.0000
  H   H16       1.0  0.11503  0.90397  0.96339  1.0000
  H   H17       1.0  0.12617  0.25963  0.93707  1.0000
  H   H18       1.0  0.87384  0.74037  0.06293  1.0000
  H   H19       1.0  0.18421  0.34436  0.24903  1.0000
  H   H20       1.0  0.81579  0.65564  0.75097  1.0000
  H   H21       1.0  0.43073  0.43934  0.36629  1.0000
  H   H22       1.0  0.56926  0.56067  0.63371  1.0000
  H   H23       1.0  0.37971  0.45926  0.53865  1.0000
  H   H24       1.0  0.62028  0.54075  0.46135  1.0000
  H   H25       1.0  0.08969  0.38087  0.58230  1.0000
  H   H26       1.0  0.91030  0.61913  0.41770  1.0000
  H   H27       1.0  0.34051  0.09939  0.30364  1.0000
  H   H28       1.0  0.65948  0.90062  0.69635  1.0000
  H   H29       1.0  0.10759  0.02933  0.40595  1.0000
  H   H30       1.0  0.89240  0.97068  0.59404  1.0000
  H   H31       1.0  0.16982  0.05955  0.57891  1.0000
  H   H32       1.0  0.83016  0.94046  0.42108  1.0000
  H   H33       1.0  0.46148  0.16414  0.65311  1.0000
  H   H34       1.0  0.53850  0.83587  0.34689  1.0000
  C   C1        1.0  0.40109  0.60061  0.09503  1.0000
  C   C2        1.0  0.59892  0.39939  0.90497  1.0000
  C   C3        1.0  0.46816  0.51341  0.13472  1.0000
  C   C4        1.0  0.53184  0.48659  0.86528  1.0000
  C   C5        1.0  0.61790  0.56906  0.19412  1.0000
  C   C6        1.0  0.38210  0.43093  0.80589  1.0000
  C   C7        1.0  0.69889  0.71277  0.21461  1.0000
  C   C8        1.0  0.30112  0.28722  0.78539  1.0000
  C   C9        1.0  0.63090  0.80093  0.17695  1.0000
  C   C10       1.0  0.36912  0.19906  0.82306  1.0000
  C   C11       1.0  0.48226  0.74430  0.11683  1.0000
  C   C12       1.0  0.51775  0.25570  0.88317  1.0000
  C   C13       1.0  0.24555  0.54321  0.02664  1.0000
  C   C14       1.0  0.75446  0.45680  0.97336  1.0000
  C   C15       1.0  0.03136  0.41962  0.12578  1.0000
  C   C16       1.0  0.96864  0.58039  0.87422  1.0000
  C   C17       1.0  0.95422  0.20660  0.05102  1.0000
  C   C18       1.0  0.04579  0.79341  0.94898  1.0000
  C   C19       1.0  0.07233  0.28563  0.00104  1.0000
  C   C20       1.0  0.92767  0.71437  0.99896  1.0000
  C   C21       1.0  0.69764  0.47513  0.23122  1.0000
  C   C22       1.0  0.30235  0.52486  0.76878  1.0000
  C   C23       1.0  0.71530  0.95557  0.20395  1.0000
  C   C24       1.0  0.28473  0.04443  0.79605  1.0000
  C   C25       1.0  0.16661  0.35550  0.32321  1.0000
  C   C26       1.0  0.83339  0.64450  0.67680  1.0000
  C   C27       1.0  0.30483  0.40935  0.38986  1.0000
  C   C28       1.0  0.69517  0.59066  0.61014  1.0000
  C   C29       1.0  0.27613  0.41903  0.48396  1.0000
  C   C30       1.0  0.72386  0.58097  0.51604  1.0000
  C   C31       1.0  0.11161  0.37298  0.50847  1.0000
  C   C32       1.0  0.88838  0.62701  0.49153  1.0000
  C   C33       1.0  0.98034  0.31962  0.43697  1.0000
  C   C34       1.0  0.01965  0.68037  0.56304  1.0000
  C   C35       1.0  0.80337  0.26477  0.45291  1.0000
  C   C36       1.0  0.19662  0.73522  0.54709  1.0000
  C   C37       1.0  0.56458  0.19045  0.51966  1.0000
  C   C38       1.0  0.43541  0.80955  0.48033  1.0000
  C   C39       1.0  0.53145  0.17179  0.42123  1.0000
  C   C40       1.0  0.46854  0.82821  0.57876  1.0000
  C   C41       1.0  0.36605  0.11217  0.37894  1.0000
  C   C42       1.0  0.63393  0.88784  0.62105  1.0000
  C   C43       1.0  0.23771  0.07299  0.43706  1.0000
  C   C44       1.0  0.76227  0.92702  0.56293  1.0000
  C   C45       1.0  0.27220  0.09180  0.53477  1.0000
  C   C46       1.0  0.72779  0.90820  0.46522  1.0000
  C   C47       1.0  0.43604  0.15060  0.57785  1.0000
  C   C48       1.0  0.56395  0.84940  0.42214  1.0000
  N   N1        1.0  0.00744  0.31289  0.34528  1.0000
  N   N2        1.0  0.99256  0.68710  0.65472  1.0000
  N   N3        1.0  0.68247  0.21957  0.38248  1.0000
  N   N4        1.0  0.31753  0.78043  0.61752  1.0000
  N   N5        1.0  0.73809  0.24997  0.53693  1.0000
  N   N6        1.0  0.26189  0.75003  0.46306  1.0000
  N   N7        1.0  0.93001  0.29141  0.12860  1.0000
  N   N8        1.0  0.07000  0.70859  0.87140  1.0000
  N   N9        1.0  0.11971  0.42053  0.04960  1.0000
  N   N10       1.0  0.88029  0.57947  0.95040  1.0000
  O   O1        1.0  0.61420  0.34426  0.21172  1.0000
  O   O2        1.0  0.38579  0.65572  0.78827  1.0000
  O   O3        1.0  0.84210  0.52767  0.27561  1.0000
  O   O4        1.0  0.15789  0.47232  0.72439  1.0000
  O   O5        1.0  0.63687  0.03152  0.17462  1.0000
  O   O6        1.0  0.36316  0.96848  0.82539  1.0000
  O   O7        1.0  0.85320  0.00392  0.25420  1.0000
  O   O8        1.0  0.14682  0.99608  0.74580  1.0000
