data_image0
_chemical_formula_structural       H24Pb2C40O8F12
_chemical_formula_sum              "H24 Pb2 C40 O8 F12"
_cell_length_a       8.15661
_cell_length_b       11.0068
_cell_length_c       12.1008
_cell_angle_alpha    117.044
_cell_angle_beta     95.4716
_cell_angle_gamma    89.9659

_space_group_name_H-M_alt    "P 1"
_space_group_IT_number       1

loop_
  _space_group_symop_operation_xyz
  'x, y, z'

loop_
  _atom_site_type_symbol
  _atom_site_label
  _atom_site_symmetry_multiplicity
  _atom_site_fract_x
  _atom_site_fract_y
  _atom_site_fract_z
  _atom_site_occupancy
  H   H1        1.0  0.68449  0.57101  0.73002  1.0000
  H   H2        1.0  0.81563  0.84110  0.26972  1.0000
  H   H3        1.0  0.31551  0.42899  0.26998  1.0000
  H   H4        1.0  0.18437  0.15890  0.73027  1.0000
  H   H5        1.0  0.67805  0.48806  0.54686  1.0000
  H   H6        1.0  0.82261  0.94103  0.45287  1.0000
  H   H7        1.0  0.32196  0.51195  0.45315  1.0000
  H   H8        1.0  0.17739  0.05897  0.54713  1.0000
  H   H9        1.0  0.76589  0.37233  0.33613  1.0000
  H   H10       1.0  0.73469  0.03570  0.66364  1.0000
  H   H11       1.0  0.23411  0.62767  0.66387  1.0000
  H   H12       1.0  0.26531  0.96430  0.33636  1.0000
  H   H13       1.0  0.94168  0.49846  0.26064  1.0000
  H   H14       1.0  0.55862  0.23721  0.73927  1.0000
  H   H15       1.0  0.05832  0.50154  0.73936  1.0000
  H   H16       1.0  0.44138  0.76279  0.26073  1.0000
  H   H17       1.0  0.03482  0.74019  0.40119  1.0000
  H   H18       1.0  0.46543  0.33884  0.59900  1.0000
  H   H19       1.0  0.96518  0.25981  0.59881  1.0000
  H   H20       1.0  0.53457  0.66115  0.40100  1.0000
  H   H21       1.0  0.94445  0.85764  0.61538  1.0000
  H   H22       1.0  0.55586  0.24253  0.38486  1.0000
  H   H23       1.0  0.05556  0.14236  0.38462  1.0000
  H   H24       1.0  0.44414  0.75747  0.61514  1.0000
  Pb  Pb1       1.0  0.74986  0.05389  0.99990  1.0000
  Pb  Pb2       1.0  0.25013  0.94611  0.00010  1.0000
  C   C1        1.0  0.59360  0.73550  0.88072  1.0000
  C   C2        1.0  0.90660  0.85470  0.11901  1.0000
  C   C3        1.0  0.40640  0.26449  0.11928  1.0000
  C   C4        1.0  0.09340  0.14530  0.88099  1.0000
  C   C5        1.0  0.67855  0.68130  0.77678  1.0000
  C   C6        1.0  0.82172  0.90465  0.22301  1.0000
  C   C7        1.0  0.32145  0.31870  0.22322  1.0000
  C   C8        1.0  0.17828  0.09535  0.77699  1.0000
  C   C9        1.0  0.75364  0.75746  0.72374  1.0000
  C   C10       1.0  0.74678  0.03395  0.27619  1.0000
  C   C11       1.0  0.24636  0.24254  0.27626  1.0000
  C   C12       1.0  0.25322  0.96605  0.72381  1.0000
  C   C13       1.0  0.80565  0.68207  0.59602  1.0000
  C   C14       1.0  0.69482  0.08611  0.40392  1.0000
  C   C15       1.0  0.19435  0.31794  0.40399  1.0000
  C   C16       1.0  0.30518  0.91389  0.59608  1.0000
  C   C17       1.0  0.75615  0.54474  0.51633  1.0000
  C   C18       1.0  0.74445  0.02826  0.48351  1.0000
  C   C19       1.0  0.24385  0.45527  0.48367  1.0000
  C   C20       1.0  0.25555  0.97175  0.51649  1.0000
  C   C21       1.0  0.80455  0.47907  0.39639  1.0000
  C   C22       1.0  0.69596  0.08228  0.60341  1.0000
  C   C23       1.0  0.19546  0.52094  0.60361  1.0000
  C   C24       1.0  0.30404  0.91771  0.39659  1.0000
  C   C25       1.0  0.90373  0.54966  0.35443  1.0000
  C   C26       1.0  0.59658  0.19481  0.64549  1.0000
  C   C27       1.0  0.09627  0.45034  0.64557  1.0000
  C   C28       1.0  0.40342  0.80519  0.35451  1.0000
  C   C29       1.0  0.95473  0.68600  0.43306  1.0000
  C   C30       1.0  0.54557  0.25274  0.56701  1.0000
  C   C31       1.0  0.04527  0.31401  0.56694  1.0000
  C   C32       1.0  0.45443  0.74726  0.43299  1.0000
  C   C33       1.0  0.90558  0.75170  0.55267  1.0000
  C   C34       1.0  0.59475  0.19908  0.44742  1.0000
  C   C35       1.0  0.09442  0.24831  0.44733  1.0000
  C   C36       1.0  0.40525  0.80092  0.55258  1.0000
  C   C37       1.0  0.51170  0.63408  0.91622  1.0000
  C   C38       1.0  0.98838  0.71765  0.08357  1.0000
  C   C39       1.0  0.48830  0.36592  0.08377  1.0000
  C   C40       1.0  0.01162  0.28235  0.91643  1.0000
  O   O1        1.0  0.56554  0.86091  0.95384  1.0000
  O   O2        1.0  0.93471  0.90691  0.04586  1.0000
  O   O3        1.0  0.43446  0.13908  0.04616  1.0000
  O   O4        1.0  0.06530  0.09309  0.95414  1.0000
  O   O5        1.0  0.77704  0.88651  0.77926  1.0000
  O   O6        1.0  0.72333  0.10769  0.22080  1.0000
  O   O7        1.0  0.22296  0.11350  0.22074  1.0000
  O   O8        1.0  0.27667  0.89232  0.77920  1.0000
  F   F1        1.0  0.54610  0.67208  0.04030  1.0000
  F   F2        1.0  0.95392  0.63153  0.95951  1.0000
  F   F3        1.0  0.45390  0.32791  0.95969  1.0000
  F   F4        1.0  0.04609  0.36847  0.04049  1.0000
  F   F5        1.0  0.34294  0.63212  0.89350  1.0000
  F   F6        1.0  0.15713  0.73818  0.10627  1.0000
  F   F7        1.0  0.65706  0.36788  0.10650  1.0000
  F   F8        1.0  0.84287  0.26182  0.89373  1.0000
  F   F9        1.0  0.55721  0.50361  0.85290  1.0000
  F   F10       1.0  0.94274  0.65066  0.14696  1.0000
  F   F11       1.0  0.44279  0.49638  0.14709  1.0000
  F   F12       1.0  0.05726  0.34934  0.85304  1.0000
