data_image0
_chemical_formula_structural       Na4H8C28O12F20
_chemical_formula_sum              "Na4 H8 C28 O12 F20"
_cell_length_a       5.43289
_cell_length_b       9.25937
_cell_length_c       16.7944
_cell_angle_alpha    95.0803
_cell_angle_beta     90.0002
_cell_angle_gamma    89.9997

_space_group_name_H-M_alt    "P 1"
_space_group_IT_number       1

loop_
  _space_group_symop_operation_xyz
  'x, y, z'

loop_
  _atom_site_type_symbol
  _atom_site_label
  _atom_site_symmetry_multiplicity
  _atom_site_fract_x
  _atom_site_fract_y
  _atom_site_fract_z
  _atom_site_occupancy
  Na  Na1       1.0  0.69366  0.59401  0.44438  1.0000
  Na  Na2       1.0  0.19366  0.40600  0.55562  1.0000
  Na  Na3       1.0  0.70219  0.21810  0.41555  1.0000
  Na  Na4       1.0  0.20219  0.78190  0.58445  1.0000
  H   H1        1.0  0.40597  0.86901  0.44216  1.0000
  H   H2        1.0  0.90598  0.13099  0.55784  1.0000
  H   H3        1.0  0.21492  0.74849  0.41717  1.0000
  H   H4        1.0  0.71494  0.25151  0.58283  1.0000
  H   H5        1.0  0.36818  0.05849  0.51438  1.0000
  H   H6        1.0  0.86816  0.94151  0.48561  1.0000
  H   H7        1.0  0.20951  0.05681  0.43435  1.0000
  H   H8        1.0  0.70950  0.94319  0.56564  1.0000
  C   C1        1.0  0.89851  0.87505  0.34394  1.0000
  C   C2        1.0  0.39852  0.12495  0.65605  1.0000
  C   C3        1.0  0.83325  0.88652  0.25712  1.0000
  C   C4        1.0  0.33321  0.11347  0.74287  1.0000
  C   C5        1.0  0.62938  0.96365  0.23352  1.0000
  C   C6        1.0  0.12934  0.03634  0.76647  1.0000
  C   C7        1.0  0.57186  0.97353  0.15355  1.0000
  C   C8        1.0  0.07180  0.02646  0.84644  1.0000
  C   C9        1.0  0.72164  0.90592  0.09399  1.0000
  C   C10       1.0  0.22156  0.09408  0.90600  1.0000
  C   C11       1.0  0.92911  0.82952  0.11548  1.0000
  C   C12       1.0  0.42904  0.17048  0.88452  1.0000
  C   C13       1.0  0.98014  0.82053  0.19614  1.0000
  C   C14       1.0  0.48008  0.17947  0.80386  1.0000
  C   C15       1.0  0.70291  0.59668  0.62079  1.0000
  C   C16       1.0  0.20288  0.40333  0.37922  1.0000
  C   C17       1.0  0.71204  0.60244  0.71146  1.0000
  C   C18       1.0  0.21204  0.39757  0.28855  1.0000
  C   C19       1.0  0.53133  0.67334  0.75970  1.0000
  C   C20       1.0  0.03132  0.32667  0.24031  1.0000
  C   C21       1.0  0.53024  0.67436  0.84260  1.0000
  C   C22       1.0  0.03021  0.32564  0.15741  1.0000
  C   C23       1.0  0.71447  0.60082  0.88046  1.0000
  C   C24       1.0  0.21445  0.39918  0.11955  1.0000
  C   C25       1.0  0.89945  0.53041  0.83453  1.0000
  C   C26       1.0  0.39943  0.46959  0.16548  1.0000
  C   C27       1.0  0.89624  0.53227  0.75165  1.0000
  C   C28       1.0  0.39620  0.46774  0.24836  1.0000
  O   O1        1.0  0.93951  0.75026  0.36533  1.0000
  O   O2        1.0  0.43952  0.24975  0.63468  1.0000
  O   O3        1.0  0.90961  0.99359  0.38904  1.0000
  O   O4        1.0  0.40961  0.00642  0.61096  1.0000
  O   O5        1.0  0.90550  0.60057  0.58346  1.0000
  O   O6        1.0  0.40552  0.39943  0.41655  1.0000
  O   O7        1.0  0.49325  0.58822  0.58810  1.0000
  O   O8        1.0  0.99326  0.41179  0.41191  1.0000
  O   O9        1.0  0.36981  0.76569  0.44816  1.0000
  O   O10       1.0  0.86982  0.23431  0.55184  1.0000
  O   O11       1.0  0.37813  0.06659  0.45569  1.0000
  O   O12       1.0  0.87812  0.93341  0.54430  1.0000
  F   F1        1.0  0.47614  0.03106  0.28887  1.0000
  F   F2        1.0  0.97612  0.96893  0.71112  1.0000
  F   F3        1.0  0.37151  0.04858  0.13362  1.0000
  F   F4        1.0  0.87144  0.95140  0.86635  1.0000
  F   F5        1.0  0.66720  0.91603  0.01679  1.0000
  F   F6        1.0  0.16708  0.08397  0.98319  1.0000
  F   F7        1.0  0.08086  0.76739  0.05897  1.0000
  F   F8        1.0  0.58078  0.23262  0.94104  1.0000
  F   F9        1.0  0.18769  0.74987  0.21465  1.0000
  F   F10       1.0  0.68762  0.25016  0.78536  1.0000
  F   F11       1.0  0.34663  0.74747  0.72688  1.0000
  F   F12       1.0  0.84660  0.25253  0.27313  1.0000
  F   F13       1.0  0.35256  0.74525  0.88645  1.0000
  F   F14       1.0  0.85253  0.25474  0.11356  1.0000
  F   F15       1.0  0.71198  0.59641  0.96003  1.0000
  F   F16       1.0  0.21196  0.40358  0.03997  1.0000
  F   F17       1.0  0.07574  0.45625  0.87011  1.0000
  F   F18       1.0  0.57573  0.54374  0.12990  1.0000
  F   F19       1.0  0.07505  0.45543  0.71085  1.0000
  F   F20       1.0  0.57500  0.54458  0.28915  1.0000
