data_image0
_chemical_formula_structural       Zn2H32C44N8O8
_chemical_formula_sum              "Zn2 H32 C44 N8 O8"
_cell_length_a       9.24539
_cell_length_b       10.365
_cell_length_c       13.031
_cell_angle_alpha    101.047
_cell_angle_beta     101.023
_cell_angle_gamma    114.042

_space_group_name_H-M_alt    "P 1"
_space_group_IT_number       1

loop_
  _space_group_symop_operation_xyz
  'x, y, z'

loop_
  _atom_site_type_symbol
  _atom_site_label
  _atom_site_symmetry_multiplicity
  _atom_site_fract_x
  _atom_site_fract_y
  _atom_site_fract_z
  _atom_site_occupancy
  Zn  Zn1       1.0  0.24653  0.15220  0.22141  1.0000
  Zn  Zn2       1.0  0.75348  0.84780  0.77860  1.0000
  H   H1        1.0  0.80744  0.22337  0.05157  1.0000
  H   H2        1.0  0.19255  0.77662  0.94842  1.0000
  H   H3        1.0  0.73882  0.31877  0.74512  1.0000
  H   H4        1.0  0.26118  0.68123  0.25488  1.0000
  H   H5        1.0  0.83070  0.64605  0.04073  1.0000
  H   H6        1.0  0.16929  0.35394  0.95926  1.0000
  H   H7        1.0  0.98624  0.49726  0.22126  1.0000
  H   H8        1.0  0.01376  0.50273  0.77874  1.0000
  H   H9        1.0  0.87956  0.60489  0.21020  1.0000
  H   H10       1.0  0.12044  0.39510  0.78979  1.0000
  H   H11       1.0  0.52186  0.40354  0.15161  1.0000
  H   H12       1.0  0.47814  0.59646  0.84840  1.0000
  H   H13       1.0  0.59538  0.15196  0.35485  1.0000
  H   H14       1.0  0.40464  0.84805  0.64515  1.0000
  H   H15       1.0  0.90013  0.32310  0.32045  1.0000
  H   H16       1.0  0.09988  0.67690  0.67955  1.0000
  H   H17       1.0  0.89670  0.93760  0.04521  1.0000
  H   H18       1.0  0.10331  0.06240  0.95479  1.0000
  H   H19       1.0  0.60011  0.81314  0.04351  1.0000
  H   H20       1.0  0.39990  0.18686  0.95649  1.0000
  H   H21       1.0  0.53673  0.84765  0.22371  1.0000
  H   H22       1.0  0.46328  0.15235  0.77629  1.0000
  H   H23       1.0  0.76759  0.00627  0.39453  1.0000
  H   H24       1.0  0.23241  0.99374  0.60547  1.0000
  H   H25       1.0  0.96854  0.15863  0.52744  1.0000
  H   H26       1.0  0.03146  0.84138  0.47256  1.0000
  H   H27       1.0  0.22492  0.32344  0.68153  1.0000
  H   H28       1.0  0.77507  0.67658  0.31847  1.0000
  H   H29       1.0  0.50259  0.41950  0.64323  1.0000
  H   H30       1.0  0.49741  0.58052  0.35678  1.0000
  H   H31       1.0  0.50429  0.34147  0.45070  1.0000
  H   H32       1.0  0.49571  0.65854  0.54931  1.0000
  C   C1        1.0  0.82029  0.43973  0.06020  1.0000
  C   C2        1.0  0.17971  0.56025  0.93980  1.0000
  C   C3        1.0  0.79754  0.29915  0.00620  1.0000
  C   C4        1.0  0.20247  0.70084  0.99379  1.0000
  C   C5        1.0  0.76665  0.25500  0.89262  1.0000
  C   C6        1.0  0.23335  0.74500  0.10737  1.0000
  C   C7        1.0  0.75897  0.35240  0.83328  1.0000
  C   C8        1.0  0.24102  0.64759  0.16671  1.0000
  C   C9        1.0  0.78212  0.49293  0.88617  1.0000
  C   C10       1.0  0.21787  0.50705  0.11382  1.0000
  C   C11       1.0  0.81025  0.53511  0.99983  1.0000
  C   C12       1.0  0.18975  0.46488  0.00016  1.0000
  C   C13       1.0  0.79026  0.60134  0.82236  1.0000
  C   C14       1.0  0.20974  0.39865  0.17764  1.0000
  C   C15       1.0  0.75104  0.10803  0.83333  1.0000
  C   C16       1.0  0.24896  0.89197  0.16666  1.0000
  C   C17       1.0  0.86645  0.49241  0.18347  1.0000
  C   C18       1.0  0.13355  0.50758  0.81653  1.0000
  C   C19       1.0  0.58276  0.35969  0.20437  1.0000
  C   C20       1.0  0.41724  0.64031  0.79563  1.0000
  C   C21       1.0  0.62769  0.23227  0.31004  1.0000
  C   C22       1.0  0.37232  0.76774  0.68997  1.0000
  C   C23       1.0  0.77693  0.31412  0.29382  1.0000
  C   C24       1.0  0.22309  0.68590  0.70619  1.0000
  C   C25       1.0  0.86310  0.95149  0.12075  1.0000
  C   C26       1.0  0.13691  0.04851  0.87925  1.0000
  C   C27       1.0  0.69815  0.88097  0.12056  1.0000
  C   C28       1.0  0.30185  0.11903  0.87944  1.0000
  C   C29       1.0  0.66362  0.90088  0.22026  1.0000
  C   C30       1.0  0.33638  0.09912  0.77974  1.0000
  C   C31       1.0  0.79345  0.99082  0.31626  1.0000
  C   C32       1.0  0.20655  0.00919  0.68374  1.0000
  C   C33       1.0  0.95521  0.06010  0.30998  1.0000
  C   C34       1.0  0.04479  0.93990  0.69002  1.0000
  C   C35       1.0  0.10124  0.15996  0.40677  1.0000
  C   C36       1.0  0.89876  0.84004  0.59323  1.0000
  C   C37       1.0  0.08872  0.19992  0.51235  1.0000
  C   C38       1.0  0.91126  0.80008  0.48764  1.0000
  C   C39       1.0  0.23281  0.29326  0.59886  1.0000
  C   C40       1.0  0.76717  0.70675  0.40114  1.0000
  C   C41       1.0  0.38605  0.34599  0.57875  1.0000
  C   C42       1.0  0.61394  0.65403  0.42125  1.0000
  C   C43       1.0  0.38811  0.30237  0.47129  1.0000
  C   C44       1.0  0.61190  0.69764  0.52872  1.0000
  N   N1        1.0  0.98725  0.03876  0.21308  1.0000
  N   N2        1.0  0.01275  0.96123  0.78692  1.0000
  N   N3        1.0  0.25025  0.21207  0.38797  1.0000
  N   N4        1.0  0.74976  0.78793  0.61203  1.0000
  N   N5        1.0  0.50824  0.26239  0.25433  1.0000
  N   N6        1.0  0.49177  0.73762  0.74568  1.0000
  N   N7        1.0  0.74587  0.39399  0.22674  1.0000
  N   N8        1.0  0.25413  0.60600  0.77325  1.0000
  O   O1        1.0  0.78062  0.03042  0.89309  1.0000
  O   O2        1.0  0.21938  0.96958  0.10692  1.0000
  O   O3        1.0  0.71278  0.06845  0.73017  1.0000
  O   O4        1.0  0.28721  0.93154  0.26982  1.0000
  O   O5        1.0  0.77485  0.71449  0.87010  1.0000
  O   O6        1.0  0.22515  0.28550  0.12989  1.0000
  O   O7        1.0  0.81179  0.57652  0.72968  1.0000
  O   O8        1.0  0.18820  0.42347  0.27032  1.0000
