data_image0
_chemical_formula_structural       Zn6H12C20N40O4
_chemical_formula_sum              "Zn6 H12 C20 N40 O4"
_cell_length_a       9.67111
_cell_length_b       11.2657
_cell_length_c       12.6978
_cell_angle_alpha    91.0263
_cell_angle_beta     112.383
_cell_angle_gamma    115.41

_space_group_name_H-M_alt    "P 1"
_space_group_IT_number       1

loop_
  _space_group_symop_operation_xyz
  'x, y, z'

loop_
  _atom_site_type_symbol
  _atom_site_label
  _atom_site_symmetry_multiplicity
  _atom_site_fract_x
  _atom_site_fract_y
  _atom_site_fract_z
  _atom_site_occupancy
  Zn  Zn1       1.0  0.26327  0.79858  0.43476  1.0000
  Zn  Zn2       1.0  0.52995  0.70155  0.06508  1.0000
  Zn  Zn3       1.0  0.73672  0.20141  0.56523  1.0000
  Zn  Zn4       1.0  0.47005  0.29845  0.93492  1.0000
  Zn  Zn5       1.0  0.13368  0.25007  0.24997  1.0000
  Zn  Zn6       1.0  0.86632  0.74993  0.75002  1.0000
  H   H1        1.0  0.81367  0.59943  0.27857  1.0000
  H   H2        1.0  0.43554  0.90065  0.22107  1.0000
  H   H3        1.0  0.18632  0.40057  0.72143  1.0000
  H   H4        1.0  0.56447  0.09935  0.77893  1.0000
  H   H5        1.0  0.28085  0.81439  0.65396  1.0000
  H   H6        1.0  0.31230  0.68557  0.84588  1.0000
  H   H7        1.0  0.71915  0.18561  0.34605  1.0000
  H   H8        1.0  0.68769  0.31443  0.15412  1.0000
  H   H9        1.0  0.08914  0.76404  0.56961  1.0000
  H   H10       1.0  0.25543  0.73589  0.93033  1.0000
  H   H11       1.0  0.91086  0.23596  0.43039  1.0000
  H   H12       1.0  0.74457  0.26411  0.06967  1.0000
  C   C1        1.0  0.86634  0.70416  0.27197  1.0000
  C   C2        1.0  0.39043  0.79604  0.22798  1.0000
  C   C3        1.0  0.13365  0.29584  0.72802  1.0000
  C   C4        1.0  0.60958  0.20396  0.77202  1.0000
  C   C5        1.0  0.04644  0.91445  0.30265  1.0000
  C   C6        1.0  0.32941  0.58571  0.19722  1.0000
  C   C7        1.0  0.95356  0.08554  0.69735  1.0000
  C   C8        1.0  0.67060  0.41430  0.80279  1.0000
  C   C9        1.0  0.88730  0.89228  0.22211  1.0000
  C   C10       1.0  0.27304  0.60794  0.27780  1.0000
  C   C11       1.0  0.11270  0.10772  0.77789  1.0000
  C   C12       1.0  0.72695  0.39206  0.72220  1.0000
  C   C13       1.0  0.21239  0.02827  0.35017  1.0000
  C   C14       1.0  0.33421  0.47192  0.14986  1.0000
  C   C15       1.0  0.78761  0.97173  0.64983  1.0000
  C   C16       1.0  0.66579  0.52808  0.85015  1.0000
  C   C17       1.0  0.82575  0.97175  0.15001  1.0000
  C   C18       1.0  0.20419  0.52847  0.34994  1.0000
  C   C19       1.0  0.17425  0.02825  0.84999  1.0000
  C   C20       1.0  0.79581  0.47153  0.65007  1.0000
  N   N1        1.0  0.03137  0.79415  0.33306  1.0000
  N   N2        1.0  0.40424  0.70599  0.16683  1.0000
  N   N3        1.0  0.96863  0.20585  0.66693  1.0000
  N   N4        1.0  0.59577  0.29401  0.83317  1.0000
  N   N5        1.0  0.77455  0.75841  0.20373  1.0000
  N   N6        1.0  0.31268  0.74185  0.29625  1.0000
  N   N7        1.0  0.22545  0.24159  0.79627  1.0000
  N   N8        1.0  0.68733  0.25815  0.70375  1.0000
  N   N9        1.0  0.90118  0.10387  0.15100  1.0000
  N   N10       1.0  0.14656  0.39637  0.34907  1.0000
  N   N11       1.0  0.09882  0.89613  0.84900  1.0000
  N   N12       1.0  0.85345  0.60362  0.65094  1.0000
  N   N13       1.0  0.78788  0.12263  0.05769  1.0000
  N   N14       1.0  0.10774  0.37770  0.44236  1.0000
  N   N15       1.0  0.21211  0.87736  0.94231  1.0000
  N   N16       1.0  0.89226  0.62230  0.55764  1.0000
  N   N17       1.0  0.65130  0.00714  0.00406  1.0000
  N   N18       1.0  0.14021  0.49323  0.49589  1.0000
  N   N19       1.0  0.34870  0.99285  0.99594  1.0000
  N   N20       1.0  0.85978  0.50676  0.50410  1.0000
  N   N21       1.0  0.66996  0.91154  0.06032  1.0000
  N   N22       1.0  0.19821  0.58875  0.43956  1.0000
  N   N23       1.0  0.33004  0.08846  0.93967  1.0000
  N   N24       1.0  0.80179  0.41125  0.56044  1.0000
  N   N25       1.0  0.34980  0.01522  0.41430  1.0000
  N   N26       1.0  0.42050  0.48483  0.08573  1.0000
  N   N27       1.0  0.65020  0.98478  0.58570  1.0000
  N   N28       1.0  0.57950  0.51517  0.91427  1.0000
  N   N29       1.0  0.48195  0.13851  0.44074  1.0000
  N   N30       1.0  0.40269  0.36145  0.05928  1.0000
  N   N31       1.0  0.51805  0.86150  0.55926  1.0000
  N   N32       1.0  0.59731  0.63855  0.94072  1.0000
  N   N33       1.0  0.43080  0.22441  0.39645  1.0000
  N   N34       1.0  0.30995  0.27567  0.10363  1.0000
  N   N35       1.0  0.56920  0.77559  0.60355  1.0000
  N   N36       1.0  0.69005  0.72433  0.89637  1.0000
  N   N37       1.0  0.26042  0.15709  0.33919  1.0000
  N   N38       1.0  0.26438  0.34316  0.16095  1.0000
  N   N39       1.0  0.73958  0.84291  0.66081  1.0000
  N   N40       1.0  0.73562  0.65685  0.83905  1.0000
  O   O1        1.0  0.20755  0.83235  0.58639  1.0000
  O   O2        1.0  0.28874  0.66756  0.91349  1.0000
  O   O3        1.0  0.79245  0.16765  0.41361  1.0000
  O   O4        1.0  0.71126  0.33244  0.08651  1.0000
