data_image0
_chemical_formula_structural       H10PbC12N4Cl2
_chemical_formula_sum              "H10 Pb1 C12 N4 Cl2"
_cell_length_a       4.10148
_cell_length_b       8.83983
_cell_length_c       11.0359
_cell_angle_alpha    110.932
_cell_angle_beta     95.234
_cell_angle_gamma    90.0968

_space_group_name_H-M_alt    "P 1"
_space_group_IT_number       1

loop_
  _space_group_symop_operation_xyz
  'x, y, z'

loop_
  _atom_site_type_symbol
  _atom_site_label
  _atom_site_symmetry_multiplicity
  _atom_site_fract_x
  _atom_site_fract_y
  _atom_site_fract_z
  _atom_site_occupancy
  H   H1        1.0  0.74816  0.34188  0.96089  1.0000
  H   H2        1.0  0.25176  0.65818  0.03911  1.0000
  H   H3        1.0  0.65388  0.52979  0.83631  1.0000
  H   H4        1.0  0.34625  0.47018  0.16362  1.0000
  H   H5        1.0  0.01095  0.15781  0.55458  1.0000
  H   H6        1.0  0.98919  0.84214  0.44536  1.0000
  H   H7        1.0  0.13552  0.98354  0.69015  1.0000
  H   H8        1.0  0.86419  0.01654  0.30994  1.0000
  H   H9        1.0  0.40395  0.58239  0.64756  1.0000
  H   H10       1.0  0.59604  0.41760  0.35240  1.0000
  Pb  Pb1       1.0  0.49995  0.00006  0.00007  1.0000
  C   C1        1.0  0.58650  0.30603  0.87012  1.0000
  C   C2        1.0  0.41343  0.69401  0.12988  1.0000
  C   C3        1.0  0.53349  0.40977  0.80136  1.0000
  C   C4        1.0  0.46657  0.59022  0.19859  1.0000
  C   C5        1.0  0.32126  0.35825  0.68602  1.0000
  C   C6        1.0  0.67883  0.64171  0.31393  1.0000
  C   C7        1.0  0.17722  0.20128  0.64360  1.0000
  C   C8        1.0  0.82281  0.79870  0.35636  1.0000
  C   C9        1.0  0.24559  0.10538  0.71812  1.0000
  C   C10       1.0  0.75426  0.89467  0.28192  1.0000
  C   C11       1.0  0.25337  0.46998  0.61724  1.0000
  C   C12       1.0  0.74674  0.52998  0.38269  1.0000
  N   N1        1.0  0.44502  0.15690  0.83015  1.0000
  N   N2        1.0  0.55477  0.84317  0.16990  1.0000
  N   N3        1.0  0.01509  0.43878  0.52553  1.0000
  N   N4        1.0  0.98516  0.56112  0.47434  1.0000
  Cl  Cl1       1.0  0.96656  0.78510  0.85117  1.0000
  Cl  Cl2       1.0  0.03349  0.21486  0.14911  1.0000
