data_image0
_chemical_formula_structural       Cd2H22C22N2O10
_chemical_formula_sum              "Cd2 H22 C22 N2 O10"
_cell_length_a       7.44091
_cell_length_b       9.78202
_cell_length_c       9.92504
_cell_angle_alpha    118.3
_cell_angle_beta     102.925
_cell_angle_gamma    91.4737

_space_group_name_H-M_alt    "P 1"
_space_group_IT_number       1

loop_
  _space_group_symop_operation_xyz
  'x, y, z'

loop_
  _atom_site_type_symbol
  _atom_site_label
  _atom_site_symmetry_multiplicity
  _atom_site_fract_x
  _atom_site_fract_y
  _atom_site_fract_z
  _atom_site_occupancy
  Cd  Cd1       1.0  0.73612  0.97283  0.48136  1.0000
  Cd  Cd2       1.0  0.26388  0.02717  0.51864  1.0000
  H   H1        1.0  0.43705  0.18514  0.89561  1.0000
  H   H2        1.0  0.56295  0.81486  0.10438  1.0000
  H   H3        1.0  0.31671  0.21347  0.12299  1.0000
  H   H4        1.0  0.68329  0.78653  0.87701  1.0000
  H   H5        1.0  0.76407  0.28662  0.76796  1.0000
  H   H6        1.0  0.23593  0.71338  0.23204  1.0000
  H   H7        1.0  0.33842  0.49358  0.02026  1.0000
  H   H8        1.0  0.66158  0.50642  0.97974  1.0000
  H   H9        1.0  0.93914  0.14022  0.32974  1.0000
  H   H10       1.0  0.06086  0.85978  0.67026  1.0000
  H   H11       1.0  0.61360  0.41084  0.45400  1.0000
  H   H12       1.0  0.38640  0.58916  0.54600  1.0000
  H   H13       1.0  0.60437  0.44450  0.28983  1.0000
  H   H14       1.0  0.39563  0.55550  0.71017  1.0000
  H   H15       1.0  0.77169  0.56486  0.47353  1.0000
  H   H16       1.0  0.22832  0.43514  0.52647  1.0000
  H   H17       1.0  0.02899  0.25755  0.21867  1.0000
  H   H18       1.0  0.97101  0.74245  0.78133  1.0000
  H   H19       1.0  0.01095  0.46158  0.29616  1.0000
  H   H20       1.0  0.98905  0.53842  0.70384  1.0000
  H   H21       1.0  0.83712  0.31912  0.12601  1.0000
  H   H22       1.0  0.16288  0.68088  0.87399  1.0000
  C   C1        1.0  0.63312  0.96290  0.73284  1.0000
  C   C2        1.0  0.36688  0.03710  0.26716  1.0000
  C   C3        1.0  0.56710  0.98389  0.87248  1.0000
  C   C4        1.0  0.43290  0.01611  0.12752  1.0000
  C   C5        1.0  0.46395  0.10460  0.94221  1.0000
  C   C6        1.0  0.53605  0.89540  0.05778  1.0000
  C   C7        1.0  0.39673  0.12004  0.06808  1.0000
  C   C8        1.0  0.60327  0.87996  0.93192  1.0000
  C   C9        1.0  0.12242  0.24721  0.75217  1.0000
  C   C10       1.0  0.87758  0.75279  0.24783  1.0000
  C   C11       1.0  0.05809  0.37555  0.88085  1.0000
  C   C12       1.0  0.94191  0.62445  0.11915  1.0000
  C   C13       1.0  0.86729  0.37965  0.86944  1.0000
  C   C14       1.0  0.13271  0.62035  0.13056  1.0000
  C   C15       1.0  0.19016  0.49648  0.01209  1.0000
  C   C16       1.0  0.80984  0.50352  0.98791  1.0000
  C   C17       1.0  0.84030  0.21928  0.37975  1.0000
  C   C18       1.0  0.15970  0.78072  0.62025  1.0000
  C   C19       1.0  0.69618  0.44501  0.39338  1.0000
  C   C20       1.0  0.30382  0.55499  0.60662  1.0000
  C   C21       1.0  0.93168  0.34312  0.23950  1.0000
  C   C22       1.0  0.06832  0.65688  0.76050  1.0000
  N   N1        1.0  0.82537  0.33326  0.34194  1.0000
  N   N2        1.0  0.17464  0.66674  0.65806  1.0000
  O   O1        1.0  0.73819  0.86374  0.67750  1.0000
  O   O2        1.0  0.26182  0.13626  0.32250  1.0000
  O   O3        1.0  0.57832  0.05277  0.67292  1.0000
  O   O4        1.0  0.42168  0.94723  0.32708  1.0000
  O   O5        1.0  0.03020  0.10766  0.67479  1.0000
  O   O6        1.0  0.96980  0.89235  0.32521  1.0000
  O   O7        1.0  0.27209  0.27919  0.72369  1.0000
  O   O8        1.0  0.72791  0.72081  0.27631  1.0000
  O   O9        1.0  0.75043  0.20167  0.46551  1.0000
  O   O10       1.0  0.24957  0.79833  0.53449  1.0000
