data_image0
_chemical_formula_structural       H10PbC12Br2N4
_chemical_formula_sum              "H10 Pb1 C12 Br2 N4"
_cell_length_a       4.20014
_cell_length_b       9.20286
_cell_length_c       10.7543
_cell_angle_alpha    109.635
_cell_angle_beta     95.1747
_cell_angle_gamma    91.3008

_space_group_name_H-M_alt    "P 1"
_space_group_IT_number       1

loop_
  _space_group_symop_operation_xyz
  'x, y, z'

loop_
  _atom_site_type_symbol
  _atom_site_label
  _atom_site_symmetry_multiplicity
  _atom_site_fract_x
  _atom_site_fract_y
  _atom_site_fract_z
  _atom_site_occupancy
  H   H1        1.0  0.37052  0.00028  0.30800  1.0000
  H   H2        1.0  0.62907  0.99981  0.69201  1.0000
  H   H3        1.0  0.49327  0.82881  0.44466  1.0000
  H   H4        1.0  0.50648  0.17130  0.55540  1.0000
  H   H5        1.0  0.84321  0.47882  0.16116  1.0000
  H   H6        1.0  0.15702  0.52113  0.83884  1.0000
  H   H7        1.0  0.75032  0.66317  0.03572  1.0000
  H   H8        1.0  0.24947  0.33679  0.96435  1.0000
  H   H9        1.0  0.09236  0.42457  0.35513  1.0000
  H   H10       1.0  0.90771  0.57550  0.64495  1.0000
  Pb  Pb1       1.0  0.00018  0.99999  0.99989  1.0000
  C   C1        1.0  0.25805  0.88387  0.27990  1.0000
  C   C2        1.0  0.74160  0.11617  0.72012  1.0000
  C   C3        1.0  0.32610  0.78944  0.35495  1.0000
  C   C4        1.0  0.67367  0.21060  0.64509  1.0000
  C   C5        1.0  0.17894  0.63965  0.31256  1.0000
  C   C6        1.0  0.82112  0.36031  0.68742  1.0000
  C   C7        1.0  0.96539  0.59340  0.19645  1.0000
  C   C8        1.0  0.03473  0.40658  0.80356  1.0000
  C   C9        1.0  0.91310  0.69526  0.12710  1.0000
  C   C10       1.0  0.08676  0.30471  0.87292  1.0000
  C   C11       1.0  0.24561  0.53115  0.38286  1.0000
  C   C12       1.0  0.75457  0.46886  0.61714  1.0000
  Br  Br1       1.0  0.45389  0.78510  0.83519  1.0000
  Br  Br2       1.0  0.54677  0.21481  0.16476  1.0000
  N   N1        1.0  0.05647  0.83773  0.16730  1.0000
  N   N2        1.0  0.94321  0.16227  0.83268  1.0000
  N   N3        1.0  0.48630  0.55882  0.47320  1.0000
  N   N4        1.0  0.51412  0.44112  0.52668  1.0000
