data_image0
_chemical_formula_structural       CuH54C50O16
_chemical_formula_sum              "Cu1 H54 C50 O16"
_cell_length_a       8.447
_cell_length_b       10.0472
_cell_length_c       14.7652
_cell_angle_alpha    103.582
_cell_angle_beta     90.6649
_cell_angle_gamma    107.293

_space_group_name_H-M_alt    "P 1"
_space_group_IT_number       1

loop_
  _space_group_symop_operation_xyz
  'x, y, z'

loop_
  _atom_site_type_symbol
  _atom_site_label
  _atom_site_symmetry_multiplicity
  _atom_site_fract_x
  _atom_site_fract_y
  _atom_site_fract_z
  _atom_site_occupancy
  Cu  Cu1       1.0  0.00000  0.49999  0.50000  1.0000
  H   H1        1.0  0.59074  0.31669  0.62701  1.0000
  H   H2        1.0  0.40928  0.68331  0.37299  1.0000
  H   H3        1.0  0.43143  0.37801  0.58899  1.0000
  H   H4        1.0  0.56858  0.62198  0.41101  1.0000
  H   H5        1.0  0.39312  0.20575  0.43455  1.0000
  H   H6        1.0  0.60688  0.79425  0.56545  1.0000
  H   H7        1.0  0.52749  0.12163  0.47377  1.0000
  H   H8        1.0  0.47251  0.87837  0.52623  1.0000
  H   H9        1.0  0.53279  0.31373  0.32286  1.0000
  H   H10       1.0  0.46720  0.68629  0.67714  1.0000
  H   H11       1.0  0.72515  0.59116  0.26402  1.0000
  H   H12       1.0  0.27485  0.40884  0.73598  1.0000
  H   H13       1.0  0.64338  0.40993  0.20044  1.0000
  H   H14       1.0  0.35663  0.59007  0.79956  1.0000
  H   H15       1.0  0.01718  0.57567  0.22932  1.0000
  H   H16       1.0  0.98282  0.42433  0.77068  1.0000
  H   H17       1.0  0.91905  0.41054  0.14609  1.0000
  H   H18       1.0  0.08096  0.58946  0.85391  1.0000
  H   H19       1.0  0.13696  0.22354  0.56826  1.0000
  H   H20       1.0  0.86305  0.77646  0.43174  1.0000
  H   H21       1.0  0.30780  0.90971  0.73825  1.0000
  H   H22       1.0  0.69220  0.09028  0.26175  1.0000
  H   H23       1.0  0.52469  0.09948  0.68483  1.0000
  H   H24       1.0  0.47532  0.90051  0.31517  1.0000
  H   H25       1.0  0.71910  0.41117  0.01493  1.0000
  H   H26       1.0  0.28089  0.58883  0.98507  1.0000
  H   H27       1.0  0.96862  0.94357  0.09219  1.0000
  H   H28       1.0  0.03137  0.05643  0.90782  1.0000
  H   H29       1.0  0.03342  0.80334  0.19889  1.0000
  H   H30       1.0  0.96657  0.19666  0.80111  1.0000
  H   H31       1.0  0.70182  0.09877  0.58691  1.0000
  H   H32       1.0  0.29820  0.90123  0.41309  1.0000
  H   H33       1.0  0.87295  0.11938  0.51558  1.0000
  H   H34       1.0  0.12706  0.88062  0.48441  1.0000
  H   H35       1.0  0.89172  0.24388  0.62658  1.0000
  H   H36       1.0  0.10829  0.75612  0.37342  1.0000
  H   H37       1.0  0.67491  0.56998  0.65685  1.0000
  H   H38       1.0  0.32509  0.43002  0.34315  1.0000
  H   H39       1.0  0.74443  0.69352  0.77087  1.0000
  H   H40       1.0  0.25557  0.30648  0.22913  1.0000
  H   H41       1.0  0.85198  0.57072  0.72226  1.0000
  H   H42       1.0  0.14801  0.42927  0.27775  1.0000
  H   H43       1.0  0.51391  0.36523  0.79104  1.0000
  H   H44       1.0  0.48608  0.63477  0.20897  1.0000
  H   H45       1.0  0.50273  0.34306  0.90780  1.0000
  H   H46       1.0  0.49726  0.65694  0.09220  1.0000
  H   H47       1.0  0.69060  0.34843  0.85094  1.0000
  H   H48       1.0  0.30939  0.65158  0.14907  1.0000
  H   H49       1.0  0.49688  0.93666  0.84168  1.0000
  H   H50       1.0  0.50312  0.06335  0.15831  1.0000
  H   H51       1.0  0.70303  0.93875  0.80856  1.0000
  H   H52       1.0  0.29697  0.06124  0.19144  1.0000
  H   H53       1.0  0.67498  0.06824  0.90707  1.0000
  H   H54       1.0  0.32503  0.93176  0.09293  1.0000
  C   C1        1.0  0.47168  0.28212  0.58421  1.0000
  C   C2        1.0  0.52833  0.71788  0.41579  1.0000
  C   C3        1.0  0.50324  0.22562  0.48196  1.0000
  C   C4        1.0  0.49676  0.77438  0.51804  1.0000
  C   C5        1.0  0.65605  0.32609  0.45341  1.0000
  C   C6        1.0  0.34396  0.67390  0.54659  1.0000
  C   C7        1.0  0.65012  0.35930  0.36643  1.0000
  C   C8        1.0  0.34987  0.64071  0.63357  1.0000
  C   C9        1.0  0.78469  0.44937  0.33240  1.0000
  C   C10       1.0  0.21530  0.55063  0.66760  1.0000
  C   C11       1.0  0.75466  0.48892  0.24218  1.0000
  C   C12       1.0  0.24534  0.51108  0.75782  1.0000
  C   C13       1.0  0.90377  0.51435  0.18256  1.0000
  C   C14       1.0  0.09623  0.48565  0.81744  1.0000
  C   C15       1.0  0.34434  0.17232  0.62134  1.0000
  C   C16       1.0  0.65567  0.82768  0.37866  1.0000
  C   C17       1.0  0.17461  0.15618  0.60670  1.0000
  C   C18       1.0  0.82540  0.84381  0.39330  1.0000
  C   C19       1.0  0.05409  0.05409  0.63996  1.0000
  C   C20       1.0  0.94592  0.94591  0.36004  1.0000
  C   C21       1.0  0.10630  0.96512  0.68628  1.0000
  C   C22       1.0  0.89371  0.03488  0.31372  1.0000
  C   C23       1.0  0.27338  0.98089  0.70184  1.0000
  C   C24       1.0  0.72662  0.01911  0.29816  1.0000
  C   C25       1.0  0.39307  0.08531  0.67031  1.0000
  C   C26       1.0  0.60694  0.91469  0.32970  1.0000
  C   C27       1.0  0.88008  0.59791  0.11374  1.0000
  C   C28       1.0  0.11992  0.40209  0.88626  1.0000
  C   C29       1.0  0.77590  0.52754  0.03104  1.0000
  C   C30       1.0  0.22409  0.47247  0.96897  1.0000
  C   C31       1.0  0.74005  0.60545  0.97077  1.0000
  C   C32       1.0  0.25994  0.39456  0.02923  1.0000
  C   C33       1.0  0.80948  0.75647  0.99538  1.0000
  C   C34       1.0  0.19049  0.24354  0.00462  1.0000
  C   C35       1.0  0.91520  0.82677  0.07607  1.0000
  C   C36       1.0  0.08478  0.17323  0.92393  1.0000
  C   C37       1.0  0.95133  0.74749  0.13511  1.0000
  C   C38       1.0  0.04866  0.25251  0.86489  1.0000
  C   C39       1.0  0.83723  0.13106  0.58755  1.0000
  C   C40       1.0  0.16278  0.86894  0.41245  1.0000
  C   C41       1.0  0.89360  0.74255  0.65839  1.0000
  C   C42       1.0  0.10641  0.25744  0.34161  1.0000
  C   C43       1.0  0.78191  0.63940  0.70540  1.0000
  C   C44       1.0  0.21809  0.36060  0.29460  1.0000
  C   C45       1.0  0.58413  0.39113  0.85884  1.0000
  C   C46       1.0  0.41586  0.60886  0.14116  1.0000
  C   C47       1.0  0.62931  0.86106  0.93138  1.0000
  C   C48       1.0  0.37066  0.13895  0.06862  1.0000
  C   C49       1.0  0.62584  0.95541  0.86676  1.0000
  C   C50       1.0  0.37416  0.04459  0.13324  1.0000
  O   O1        1.0  0.78353  0.37269  0.51315  1.0000
  O   O2        1.0  0.21648  0.62729  0.48685  1.0000
  O   O3        1.0  0.93136  0.50886  0.37445  1.0000
  O   O4        1.0  0.06864  0.49112  0.62555  1.0000
  O   O5        1.0  0.88787  0.03552  0.63210  1.0000
  O   O6        1.0  0.11214  0.96448  0.36789  1.0000
  O   O7        1.0  0.98907  0.86391  0.72244  1.0000
  O   O8        1.0  0.01093  0.13609  0.27756  1.0000
  O   O9        1.0  0.90667  0.72347  0.57436  1.0000
  O   O10       1.0  0.09335  0.27652  0.42564  1.0000
  O   O11       1.0  0.64107  0.54543  0.88895  1.0000
  O   O12       1.0  0.35892  0.45457  0.11106  1.0000
  O   O13       1.0  0.78163  0.83795  0.93480  1.0000
  O   O14       1.0  0.21835  0.16205  0.06521  1.0000
  O   O15       1.0  0.51667  0.81292  0.97687  1.0000
  O   O16       1.0  0.48331  0.18710  0.02313  1.0000
