data_image0
_chemical_formula_structural       Ga4H32C48I12N8O36
_chemical_formula_sum              "Ga4 H32 C48 I12 N8 O36"
_cell_length_a       11.0716
_cell_length_b       12.9053
_cell_length_c       13.5313
_cell_angle_alpha    114.866
_cell_angle_beta     90
_cell_angle_gamma    90

_space_group_name_H-M_alt    "P 1"
_space_group_IT_number       1

loop_
  _space_group_symop_operation_xyz
  'x, y, z'

loop_
  _atom_site_type_symbol
  _atom_site_label
  _atom_site_symmetry_multiplicity
  _atom_site_fract_x
  _atom_site_fract_y
  _atom_site_fract_z
  _atom_site_occupancy
  Ga  Ga1       1.0  0.27169  0.54014  0.75935  1.0000
  Ga  Ga2       1.0  0.77169  0.95986  0.24065  1.0000
  Ga  Ga3       1.0  0.72831  0.45986  0.24065  1.0000
  Ga  Ga4       1.0  0.22831  0.04014  0.75935  1.0000
  H   H1        1.0  0.00845  0.56929  0.85308  1.0000
  H   H2        1.0  0.50845  0.93071  0.14692  1.0000
  H   H3        1.0  0.99155  0.43072  0.14692  1.0000
  H   H4        1.0  0.49155  0.06929  0.85308  1.0000
  H   H5        1.0  0.91740  0.64218  0.04377  1.0000
  H   H6        1.0  0.41740  0.85782  0.95623  1.0000
  H   H7        1.0  0.08260  0.35782  0.95623  1.0000
  H   H8        1.0  0.58260  0.14218  0.04377  1.0000
  H   H9        1.0  0.05260  0.71164  0.20335  1.0000
  H   H10       1.0  0.55259  0.78836  0.79665  1.0000
  H   H11       1.0  0.94741  0.28836  0.79665  1.0000
  H   H12       1.0  0.44741  0.21164  0.20335  1.0000
  H   H13       1.0  0.27233  0.75124  0.27684  1.0000
  H   H14       1.0  0.77233  0.74877  0.72316  1.0000
  H   H15       1.0  0.72767  0.24877  0.72317  1.0000
  H   H16       1.0  0.22767  0.25123  0.27684  1.0000
  H   H17       1.0  0.49001  0.73235  0.23871  1.0000
  H   H18       1.0  0.99001  0.76765  0.76129  1.0000
  H   H19       1.0  0.50999  0.26765  0.76129  1.0000
  H   H20       1.0  0.00999  0.23235  0.23871  1.0000
  H   H21       1.0  0.66146  0.66281  0.09785  1.0000
  H   H22       1.0  0.16146  0.83719  0.90215  1.0000
  H   H23       1.0  0.33854  0.33719  0.90215  1.0000
  H   H24       1.0  0.83854  0.16281  0.09785  1.0000
  H   H25       1.0  0.72050  0.57325  0.89997  1.0000
  H   H26       1.0  0.22050  0.92675  0.10003  1.0000
  H   H27       1.0  0.27950  0.42675  0.10002  1.0000
  H   H28       1.0  0.77950  0.07325  0.89997  1.0000
  H   H29       1.0  0.55887  0.51946  0.75664  1.0000
  H   H30       1.0  0.05887  0.98054  0.24336  1.0000
  H   H31       1.0  0.44113  0.48054  0.24336  1.0000
  H   H32       1.0  0.94113  0.01946  0.75664  1.0000
  C   C1        1.0  0.06388  0.59915  0.92650  1.0000
  C   C2        1.0  0.56388  0.90085  0.07350  1.0000
  C   C3        1.0  0.93612  0.40085  0.07350  1.0000
  C   C4        1.0  0.43612  0.09915  0.92650  1.0000
  C   C5        1.0  0.01486  0.63960  0.03186  1.0000
  C   C6        1.0  0.51486  0.86040  0.96814  1.0000
  C   C7        1.0  0.98514  0.36040  0.96814  1.0000
  C   C8        1.0  0.48514  0.13960  0.03186  1.0000
  C   C9        1.0  0.09088  0.67921  0.12136  1.0000
  C   C10       1.0  0.59088  0.82079  0.87864  1.0000
  C   C11       1.0  0.90912  0.32079  0.87864  1.0000
  C   C12       1.0  0.40912  0.17921  0.12136  1.0000
  C   C13       1.0  0.21741  0.67569  0.10583  1.0000
  C   C14       1.0  0.71741  0.82431  0.89417  1.0000
  C   C15       1.0  0.78259  0.32431  0.89417  1.0000
  C   C16       1.0  0.28259  0.17569  0.10583  1.0000
  C   C17       1.0  0.30412  0.71408  0.19268  1.0000
  C   C18       1.0  0.80412  0.78592  0.80732  1.0000
  C   C19       1.0  0.69588  0.28592  0.80732  1.0000
  C   C20       1.0  0.19588  0.21408  0.19268  1.0000
  C   C21       1.0  0.42564  0.70425  0.17151  1.0000
  C   C22       1.0  0.92564  0.79575  0.82849  1.0000
  C   C23       1.0  0.57436  0.29575  0.82849  1.0000
  C   C24       1.0  0.07436  0.20425  0.17151  1.0000
  C   C25       1.0  0.46986  0.65497  0.06173  1.0000
  C   C26       1.0  0.96986  0.84503  0.93827  1.0000
  C   C27       1.0  0.53014  0.34503  0.93827  1.0000
  C   C28       1.0  0.03014  0.15497  0.06173  1.0000
  C   C29       1.0  0.59371  0.63719  0.03343  1.0000
  C   C30       1.0  0.09371  0.86281  0.96657  1.0000
  C   C31       1.0  0.40629  0.36281  0.96657  1.0000
  C   C32       1.0  0.90629  0.13719  0.03343  1.0000
  C   C33       1.0  0.62615  0.58842  0.92463  1.0000
  C   C34       1.0  0.12615  0.91158  0.07537  1.0000
  C   C35       1.0  0.37385  0.41158  0.07537  1.0000
  C   C36       1.0  0.87385  0.08842  0.92463  1.0000
  C   C37       1.0  0.53685  0.55708  0.84330  1.0000
  C   C38       1.0  0.03685  0.94292  0.15670  1.0000
  C   C39       1.0  0.46315  0.44292  0.15670  1.0000
  C   C40       1.0  0.96315  0.05708  0.84330  1.0000
  C   C41       1.0  0.25896  0.63097  0.99680  1.0000
  C   C42       1.0  0.75896  0.86902  0.00320  1.0000
  C   C43       1.0  0.74105  0.36903  0.00320  1.0000
  C   C44       1.0  0.24104  0.13098  0.99680  1.0000
  C   C45       1.0  0.38612  0.61970  0.97462  1.0000
  C   C46       1.0  0.88612  0.88030  0.02537  1.0000
  C   C47       1.0  0.61388  0.38030  0.02538  1.0000
  C   C48       1.0  0.11388  0.11970  0.97463  1.0000
  I   I1        1.0  0.29138  0.74289  0.66680  1.0000
  I   I2        1.0  0.79138  0.75711  0.33320  1.0000
  I   I3        1.0  0.70862  0.25710  0.33320  1.0000
  I   I4        1.0  0.20863  0.24289  0.66680  1.0000
  I   I5        1.0  0.07014  0.41107  0.55090  1.0000
  I   I6        1.0  0.57014  0.08893  0.44910  1.0000
  I   I7        1.0  0.92986  0.58893  0.44910  1.0000
  I   I8        1.0  0.42985  0.91107  0.55090  1.0000
  I   I9        1.0  0.43995  0.38453  0.52236  1.0000
  I   I10       1.0  0.93995  0.11547  0.47764  1.0000
  I   I11       1.0  0.56006  0.61547  0.47765  1.0000
  I   I12       1.0  0.06006  0.88453  0.52235  1.0000
  N   N1        1.0  0.18267  0.59592  0.91041  1.0000
  N   N2        1.0  0.68267  0.90408  0.08959  1.0000
  N   N3        1.0  0.81733  0.40408  0.08959  1.0000
  N   N4        1.0  0.31733  0.09592  0.91041  1.0000
  N   N5        1.0  0.42021  0.57259  0.86878  1.0000
  N   N6        1.0  0.92021  0.92741  0.13122  1.0000
  N   N7        1.0  0.57979  0.42741  0.13122  1.0000
  N   N8        1.0  0.07978  0.07259  0.86878  1.0000
  O   O1        1.0  0.29015  0.70503  0.78628  1.0000
  O   O2        1.0  0.79015  0.79498  0.21372  1.0000
  O   O3        1.0  0.70985  0.29498  0.21372  1.0000
  O   O4        1.0  0.20985  0.20503  0.78628  1.0000
  O   O5        1.0  0.12276  0.53534  0.67810  1.0000
  O   O6        1.0  0.62276  0.96465  0.32190  1.0000
  O   O7        1.0  0.87724  0.46465  0.32190  1.0000
  O   O8        1.0  0.37724  0.03535  0.67810  1.0000
  O   O9        1.0  0.38595  0.51017  0.64428  1.0000
  O   O10       1.0  0.88595  0.98983  0.35572  1.0000
  O   O11       1.0  0.61405  0.48983  0.35572  1.0000
  O   O12       1.0  0.11405  0.01017  0.64428  1.0000
  O   O13       1.0  0.23541  0.88591  0.75908  1.0000
  O   O14       1.0  0.73541  0.61409  0.24092  1.0000
  O   O15       1.0  0.76459  0.11409  0.24092  1.0000
  O   O16       1.0  0.26459  0.38591  0.75908  1.0000
  O   O17       1.0  0.11132  0.45845  0.44626  1.0000
  O   O18       1.0  0.61132  0.04155  0.55374  1.0000
  O   O19       1.0  0.88868  0.54155  0.55374  1.0000
  O   O20       1.0  0.38868  0.95845  0.44626  1.0000
  O   O21       1.0  0.20711  0.32000  0.53099  1.0000
  O   O22       1.0  0.70711  0.18000  0.46901  1.0000
  O   O23       1.0  0.79289  0.68000  0.46901  1.0000
  O   O24       1.0  0.29289  0.82000  0.53099  1.0000
  O   O25       1.0  0.45276  0.77537  0.66817  1.0000
  O   O26       1.0  0.95276  0.72463  0.33183  1.0000
  O   O27       1.0  0.54724  0.22463  0.33183  1.0000
  O   O28       1.0  0.04723  0.27537  0.66817  1.0000
  O   O29       1.0  0.45544  0.27778  0.57851  1.0000
  O   O30       1.0  0.95544  0.22222  0.42149  1.0000
  O   O31       1.0  0.54456  0.72222  0.42149  1.0000
  O   O32       1.0  0.04456  0.77778  0.57851  1.0000
  O   O33       1.0  0.59434  0.43787  0.53863  1.0000
  O   O34       1.0  0.09434  0.06213  0.46137  1.0000
  O   O35       1.0  0.40566  0.56213  0.46138  1.0000
  O   O36       1.0  0.90566  0.93787  0.53862  1.0000
