data_image0
_chemical_formula_structural       Cu4H20C16N36
_chemical_formula_sum              "Cu4 H20 C16 N36"
_cell_length_a       5.88681
_cell_length_b       7.21778
_cell_length_c       19.3637
_cell_angle_alpha    90
_cell_angle_beta     89.9999
_cell_angle_gamma    100.212

_space_group_name_H-M_alt    "P 1"
_space_group_IT_number       1

loop_
  _space_group_symop_operation_xyz
  'x, y, z'

loop_
  _atom_site_type_symbol
  _atom_site_label
  _atom_site_symmetry_multiplicity
  _atom_site_fract_x
  _atom_site_fract_y
  _atom_site_fract_z
  _atom_site_occupancy
  Cu  Cu1       1.0  0.55914  0.37468  0.71897  1.0000
  Cu  Cu2       1.0  0.94086  0.62532  0.21897  1.0000
  Cu  Cu3       1.0  0.44087  0.62533  0.28103  1.0000
  Cu  Cu4       1.0  0.05914  0.37467  0.78103  1.0000
  H   H1        1.0  0.52676  0.19718  0.42561  1.0000
  H   H2        1.0  0.97323  0.80281  0.92560  1.0000
  H   H3        1.0  0.47323  0.80282  0.57440  1.0000
  H   H4        1.0  0.02677  0.19719  0.07439  1.0000
  H   H5        1.0  0.17279  0.09591  0.49873  1.0000
  H   H6        1.0  0.32721  0.90409  0.99873  1.0000
  H   H7        1.0  0.82721  0.90409  0.50127  1.0000
  H   H8        1.0  0.67279  0.09591  0.00127  1.0000
  H   H9        1.0  0.20183  0.19098  0.62496  1.0000
  H   H10       1.0  0.29817  0.80901  0.12496  1.0000
  H   H11       1.0  0.79818  0.80902  0.37504  1.0000
  H   H12       1.0  0.70183  0.19098  0.87504  1.0000
  H   H13       1.0  0.89839  0.57422  0.64251  1.0000
  H   H14       1.0  0.60161  0.42578  0.14251  1.0000
  H   H15       1.0  0.10161  0.42577  0.35749  1.0000
  H   H16       1.0  0.39839  0.57421  0.85749  1.0000
  H   H17       1.0  0.03344  0.56752  0.56103  1.0000
  H   H18       1.0  0.46654  0.43247  0.06102  1.0000
  H   H19       1.0  0.96655  0.43248  0.43898  1.0000
  H   H20       1.0  0.53346  0.56752  0.93897  1.0000
  C   C1        1.0  0.71393  0.40212  0.57092  1.0000
  C   C2        1.0  0.78609  0.59789  0.07091  1.0000
  C   C3        1.0  0.28609  0.59788  0.42909  1.0000
  C   C4        1.0  0.21392  0.40211  0.92908  1.0000
  C   C5        1.0  0.52250  0.23998  0.47961  1.0000
  C   C6        1.0  0.97749  0.76003  0.97961  1.0000
  C   C7        1.0  0.47750  0.76002  0.52039  1.0000
  C   C8        1.0  0.02252  0.23998  0.02038  1.0000
  C   C9        1.0  0.32659  0.18209  0.52006  1.0000
  C   C10       1.0  0.17340  0.81790  0.02006  1.0000
  C   C11       1.0  0.67340  0.81790  0.47994  1.0000
  C   C12       1.0  0.82660  0.18209  0.97994  1.0000
  C   C13       1.0  0.34193  0.23664  0.58869  1.0000
  C   C14       1.0  0.15806  0.76336  0.08868  1.0000
  C   C15       1.0  0.65805  0.76336  0.41132  1.0000
  C   C16       1.0  0.84194  0.23664  0.91131  1.0000
  N   N1        1.0  0.53234  0.34516  0.61468  1.0000
  N   N2        1.0  0.96766  0.65485  0.11468  1.0000
  N   N3        1.0  0.46765  0.65484  0.38532  1.0000
  N   N4        1.0  0.03233  0.34515  0.88532  1.0000
  N   N5        1.0  0.71350  0.34785  0.50373  1.0000
  N   N6        1.0  0.78650  0.65216  0.00372  1.0000
  N   N7        1.0  0.28651  0.65216  0.49627  1.0000
  N   N8        1.0  0.21351  0.34785  0.99627  1.0000
  N   N9        1.0  0.90297  0.51425  0.59510  1.0000
  N   N10       1.0  0.59703  0.48576  0.09510  1.0000
  N   N11       1.0  0.09703  0.48575  0.40490  1.0000
  N   N12       1.0  0.40299  0.51425  0.90489  1.0000
  N   N13       1.0  0.77559  0.19273  0.73081  1.0000
  N   N14       1.0  0.72442  0.80727  0.23081  1.0000
  N   N15       1.0  0.22441  0.80728  0.26919  1.0000
  N   N16       1.0  0.27558  0.19272  0.76919  1.0000
  N   N17       1.0  0.79795  0.07491  0.68803  1.0000
  N   N18       1.0  0.70205  0.92510  0.18803  1.0000
  N   N19       1.0  0.20205  0.92510  0.31197  1.0000
  N   N20       1.0  0.29796  0.07491  0.81197  1.0000
  N   N21       1.0  0.82224  0.96017  0.64784  1.0000
  N   N22       1.0  0.67776  0.03982  0.14784  1.0000
  N   N23       1.0  0.17775  0.03982  0.35216  1.0000
  N   N24       1.0  0.32225  0.96019  0.85216  1.0000
  N   N25       1.0  0.34771  0.55648  0.73998  1.0000
  N   N26       1.0  0.15228  0.44351  0.23998  1.0000
  N   N27       1.0  0.65228  0.44352  0.26002  1.0000
  N   N28       1.0  0.84772  0.55648  0.76002  1.0000
  N   N29       1.0  0.32544  0.69499  0.70677  1.0000
  N   N30       1.0  0.17456  0.30501  0.20677  1.0000
  N   N31       1.0  0.67456  0.30501  0.29323  1.0000
  N   N32       1.0  0.82544  0.69499  0.79323  1.0000
  N   N33       1.0  0.29751  0.82837  0.67679  1.0000
  N   N34       1.0  0.20248  0.17163  0.17679  1.0000
  N   N35       1.0  0.70248  0.17162  0.32321  1.0000
  N   N36       1.0  0.79752  0.82838  0.82321  1.0000
