data_image0
_chemical_formula_structural       Li8H64C32Cl8O8
_chemical_formula_sum              "Li8 H64 C32 Cl8 O8"
_cell_length_a       7.42645
_cell_length_b       11.3355
_cell_length_c       13.7969
_cell_angle_alpha    90
_cell_angle_beta     90.0001
_cell_angle_gamma    89.9999

_space_group_name_H-M_alt    "P 1"
_space_group_IT_number       1

loop_
  _space_group_symop_operation_xyz
  'x, y, z'

loop_
  _atom_site_type_symbol
  _atom_site_label
  _atom_site_symmetry_multiplicity
  _atom_site_fract_x
  _atom_site_fract_y
  _atom_site_fract_z
  _atom_site_occupancy
  Li  Li1       1.0  0.59471  0.07670  0.57027  1.0000
  Li  Li2       1.0  0.90529  0.57670  0.07027  1.0000
  Li  Li3       1.0  0.09471  0.92330  0.57027  1.0000
  Li  Li4       1.0  0.59471  0.57670  0.92973  1.0000
  Li  Li5       1.0  0.40529  0.92330  0.42973  1.0000
  Li  Li6       1.0  0.09471  0.42330  0.92973  1.0000
  Li  Li7       1.0  0.90529  0.07670  0.42973  1.0000
  Li  Li8       1.0  0.40529  0.42330  0.07027  1.0000
  H   H1        1.0  0.37912  0.23409  0.76235  1.0000
  H   H2        1.0  0.12087  0.73408  0.26235  1.0000
  H   H3        1.0  0.87913  0.76592  0.76236  1.0000
  H   H4        1.0  0.37913  0.73408  0.73765  1.0000
  H   H5        1.0  0.62087  0.76592  0.23764  1.0000
  H   H6        1.0  0.87912  0.26591  0.73765  1.0000
  H   H7        1.0  0.12087  0.23408  0.23765  1.0000
  H   H8        1.0  0.62088  0.26592  0.26235  1.0000
  H   H9        1.0  0.25408  0.14736  0.67564  1.0000
  H   H10       1.0  0.24592  0.64735  0.17565  1.0000
  H   H11       1.0  0.75408  0.85265  0.67565  1.0000
  H   H12       1.0  0.25408  0.64735  0.82435  1.0000
  H   H13       1.0  0.74592  0.85265  0.32435  1.0000
  H   H14       1.0  0.75407  0.35264  0.82436  1.0000
  H   H15       1.0  0.24592  0.14735  0.32435  1.0000
  H   H16       1.0  0.74593  0.35265  0.17565  1.0000
  H   H17       1.0  0.16079  0.37789  0.71007  1.0000
  H   H18       1.0  0.33921  0.87788  0.21008  1.0000
  H   H19       1.0  0.66079  0.62212  0.71008  1.0000
  H   H20       1.0  0.16079  0.87788  0.78992  1.0000
  H   H21       1.0  0.83920  0.62212  0.28992  1.0000
  H   H22       1.0  0.66079  0.12211  0.78993  1.0000
  H   H23       1.0  0.33921  0.37788  0.28992  1.0000
  H   H24       1.0  0.83921  0.12212  0.21008  1.0000
  H   H25       1.0  0.16192  0.32243  0.58874  1.0000
  H   H26       1.0  0.33808  0.82242  0.08875  1.0000
  H   H27       1.0  0.66192  0.67758  0.58874  1.0000
  H   H28       1.0  0.16192  0.82242  0.91126  1.0000
  H   H29       1.0  0.83808  0.67758  0.41125  1.0000
  H   H30       1.0  0.66192  0.17757  0.91126  1.0000
  H   H31       1.0  0.33808  0.32242  0.41125  1.0000
  H   H32       1.0  0.83808  0.17757  0.08875  1.0000
  H   H33       1.0  0.37608  0.48518  0.57278  1.0000
  H   H34       1.0  0.12393  0.98518  0.07278  1.0000
  H   H35       1.0  0.87608  0.51482  0.57278  1.0000
  H   H36       1.0  0.37607  0.98518  0.92722  1.0000
  H   H37       1.0  0.62392  0.51482  0.42722  1.0000
  H   H38       1.0  0.87608  0.01482  0.92722  1.0000
  H   H39       1.0  0.12393  0.48518  0.42722  1.0000
  H   H40       1.0  0.62392  0.01482  0.07278  1.0000
  H   H41       1.0  0.45106  0.46565  0.69407  1.0000
  H   H42       1.0  0.04894  0.96565  0.19407  1.0000
  H   H43       1.0  0.95106  0.53435  0.69407  1.0000
  H   H44       1.0  0.45106  0.96565  0.80593  1.0000
  H   H45       1.0  0.54894  0.53435  0.30593  1.0000
  H   H46       1.0  0.95106  0.03435  0.80593  1.0000
  H   H47       1.0  0.04894  0.46565  0.30593  1.0000
  H   H48       1.0  0.54894  0.03435  0.19407  1.0000
  H   H49       1.0  0.56694  0.32938  0.51518  1.0000
  H   H50       1.0  0.93307  0.82938  0.01518  1.0000
  H   H51       1.0  0.06693  0.67063  0.51518  1.0000
  H   H52       1.0  0.56693  0.82938  0.98482  1.0000
  H   H53       1.0  0.43307  0.67063  0.48482  1.0000
  H   H54       1.0  0.06694  0.17063  0.98482  1.0000
  H   H55       1.0  0.93307  0.32937  0.48482  1.0000
  H   H56       1.0  0.43307  0.17062  0.01518  1.0000
  H   H57       1.0  0.68411  0.35037  0.62700  1.0000
  H   H58       1.0  0.81590  0.85037  0.12700  1.0000
  H   H59       1.0  0.18411  0.64963  0.62700  1.0000
  H   H60       1.0  0.68410  0.85037  0.87300  1.0000
  H   H61       1.0  0.31589  0.64963  0.37300  1.0000
  H   H62       1.0  0.18410  0.14963  0.87301  1.0000
  H   H63       1.0  0.81589  0.35037  0.37300  1.0000
  H   H64       1.0  0.31590  0.14963  0.12700  1.0000
  C   C1        1.0  0.33576  0.22687  0.68619  1.0000
  C   C2        1.0  0.16424  0.72687  0.18619  1.0000
  C   C3        1.0  0.83576  0.77313  0.68619  1.0000
  C   C4        1.0  0.33576  0.72687  0.81381  1.0000
  C   C5        1.0  0.66424  0.77313  0.31381  1.0000
  C   C6        1.0  0.83576  0.27313  0.81381  1.0000
  C   C7        1.0  0.16424  0.22687  0.31381  1.0000
  C   C8        1.0  0.66424  0.27313  0.18619  1.0000
  C   C9        1.0  0.24532  0.33997  0.65290  1.0000
  C   C10       1.0  0.25468  0.83997  0.15291  1.0000
  C   C11       1.0  0.74532  0.66003  0.65291  1.0000
  C   C12       1.0  0.24532  0.83997  0.84709  1.0000
  C   C13       1.0  0.75468  0.66003  0.34709  1.0000
  C   C14       1.0  0.74531  0.16002  0.84710  1.0000
  C   C15       1.0  0.25468  0.33997  0.34709  1.0000
  C   C16       1.0  0.75468  0.16002  0.15291  1.0000
  C   C17       1.0  0.40679  0.41915  0.62852  1.0000
  C   C18       1.0  0.09321  0.91915  0.12853  1.0000
  C   C19       1.0  0.90679  0.58085  0.62853  1.0000
  C   C20       1.0  0.40679  0.91915  0.87148  1.0000
  C   C21       1.0  0.59321  0.58085  0.37147  1.0000
  C   C22       1.0  0.90679  0.08085  0.87148  1.0000
  C   C23       1.0  0.09321  0.41915  0.37147  1.0000
  C   C24       1.0  0.59321  0.08085  0.12853  1.0000
  C   C25       1.0  0.55182  0.33217  0.59449  1.0000
  C   C26       1.0  0.94818  0.83217  0.09449  1.0000
  C   C27       1.0  0.05182  0.66783  0.59449  1.0000
  C   C28       1.0  0.55182  0.83217  0.90551  1.0000
  C   C29       1.0  0.44817  0.66783  0.40551  1.0000
  C   C30       1.0  0.05182  0.16783  0.90551  1.0000
  C   C31       1.0  0.94818  0.33217  0.40551  1.0000
  C   C32       1.0  0.44818  0.16783  0.09449  1.0000
  Cl  Cl1       1.0  0.90727  0.08302  0.60125  1.0000
  Cl  Cl2       1.0  0.59272  0.58301  0.10125  1.0000
  Cl  Cl3       1.0  0.40728  0.91699  0.60125  1.0000
  Cl  Cl4       1.0  0.90728  0.58301  0.89875  1.0000
  Cl  Cl5       1.0  0.09272  0.91699  0.39875  1.0000
  Cl  Cl6       1.0  0.40727  0.41699  0.89875  1.0000
  Cl  Cl7       1.0  0.59272  0.08301  0.39875  1.0000
  Cl  Cl8       1.0  0.09273  0.41699  0.10125  1.0000
  O   O1        1.0  0.49331  0.21571  0.62470  1.0000
  O   O2        1.0  0.00669  0.71571  0.12470  1.0000
  O   O3        1.0  0.99331  0.78429  0.62470  1.0000
  O   O4        1.0  0.49331  0.71571  0.87530  1.0000
  O   O5        1.0  0.50669  0.78429  0.37530  1.0000
  O   O6        1.0  0.99330  0.28429  0.87530  1.0000
  O   O7        1.0  0.00669  0.21571  0.37530  1.0000
  O   O8        1.0  0.50670  0.28429  0.12470  1.0000
