data_image0
_chemical_formula_structural       Ag2P2H38C46Br2N2
_chemical_formula_sum              "Ag2 P2 H38 C46 Br2 N2"
_cell_length_a       9.03505
_cell_length_b       9.53142
_cell_length_c       12.8832
_cell_angle_alpha    104.653
_cell_angle_beta     109.314
_cell_angle_gamma    92.3562

_space_group_name_H-M_alt    "P 1"
_space_group_IT_number       1

loop_
  _space_group_symop_operation_xyz
  'x, y, z'

loop_
  _atom_site_type_symbol
  _atom_site_label
  _atom_site_symmetry_multiplicity
  _atom_site_fract_x
  _atom_site_fract_y
  _atom_site_fract_z
  _atom_site_occupancy
  Ag  Ag1       1.0  0.03766  0.48446  0.89142  1.0000
  Ag  Ag2       1.0  0.96234  0.51554  0.10858  1.0000
  P   P1        1.0  0.00171  0.28199  0.72976  1.0000
  P   P2        1.0  0.99830  0.71800  0.27024  1.0000
  H   H1        1.0  0.04645  0.80710  0.86604  1.0000
  H   H2        1.0  0.95355  0.19290  0.13396  1.0000
  H   H3        1.0  0.23161  0.02830  0.90622  1.0000
  H   H4        1.0  0.76840  0.97170  0.09378  1.0000
  H   H5        1.0  0.61258  0.79515  0.05372  1.0000
  H   H6        1.0  0.38743  0.20485  0.94628  1.0000
  H   H7        1.0  0.41002  0.58647  0.00817  1.0000
  H   H8        1.0  0.58998  0.41353  0.99183  1.0000
  H   H9        1.0  0.29744  0.44923  0.77759  1.0000
  H   H10       1.0  0.70256  0.55077  0.22241  1.0000
  H   H11       1.0  0.55481  0.38667  0.76130  1.0000
  H   H12       1.0  0.44519  0.61333  0.23869  1.0000
  H   H13       1.0  0.59186  0.12448  0.69958  1.0000
  H   H14       1.0  0.40814  0.87551  0.30042  1.0000
  H   H15       1.0  0.37436  0.92738  0.65963  1.0000
  H   H16       1.0  0.62564  0.07262  0.34037  1.0000
  H   H17       1.0  0.11564  0.99085  0.67035  1.0000
  H   H18       1.0  0.88436  0.00915  0.32965  1.0000
  H   H19       1.0  0.79641  0.03675  0.53340  1.0000
  H   H20       1.0  0.20359  0.96324  0.46661  1.0000
  H   H21       1.0  0.64844  0.80736  0.52438  1.0000
  H   H22       1.0  0.35155  0.19263  0.47563  1.0000
  H   H23       1.0  0.66000  0.75042  0.70681  1.0000
  H   H24       1.0  0.34000  0.24959  0.29320  1.0000
  H   H25       1.0  0.81126  0.92640  0.89332  1.0000
  H   H26       1.0  0.18875  0.07361  0.10669  1.0000
  H   H27       1.0  0.95649  0.16186  0.90305  1.0000
  H   H28       1.0  0.04352  0.83814  0.09695  1.0000
  H   H29       1.0  0.08538  0.24906  0.51896  1.0000
  H   H30       1.0  0.91462  0.75094  0.48104  1.0000
  H   H31       1.0  0.94418  0.29569  0.33329  1.0000
  H   H32       1.0  0.05582  0.70431  0.66671  1.0000
  H   H33       1.0  0.67904  0.38087  0.29635  1.0000
  H   H34       1.0  0.32095  0.61913  0.70365  1.0000
  H   H35       1.0  0.56647  0.43696  0.45162  1.0000
  H   H36       1.0  0.43353  0.56303  0.54839  1.0000
  H   H37       1.0  0.71314  0.39917  0.64149  1.0000
  H   H38       1.0  0.28686  0.60082  0.35851  1.0000
  C   C1        1.0  0.17372  0.80937  0.90684  1.0000
  C   C2        1.0  0.82628  0.19063  0.09316  1.0000
  C   C3        1.0  0.27883  0.93343  0.93047  1.0000
  C   C4        1.0  0.72117  0.06657  0.06953  1.0000
  C   C5        1.0  0.44201  0.93467  0.98554  1.0000
  C   C6        1.0  0.55799  0.06534  0.01446  1.0000
  C   C7        1.0  0.48908  0.80573  0.01224  1.0000
  C   C8        1.0  0.51092  0.19427  0.98776  1.0000
  C   C9        1.0  0.37605  0.68636  0.98567  1.0000
  C   C10       1.0  0.62396  0.31364  0.01433  1.0000
  C   C11       1.0  0.18871  0.22469  0.72219  1.0000
  C   C12       1.0  0.81129  0.77531  0.27780  1.0000
  C   C13       1.0  0.31390  0.33513  0.74849  1.0000
  C   C14       1.0  0.68610  0.66487  0.25151  1.0000
  C   C15       1.0  0.45764  0.29956  0.73867  1.0000
  C   C16       1.0  0.54236  0.70044  0.26133  1.0000
  C   C17       1.0  0.47916  0.15263  0.70601  1.0000
  C   C18       1.0  0.52083  0.84736  0.29399  1.0000
  C   C19       1.0  0.35717  0.04210  0.68356  1.0000
  C   C20       1.0  0.64283  0.95789  0.31643  1.0000
  C   C21       1.0  0.21158  0.07770  0.69046  1.0000
  C   C22       1.0  0.78842  0.92230  0.30954  1.0000
  C   C23       1.0  0.88785  0.11299  0.71874  1.0000
  C   C24       1.0  0.11215  0.88701  0.28126  1.0000
  C   C25       1.0  0.80082  0.01279  0.61255  1.0000
  C   C26       1.0  0.19918  0.98721  0.38746  1.0000
  C   C27       1.0  0.71788  0.88293  0.60768  1.0000
  C   C28       1.0  0.28212  0.11706  0.39232  1.0000
  C   C29       1.0  0.72287  0.85185  0.70900  1.0000
  C   C30       1.0  0.27713  0.14815  0.29100  1.0000
  C   C31       1.0  0.80899  0.95177  0.81502  1.0000
  C   C32       1.0  0.19101  0.04824  0.18499  1.0000
  C   C33       1.0  0.89060  0.08249  0.82042  1.0000
  C   C34       1.0  0.10940  0.91751  0.17959  1.0000
  C   C35       1.0  0.90623  0.31657  0.59125  1.0000
  C   C36       1.0  0.09378  0.68342  0.40875  1.0000
  C   C37       1.0  0.97172  0.29020  0.50470  1.0000
  C   C38       1.0  0.02828  0.70980  0.49530  1.0000
  C   C39       1.0  0.89148  0.31572  0.39963  1.0000
  C   C40       1.0  0.10852  0.68428  0.60037  1.0000
  C   C41       1.0  0.74416  0.36528  0.37949  1.0000
  C   C42       1.0  0.25584  0.63473  0.62051  1.0000
  C   C43       1.0  0.68010  0.39537  0.46661  1.0000
  C   C44       1.0  0.31990  0.60463  0.53339  1.0000
  C   C45       1.0  0.76128  0.37302  0.57252  1.0000
  C   C46       1.0  0.23872  0.62698  0.42748  1.0000
  Br  Br1       1.0  0.79009  0.61854  0.91903  1.0000
  Br  Br2       1.0  0.20991  0.38146  0.08097  1.0000
  N   N1        1.0  0.22028  0.68696  0.93413  1.0000
  N   N2        1.0  0.77972  0.31304  0.06587  1.0000
