data_image0
_chemical_formula_structural       Ag2H26C34S2N6Cl2O8
_chemical_formula_sum              "Ag2 H26 C34 S2 N6 Cl2 O8"
_cell_length_a       7.42806
_cell_length_b       10.8201
_cell_length_c       11.2517
_cell_angle_alpha    77.0706
_cell_angle_beta     71.2665
_cell_angle_gamma    76.8547

_space_group_name_H-M_alt    "P 1"
_space_group_IT_number       1

loop_
  _space_group_symop_operation_xyz
  'x, y, z'

loop_
  _atom_site_type_symbol
  _atom_site_label
  _atom_site_symmetry_multiplicity
  _atom_site_fract_x
  _atom_site_fract_y
  _atom_site_fract_z
  _atom_site_occupancy
  Ag  Ag1       1.0  0.40472  0.44493  0.42316  1.0000
  Ag  Ag2       1.0  0.59527  0.55507  0.57685  1.0000
  H   H1        1.0  0.28381  0.82102  0.21617  1.0000
  H   H2        1.0  0.71619  0.17898  0.78383  1.0000
  H   H3        1.0  0.45566  0.88912  0.08758  1.0000
  H   H4        1.0  0.54434  0.11088  0.91242  1.0000
  H   H5        1.0  0.85114  0.11667  0.32355  1.0000
  H   H6        1.0  0.14886  0.88333  0.67645  1.0000
  H   H7        1.0  0.41859  0.11708  0.46582  1.0000
  H   H8        1.0  0.58141  0.88291  0.53418  1.0000
  H   H9        1.0  0.08593  0.19474  0.59519  1.0000
  H   H10       1.0  0.91407  0.80526  0.40481  1.0000
  H   H11       1.0  0.51324  0.64391  0.17603  1.0000
  H   H12       1.0  0.48676  0.35609  0.82397  1.0000
  H   H13       1.0  0.72319  0.64459  0.95403  1.0000
  H   H14       1.0  0.27681  0.35541  0.04597  1.0000
  H   H15       1.0  0.82940  0.22706  0.04037  1.0000
  H   H16       1.0  0.17060  0.77294  0.95963  1.0000
  H   H17       1.0  0.62945  0.24762  0.26104  1.0000
  H   H18       1.0  0.37055  0.75238  0.73896  1.0000
  H   H19       1.0  0.03251  0.60445  0.54835  1.0000
  H   H20       1.0  0.96749  0.39555  0.45165  1.0000
  H   H21       1.0  0.79633  0.61496  0.75996  1.0000
  H   H22       1.0  0.20367  0.38505  0.24004  1.0000
  H   H23       1.0  0.10061  0.24301  0.89139  1.0000
  H   H24       1.0  0.89938  0.75699  0.10861  1.0000
  H   H25       1.0  0.33416  0.25552  0.67436  1.0000
  H   H26       1.0  0.66584  0.74448  0.32564  1.0000
  C   C1        1.0  0.94703  0.16540  0.46572  1.0000
  C   C2        1.0  0.05297  0.83460  0.53428  1.0000
  C   C3        1.0  0.97517  0.11915  0.35366  1.0000
  C   C4        1.0  0.02483  0.88085  0.64634  1.0000
  C   C5        1.0  0.16028  0.07450  0.28009  1.0000
  C   C6        1.0  0.83972  0.92550  0.71991  1.0000
  C   C7        1.0  0.32048  0.07446  0.32084  1.0000
  C   C8        1.0  0.67952  0.92554  0.67916  1.0000
  C   C9        1.0  0.29367  0.11693  0.43490  1.0000
  C   C10       1.0  0.70633  0.88306  0.56510  1.0000
  C   C11       1.0  0.10817  0.16144  0.50628  1.0000
  C   C12       1.0  0.89184  0.83856  0.49372  1.0000
  C   C13       1.0  0.74710  0.22472  0.53790  1.0000
  C   C14       1.0  0.25290  0.77528  0.46210  1.0000
  C   C15       1.0  0.58856  0.55458  0.14109  1.0000
  C   C16       1.0  0.41144  0.44542  0.85891  1.0000
  C   C17       1.0  0.70382  0.55293  0.01660  1.0000
  C   C18       1.0  0.29617  0.44707  0.98340  1.0000
  C   C19       1.0  0.79787  0.43494  0.97629  1.0000
  C   C20       1.0  0.20213  0.56506  0.02371  1.0000
  C   C21       1.0  0.76725  0.32237  0.06544  1.0000
  C   C22       1.0  0.23275  0.67763  0.93456  1.0000
  C   C23       1.0  0.65290  0.33235  0.18863  1.0000
  C   C24       1.0  0.34709  0.66765  0.81137  1.0000
  C   C25       1.0  0.04350  0.52792  0.62795  1.0000
  C   C26       1.0  0.95650  0.47208  0.37205  1.0000
  C   C27       1.0  0.91123  0.53208  0.74686  1.0000
  C   C28       1.0  0.08877  0.46792  0.25314  1.0000
  C   C29       1.0  0.92787  0.43001  0.84655  1.0000
  C   C30       1.0  0.07213  0.56999  0.15345  1.0000
  C   C31       1.0  0.07793  0.32562  0.81884  1.0000
  C   C32       1.0  0.92207  0.67439  0.18116  1.0000
  C   C33       1.0  0.20893  0.33062  0.69845  1.0000
  C   C34       1.0  0.79107  0.66938  0.30155  1.0000
  S   S1        1.0  0.17833  0.02385  0.13494  1.0000
  S   S2        1.0  0.82167  0.97615  0.86506  1.0000
  N   N1        1.0  0.31210  0.88323  0.12888  1.0000
  N   N2        1.0  0.68790  0.11677  0.87112  1.0000
  N   N3        1.0  0.56520  0.44634  0.22700  1.0000
  N   N4        1.0  0.43481  0.55366  0.77300  1.0000
  N   N5        1.0  0.19313  0.43101  0.60435  1.0000
  N   N6        1.0  0.80687  0.56899  0.39565  1.0000
  Cl  Cl1       1.0  0.55374  0.02287  0.23459  1.0000
  Cl  Cl2       1.0  0.44626  0.97712  0.76541  1.0000
  O   O1        1.0  0.73395  0.27343  0.63469  1.0000
  O   O2        1.0  0.26605  0.72657  0.36531  1.0000
  O   O3        1.0  0.60916  0.22659  0.49406  1.0000
  O   O4        1.0  0.39084  0.77341  0.50594  1.0000
  O   O5        1.0  0.98468  0.01220  0.14338  1.0000
  O   O6        1.0  0.01532  0.98780  0.85662  1.0000
  O   O7        1.0  0.27700  0.11372  0.03011  1.0000
  O   O8        1.0  0.72300  0.88628  0.96989  1.0000
