data_image0
_chemical_formula_structural       Zn2H48C52N8O12
_chemical_formula_sum              "Zn2 H48 C52 N8 O12"
_cell_length_a       9.34115
_cell_length_b       11.8573
_cell_length_c       13.0953
_cell_angle_alpha    109.199
_cell_angle_beta     97.7437
_cell_angle_gamma    113.103

_space_group_name_H-M_alt    "P 1"
_space_group_IT_number       1

loop_
  _space_group_symop_operation_xyz
  'x, y, z'

loop_
  _atom_site_type_symbol
  _atom_site_label
  _atom_site_symmetry_multiplicity
  _atom_site_fract_x
  _atom_site_fract_y
  _atom_site_fract_z
  _atom_site_occupancy
  Zn  Zn1       1.0  0.63479  0.20695  0.21482  1.0000
  Zn  Zn2       1.0  0.36521  0.79305  0.78518  1.0000
  H   H1        1.0  0.62147  0.42501  0.39741  1.0000
  H   H2        1.0  0.37853  0.57499  0.60259  1.0000
  H   H3        1.0  0.75737  0.56204  0.61087  1.0000
  H   H4        1.0  0.24262  0.43796  0.38913  1.0000
  H   H5        1.0  0.08968  0.21638  0.47512  1.0000
  H   H6        1.0  0.91031  0.78362  0.52488  1.0000
  H   H7        1.0  0.95296  0.50800  0.70837  1.0000
  H   H8        1.0  0.04704  0.49200  0.29163  1.0000
  H   H9        1.0  0.07829  0.21963  0.74474  1.0000
  H   H10       1.0  0.92171  0.78037  0.25526  1.0000
  H   H11       1.0  0.87548  0.20513  0.38202  1.0000
  H   H12       1.0  0.12452  0.79487  0.61798  1.0000
  H   H13       1.0  0.31880  0.33567  0.70395  1.0000
  H   H14       1.0  0.68121  0.66433  0.29605  1.0000
  H   H15       1.0  0.42498  0.33710  0.54260  1.0000
  H   H16       1.0  0.57502  0.66290  0.45740  1.0000
  H   H17       1.0  0.30713  0.15993  0.46871  1.0000
  H   H18       1.0  0.69286  0.84007  0.53129  1.0000
  H   H19       1.0  0.58849  0.21302  0.55348  1.0000
  H   H20       1.0  0.41151  0.78698  0.44652  1.0000
  H   H21       1.0  0.59264  0.31356  0.68859  1.0000
  H   H22       1.0  0.40736  0.68643  0.31141  1.0000
  H   H23       1.0  0.54826  0.09105  0.68061  1.0000
  H   H24       1.0  0.45174  0.90895  0.31939  1.0000
  H   H25       1.0  0.37834  0.00699  0.55757  1.0000
  H   H26       1.0  0.62166  0.99301  0.44243  1.0000
  H   H27       1.0  0.40267  0.20209  0.79071  1.0000
  H   H28       1.0  0.59733  0.79791  0.20930  1.0000
  H   H29       1.0  0.28693  0.02484  0.73330  1.0000
  H   H30       1.0  0.71307  0.97516  0.26670  1.0000
  H   H31       1.0  0.12289  0.02907  0.56762  1.0000
  H   H32       1.0  0.87711  0.97093  0.43238  1.0000
  H   H33       1.0  0.67515  0.83367  0.71021  1.0000
  H   H34       1.0  0.32485  0.16632  0.28978  1.0000
  H   H35       1.0  0.79394  0.28438  0.97921  1.0000
  H   H36       1.0  0.20606  0.71562  0.02079  1.0000
  H   H37       1.0  0.52940  0.08104  0.92775  1.0000
  H   H38       1.0  0.47060  0.91896  0.07225  1.0000
  H   H39       1.0  0.99929  0.26267  0.87995  1.0000
  H   H40       1.0  0.00071  0.73733  0.12005  1.0000
  H   H41       1.0  0.72155  0.43462  0.01040  1.0000
  H   H42       1.0  0.27845  0.56538  0.98960  1.0000
  H   H43       1.0  0.68144  0.54041  0.87896  1.0000
  H   H44       1.0  0.31856  0.45959  0.12104  1.0000
  H   H45       1.0  0.72424  0.88681  0.01932  1.0000
  H   H46       1.0  0.27576  0.11320  0.98069  1.0000
  H   H47       1.0  0.82887  0.75223  0.88831  1.0000
  H   H48       1.0  0.17113  0.24777  0.11170  1.0000
  C   C1        1.0  0.70884  0.40802  0.44654  1.0000
  C   C2        1.0  0.29116  0.59198  0.55346  1.0000
  C   C3        1.0  0.78340  0.48183  0.56284  1.0000
  C   C4        1.0  0.21660  0.51817  0.43717  1.0000
  C   C5        1.0  0.89245  0.45169  0.61751  1.0000
  C   C6        1.0  0.10755  0.54831  0.38249  1.0000
  C   C7        1.0  0.92881  0.35131  0.55429  1.0000
  C   C8        1.0  0.07119  0.64869  0.44571  1.0000
  C   C9        1.0  0.85147  0.28298  0.43733  1.0000
  C   C10       1.0  0.14853  0.71702  0.56267  1.0000
  C   C11       1.0  0.04817  0.32495  0.61928  1.0000
  C   C12       1.0  0.95183  0.67505  0.38072  1.0000
  C   C13       1.0  0.25505  0.24576  0.62237  1.0000
  C   C14       1.0  0.74494  0.75424  0.37762  1.0000
  C   C15       1.0  0.37490  0.24266  0.55381  1.0000
  C   C16       1.0  0.62510  0.75734  0.44619  1.0000
  C   C17       1.0  0.51254  0.22290  0.60965  1.0000
  C   C18       1.0  0.48746  0.77710  0.39035  1.0000
  C   C19       1.0  0.44669  0.09993  0.63708  1.0000
  C   C20       1.0  0.55331  0.90007  0.36291  1.0000
  C   C21       1.0  0.33437  0.11061  0.71032  1.0000
  C   C22       1.0  0.66563  0.88939  0.28967  1.0000
  C   C23       1.0  0.19148  0.12040  0.64826  1.0000
  C   C24       1.0  0.80851  0.87960  0.35174  1.0000
  C   C25       1.0  0.96348  0.01935  0.71885  1.0000
  C   C26       1.0  0.03652  0.98065  0.28115  1.0000
  C   C27       1.0  0.85014  0.04570  0.78300  1.0000
  C   C28       1.0  0.14986  0.95430  0.21700  1.0000
  C   C29       1.0  0.70268  0.93597  0.76525  1.0000
  C   C30       1.0  0.29732  0.06403  0.23475  1.0000
  C   C31       1.0  0.77000  0.18810  0.91470  1.0000
  C   C32       1.0  0.23000  0.81190  0.08530  1.0000
  C   C33       1.0  0.62369  0.07454  0.88916  1.0000
  C   C34       1.0  0.37631  0.92546  0.11083  1.0000
  C   C35       1.0  0.88399  0.17417  0.86025  1.0000
  C   C36       1.0  0.11601  0.82583  0.13975  1.0000
  C   C37       1.0  0.54220  0.37242  0.14873  1.0000
  C   C38       1.0  0.45780  0.62758  0.85127  1.0000
  C   C39       1.0  0.52167  0.43950  0.07268  1.0000
  C   C40       1.0  0.47832  0.56050  0.92732  1.0000
  C   C41       1.0  0.62410  0.46286  0.00471  1.0000
  C   C42       1.0  0.37590  0.53713  0.99528  1.0000
  C   C43       1.0  0.60251  0.52235  0.93229  1.0000
  C   C44       1.0  0.39749  0.47765  0.06771  1.0000
  C   C45       1.0  0.87836  0.15834  0.14515  1.0000
  C   C46       1.0  0.12164  0.84166  0.85485  1.0000
  C   C47       1.0  0.94190  0.07506  0.07232  1.0000
  C   C48       1.0  0.05810  0.92494  0.92768  1.0000
  C   C49       1.0  0.84507  0.93526  0.01059  1.0000
  C   C50       1.0  0.15493  0.06474  0.98942  1.0000
  C   C51       1.0  0.90285  0.86063  0.93830  1.0000
  C   C52       1.0  0.09715  0.13937  0.06171  1.0000
  N   N1        1.0  0.74218  0.31002  0.38539  1.0000
  N   N2        1.0  0.25782  0.68997  0.61461  1.0000
  N   N3        1.0  0.59047  0.95048  0.81521  1.0000
  N   N4        1.0  0.40953  0.04952  0.18479  1.0000
  N   N5        1.0  0.12312  0.26003  0.56238  1.0000
  N   N6        1.0  0.87688  0.73997  0.43762  1.0000
  N   N7        1.0  0.07876  0.12791  0.71397  1.0000
  N   N8        1.0  0.92123  0.87209  0.28603  1.0000
  O   O1        1.0  0.61624  0.29980  0.11932  1.0000
  O   O2        1.0  0.38376  0.70020  0.88068  1.0000
  O   O3        1.0  0.48778  0.38632  0.23202  1.0000
  O   O4        1.0  0.51222  0.61368  0.76799  1.0000
  O   O5        1.0  0.73289  0.09081  0.15075  1.0000
  O   O6        1.0  0.26711  0.90920  0.84925  1.0000
  O   O7        1.0  0.95950  0.28386  0.19286  1.0000
  O   O8        1.0  0.04051  0.71614  0.80715  1.0000
  O   O9        1.0  0.07623  0.36575  0.72464  1.0000
  O   O10       1.0  0.92377  0.63425  0.27536  1.0000
  O   O11       1.0  0.94586  0.90210  0.67115  1.0000
  O   O12       1.0  0.05414  0.09790  0.32885  1.0000
