data_image0
_chemical_formula_structural       Cu4H16C20O16
_chemical_formula_sum              "Cu4 H16 C20 O16"
_cell_length_a       6.85824
_cell_length_b       6.85838
_cell_length_c       11.8557
_cell_angle_alpha    89.9783
_cell_angle_beta     90.0201
_cell_angle_gamma    89.9761

_space_group_name_H-M_alt    "P 1"
_space_group_IT_number       1

loop_
  _space_group_symop_operation_xyz
  'x, y, z'

loop_
  _atom_site_type_symbol
  _atom_site_label
  _atom_site_symmetry_multiplicity
  _atom_site_fract_x
  _atom_site_fract_y
  _atom_site_fract_z
  _atom_site_occupancy
  Cu  Cu1       1.0  0.27330  0.72659  0.24993  1.0000
  Cu  Cu2       1.0  0.72658  0.27331  0.75007  1.0000
  Cu  Cu3       1.0  0.77305  0.77305  0.50000  1.0000
  Cu  Cu4       1.0  0.22710  0.22711  0.00000  1.0000
  H   H1        1.0  0.82253  0.26466  0.12309  1.0000
  H   H2        1.0  0.17729  0.73557  0.62295  1.0000
  H   H3        1.0  0.23505  0.32154  0.37293  1.0000
  H   H4        1.0  0.76476  0.67838  0.87295  1.0000
  H   H5        1.0  0.67839  0.76476  0.12705  1.0000
  H   H6        1.0  0.32154  0.23504  0.62707  1.0000
  H   H7        1.0  0.26465  0.82252  0.87691  1.0000
  H   H8        1.0  0.73557  0.17729  0.37705  1.0000
  H   H9        1.0  0.94251  0.38071  0.24550  1.0000
  H   H10       1.0  0.05748  0.61935  0.74537  1.0000
  H   H11       1.0  0.11852  0.44189  0.49506  1.0000
  H   H12       1.0  0.88130  0.55794  0.99513  1.0000
  H   H13       1.0  0.55795  0.88131  0.00487  1.0000
  H   H14       1.0  0.44189  0.11849  0.50493  1.0000
  H   H15       1.0  0.38071  0.94250  0.75450  1.0000
  H   H16       1.0  0.61934  0.05749  0.25464  1.0000
  C   C1        1.0  0.45670  0.37414  0.16577  1.0000
  C   C2        1.0  0.54338  0.62585  0.66577  1.0000
  C   C3        1.0  0.12556  0.95600  0.41583  1.0000
  C   C4        1.0  0.87447  0.04397  0.91583  1.0000
  C   C5        1.0  0.04397  0.87447  0.08417  1.0000
  C   C6        1.0  0.95598  0.12556  0.58417  1.0000
  C   C7        1.0  0.37414  0.45671  0.83423  1.0000
  C   C8        1.0  0.62585  0.54338  0.33423  1.0000
  C   C9        1.0  0.81739  0.30279  0.21204  1.0000
  C   C10       1.0  0.18257  0.69730  0.71190  1.0000
  C   C11       1.0  0.19663  0.31666  0.46185  1.0000
  C   C12       1.0  0.80325  0.68326  0.96189  1.0000
  C   C13       1.0  0.68327  0.80324  0.03812  1.0000
  C   C14       1.0  0.31666  0.19663  0.53814  1.0000
  C   C15       1.0  0.30279  0.81739  0.78796  1.0000
  C   C16       1.0  0.69730  0.18257  0.28810  1.0000
  C   C17       1.0  0.61756  0.38242  0.25008  1.0000
  C   C18       1.0  0.38242  0.61756  0.74992  1.0000
  C   C19       1.0  0.11691  0.11691  0.49999  1.0000
  C   C20       1.0  0.88297  0.88295  1.00000  1.0000
  O   O1        1.0  0.47358  0.25319  0.08504  1.0000
  O   O2        1.0  0.52650  0.74694  0.58501  1.0000
  O   O3        1.0  0.24693  0.97287  0.33528  1.0000
  O   O4        1.0  0.75349  0.02715  0.83498  1.0000
  O   O5        1.0  0.02715  0.75349  0.16501  1.0000
  O   O6        1.0  0.97286  0.24692  0.66472  1.0000
  O   O7        1.0  0.25317  0.47359  0.91496  1.0000
  O   O8        1.0  0.74696  0.52650  0.41499  1.0000
  O   O9        1.0  0.30095  0.47664  0.17554  1.0000
  O   O10       1.0  0.69919  0.52345  0.67574  1.0000
  O   O11       1.0  0.02309  0.80025  0.42559  1.0000
  O   O12       1.0  0.97673  0.19976  0.92577  1.0000
  O   O13       1.0  0.19975  0.97673  0.07424  1.0000
  O   O14       1.0  0.80023  0.02309  0.57440  1.0000
  O   O15       1.0  0.47664  0.30096  0.82448  1.0000
  O   O16       1.0  0.52345  0.69919  0.32426  1.0000
