data_image0
_chemical_formula_structural       Cu2P2H16C6N2O8
_chemical_formula_sum              "Cu2 P2 H16 C6 N2 O8"
_cell_length_a       5.98468
_cell_length_b       5.9832
_cell_length_c       9.15595
_cell_angle_alpha    91.8033
_cell_angle_beta     97.9902
_cell_angle_gamma    110.713

_space_group_name_H-M_alt    "P 1"
_space_group_IT_number       1

loop_
  _space_group_symop_operation_xyz
  'x, y, z'

loop_
  _atom_site_type_symbol
  _atom_site_label
  _atom_site_symmetry_multiplicity
  _atom_site_fract_x
  _atom_site_fract_y
  _atom_site_fract_z
  _atom_site_occupancy
  Cu  Cu1       1.0  0.15953  0.10456  0.37685  1.0000
  Cu  Cu2       1.0  0.84047  0.89544  0.62315  1.0000
  P   P1        1.0  0.61336  0.00645  0.29214  1.0000
  P   P2        1.0  0.38664  0.99357  0.70786  1.0000
  H   H1        1.0  0.29629  0.59088  0.33877  1.0000
  H   H2        1.0  0.70371  0.40913  0.66123  1.0000
  H   H3        1.0  0.28170  0.57446  0.50690  1.0000
  H   H4        1.0  0.71830  0.42555  0.49310  1.0000
  H   H5        1.0  0.89113  0.35673  0.20887  1.0000
  H   H6        1.0  0.10886  0.64326  0.79113  1.0000
  H   H7        1.0  0.70362  0.15996  0.05290  1.0000
  H   H8        1.0  0.29638  0.84004  0.94710  1.0000
  H   H9        1.0  0.78578  0.71391  0.16263  1.0000
  H   H10       1.0  0.21423  0.28609  0.83737  1.0000
  H   H11       1.0  0.08234  0.76612  0.12243  1.0000
  H   H12       1.0  0.91767  0.23388  0.87757  1.0000
  H   H13       1.0  0.34258  0.17088  0.08312  1.0000
  H   H14       1.0  0.65743  0.82911  0.91688  1.0000
  H   H15       1.0  0.24144  0.41174  0.10166  1.0000
  H   H16       1.0  0.75857  0.58826  0.89834  1.0000
  C   C1        1.0  0.80861  0.16892  0.16323  1.0000
  C   C2        1.0  0.19139  0.83108  0.83677  1.0000
  C   C3        1.0  0.92455  0.82020  0.10029  1.0000
  C   C4        1.0  0.07546  0.17980  0.89972  1.0000
  C   C5        1.0  0.18256  0.22100  0.06406  1.0000
  C   C6        1.0  0.81745  0.77900  0.93594  1.0000
  N   N1        1.0  0.00899  0.07762  0.15678  1.0000
  N   N2        1.0  0.99101  0.92237  0.84323  1.0000
  O   O1        1.0  0.80934  0.97028  0.41227  1.0000
  O   O2        1.0  0.19065  0.02971  0.58774  1.0000
  O   O3        1.0  0.43053  0.77282  0.21412  1.0000
  O   O4        1.0  0.56945  0.22717  0.78588  1.0000
  O   O5        1.0  0.50108  0.17853  0.35320  1.0000
  O   O6        1.0  0.49892  0.82148  0.64681  1.0000
  O   O7        1.0  0.20163  0.48829  0.40935  1.0000
  O   O8        1.0  0.79837  0.51171  0.59063  1.0000
