data_image0
_chemical_formula_structural       Zn2H24C36N12O8
_chemical_formula_sum              "Zn2 H24 C36 N12 O8"
_cell_length_a       8.71326
_cell_length_b       10.24
_cell_length_c       12.3145
_cell_angle_alpha    74.8806
_cell_angle_beta     82.0066
_cell_angle_gamma    79.6062

_space_group_name_H-M_alt    "P 1"
_space_group_IT_number       1

loop_
  _space_group_symop_operation_xyz
  'x, y, z'

loop_
  _atom_site_type_symbol
  _atom_site_label
  _atom_site_symmetry_multiplicity
  _atom_site_fract_x
  _atom_site_fract_y
  _atom_site_fract_z
  _atom_site_occupancy
  Zn  Zn1       1.0  0.85527  0.38995  0.96482  1.0000
  Zn  Zn2       1.0  0.14473  0.61005  0.03518  1.0000
  H   H1        1.0  0.86070  0.18480  0.19236  1.0000
  H   H2        1.0  0.13931  0.81520  0.80764  1.0000
  H   H3        1.0  0.35352  0.62347  0.24795  1.0000
  H   H4        1.0  0.64648  0.37653  0.75205  1.0000
  H   H5        1.0  0.55289  0.53611  0.11583  1.0000
  H   H6        1.0  0.44711  0.46389  0.88417  1.0000
  H   H7        1.0  0.69062  0.17947  0.38458  1.0000
  H   H8        1.0  0.30938  0.82053  0.61542  1.0000
  H   H9        1.0  0.31447  0.25118  0.67925  1.0000
  H   H10       1.0  0.68554  0.74882  0.32075  1.0000
  H   H11       1.0  0.13984  0.22571  0.86255  1.0000
  H   H12       1.0  0.86017  0.77429  0.13745  1.0000
  H   H13       1.0  0.87084  0.60057  0.74661  1.0000
  H   H14       1.0  0.12916  0.39942  0.25339  1.0000
  H   H15       1.0  0.03387  0.64210  0.56050  1.0000
  H   H16       1.0  0.96614  0.35790  0.43950  1.0000
  H   H17       1.0  0.52593  0.76436  0.84355  1.0000
  H   H18       1.0  0.47408  0.23564  0.15645  1.0000
  H   H19       1.0  0.36955  0.99888  0.79875  1.0000
  H   H20       1.0  0.63045  0.00112  0.20125  1.0000
  H   H21       1.0  0.47208  0.19425  0.83632  1.0000
  H   H22       1.0  0.52793  0.80575  0.16367  1.0000
  H   H23       1.0  0.88585  0.92428  0.95276  1.0000
  H   H24       1.0  0.11415  0.07572  0.04724  1.0000
  C   C1        1.0  0.60746  0.44170  0.16884  1.0000
  C   C2        1.0  0.39254  0.55830  0.83115  1.0000
  C   C3        1.0  0.67585  0.25867  0.30726  1.0000
  C   C4        1.0  0.32415  0.74134  0.69274  1.0000
  C   C5        1.0  0.56984  0.38003  0.28440  1.0000
  C   C6        1.0  0.43016  0.61997  0.71560  1.0000
  C   C7        1.0  0.44768  0.43328  0.36049  1.0000
  C   C8        1.0  0.55232  0.56672  0.63951  1.0000
  C   C9        1.0  0.28273  0.46877  0.49706  1.0000
  C   C10       1.0  0.71727  0.53123  0.50294  1.0000
  C   C11       1.0  0.18845  0.44968  0.60573  1.0000
  C   C12       1.0  0.81155  0.55032  0.39427  1.0000
  C   C13       1.0  0.21750  0.33082  0.69228  1.0000
  C   C14       1.0  0.78250  0.66919  0.30772  1.0000
  C   C15       1.0  0.12159  0.31670  0.79341  1.0000
  C   C16       1.0  0.87841  0.68330  0.20659  1.0000
  C   C17       1.0  0.97182  0.52689  0.72892  1.0000
  C   C18       1.0  0.02818  0.47311  0.27108  1.0000
  C   C19       1.0  0.06196  0.54933  0.62598  1.0000
  C   C20       1.0  0.93804  0.45067  0.37402  1.0000
  C   C21       1.0  0.80863  0.68939  0.92521  1.0000
  C   C22       1.0  0.19137  0.31061  0.07479  1.0000
  C   C23       1.0  0.71501  0.83011  0.89944  1.0000
  C   C24       1.0  0.28499  0.16988  0.10056  1.0000
  C   C25       1.0  0.56927  0.85179  0.85649  1.0000
  C   C26       1.0  0.43073  0.14821  0.14351  1.0000
  C   C27       1.0  0.48314  0.98279  0.83170  1.0000
  C   C28       1.0  0.51686  0.01721  0.16829  1.0000
  C   C29       1.0  0.54017  0.09206  0.85206  1.0000
  C   C30       1.0  0.45984  0.90794  0.14794  1.0000
  C   C31       1.0  0.68462  0.07092  0.89672  1.0000
  C   C32       1.0  0.31538  0.92909  0.10328  1.0000
  C   C33       1.0  0.77287  0.94005  0.91892  1.0000
  C   C34       1.0  0.22713  0.05995  0.08108  1.0000
  C   C35       1.0  0.74303  0.18629  0.92345  1.0000
  C   C36       1.0  0.25697  0.81370  0.07655  1.0000
  N   N1        1.0  0.72682  0.36358  0.12528  1.0000
  N   N2        1.0  0.27318  0.63642  0.87472  1.0000
  N   N3        1.0  0.76641  0.25339  0.20966  1.0000
  N   N4        1.0  0.23359  0.74661  0.79034  1.0000
  N   N5        1.0  0.40215  0.37375  0.46757  1.0000
  N   N6        1.0  0.59785  0.62625  0.53243  1.0000
  N   N7        1.0  0.25301  0.58268  0.41446  1.0000
  N   N8        1.0  0.74699  0.41732  0.58554  1.0000
  N   N9        1.0  0.35900  0.55853  0.32930  1.0000
  N   N10       1.0  0.64100  0.44147  0.67070  1.0000
  N   N11       1.0  0.00047  0.41306  0.81226  1.0000
  N   N12       1.0  0.99953  0.58694  0.18774  1.0000
  O   O1        1.0  0.73769  0.58851  0.93088  1.0000
  O   O2        1.0  0.26231  0.41149  0.06912  1.0000
  O   O3        1.0  0.95294  0.67969  0.93657  1.0000
  O   O4        1.0  0.04706  0.32031  0.06343  1.0000
  O   O5        1.0  0.85815  0.16216  0.98211  1.0000
  O   O6        1.0  0.14185  0.83784  0.01789  1.0000
  O   O7        1.0  0.67454  0.30954  0.88659  1.0000
  O   O8        1.0  0.32546  0.69046  0.11341  1.0000
