data_image0
_chemical_formula_structural       Na2H56Au2C48N16Cl8O16
_chemical_formula_sum              "Na2 H56 Au2 C48 N16 Cl8 O16"
_cell_length_a       7.85973
_cell_length_b       14.1614
_cell_length_c       14.6537
_cell_angle_alpha    90.5234
_cell_angle_beta     90.0297
_cell_angle_gamma    106.063

_space_group_name_H-M_alt    "P 1"
_space_group_IT_number       1

loop_
  _space_group_symop_operation_xyz
  'x, y, z'

loop_
  _atom_site_type_symbol
  _atom_site_label
  _atom_site_symmetry_multiplicity
  _atom_site_fract_x
  _atom_site_fract_y
  _atom_site_fract_z
  _atom_site_occupancy
  Na  Na1       1.0  0.17346  0.99994  0.25002  1.0000
  Na  Na2       1.0  0.82654  0.00006  0.74998  1.0000
  H   H1        1.0  0.07291  0.32167  0.68111  1.0000
  H   H2        1.0  0.24978  0.32205  0.18093  1.0000
  H   H3        1.0  0.92709  0.67833  0.31889  1.0000
  H   H4        1.0  0.75022  0.67795  0.81907  1.0000
  H   H5        1.0  0.11395  0.21669  0.73342  1.0000
  H   H6        1.0  0.10430  0.21708  0.23332  1.0000
  H   H7        1.0  0.88605  0.78331  0.26658  1.0000
  H   H8        1.0  0.89570  0.78292  0.76668  1.0000
  H   H9        1.0  0.29520  0.31092  0.68761  1.0000
  H   H10       1.0  0.01673  0.31120  0.18743  1.0000
  H   H11       1.0  0.70480  0.68907  0.31239  1.0000
  H   H12       1.0  0.98327  0.68880  0.81257  1.0000
  H   H13       1.0  0.61031  0.92224  0.06407  1.0000
  H   H14       1.0  0.31067  0.92198  0.56426  1.0000
  H   H15       1.0  0.38969  0.07776  0.93592  1.0000
  H   H16       1.0  0.68933  0.07801  0.43574  1.0000
  H   H17       1.0  0.81330  0.01349  0.08379  1.0000
  H   H18       1.0  0.19890  0.01331  0.58401  1.0000
  H   H19       1.0  0.18669  0.98652  0.91621  1.0000
  H   H20       1.0  0.80110  0.98669  0.41599  1.0000
  H   H21       1.0  0.71679  0.99592  0.97079  1.0000
  H   H22       1.0  0.27779  0.99573  0.47104  1.0000
  H   H23       1.0  0.28320  0.00408  0.02920  1.0000
  H   H24       1.0  0.72220  0.00426  0.52897  1.0000
  H   H25       1.0  0.08239  0.69930  0.95305  1.0000
  H   H26       1.0  0.61589  0.69970  0.45272  1.0000
  H   H27       1.0  0.91762  0.30070  0.04695  1.0000
  H   H28       1.0  0.38410  0.30030  0.54728  1.0000
  H   H29       1.0  0.75059  0.50809  0.27890  1.0000
  H   H30       1.0  0.75776  0.50854  0.77882  1.0000
  H   H31       1.0  0.24941  0.49191  0.72110  1.0000
  H   H32       1.0  0.24223  0.49147  0.22118  1.0000
  H   H33       1.0  0.60501  0.48170  0.18304  1.0000
  H   H34       1.0  0.87673  0.48207  0.68294  1.0000
  H   H35       1.0  0.39498  0.51829  0.81696  1.0000
  H   H36       1.0  0.12327  0.51793  0.31706  1.0000
  H   H37       1.0  0.52702  0.51185  0.29177  1.0000
  H   H38       1.0  0.98507  0.51218  0.79167  1.0000
  H   H39       1.0  0.47298  0.48815  0.70823  1.0000
  H   H40       1.0  0.01493  0.48782  0.20833  1.0000
  H   H41       1.0  0.77258  0.12598  0.24978  1.0000
  H   H42       1.0  0.35485  0.12643  0.74964  1.0000
  H   H43       1.0  0.22741  0.87402  0.75022  1.0000
  H   H44       1.0  0.64515  0.87357  0.25037  1.0000
  H   H45       1.0  0.56134  0.07412  0.19745  1.0000
  H   H46       1.0  0.51402  0.07445  0.69724  1.0000
  H   H47       1.0  0.43865  0.92587  0.80255  1.0000
  H   H48       1.0  0.48598  0.92555  0.30276  1.0000
  H   H49       1.0  0.71686  0.17623  0.14546  1.0000
  H   H50       1.0  0.46034  0.17658  0.64526  1.0000
  H   H51       1.0  0.28313  0.82377  0.85455  1.0000
  H   H52       1.0  0.53965  0.82342  0.35474  1.0000
  H   H53       1.0  0.37805  0.39080  0.37808  1.0000
  H   H54       1.0  0.01323  0.39125  0.87806  1.0000
  H   H55       1.0  0.62194  0.60920  0.62192  1.0000
  H   H56       1.0  0.98677  0.60875  0.12194  1.0000
  Au  Au1       1.0  0.50000  0.50000  0.00000  1.0000
  Au  Au2       1.0  0.00001  0.50000  0.50000  1.0000
  C   C1        1.0  0.15574  0.27076  0.67919  1.0000
  C   C2        1.0  0.11623  0.27109  0.17905  1.0000
  C   C3        1.0  0.84426  0.72924  0.32081  1.0000
  C   C4        1.0  0.88377  0.72891  0.82095  1.0000
  C   C5        1.0  0.97416  0.15100  0.57404  1.0000
  C   C6        1.0  0.17788  0.15100  0.07412  1.0000
  C   C7        1.0  0.02584  0.84900  0.42596  1.0000
  C   C8        1.0  0.82212  0.84900  0.92588  1.0000
  C   C9        1.0  0.73860  0.96012  0.03385  1.0000
  C   C10       1.0  0.22022  0.95994  0.53405  1.0000
  C   C11       1.0  0.26139  0.03988  0.96615  1.0000
  C   C12       1.0  0.77978  0.04005  0.46596  1.0000
  C   C13       1.0  0.07713  0.13461  0.41659  1.0000
  C   C14       1.0  0.05881  0.13469  0.91653  1.0000
  C   C15       1.0  0.92286  0.86538  0.58342  1.0000
  C   C16       1.0  0.94121  0.86532  0.08346  1.0000
  C   C17       1.0  0.24303  0.20546  0.44016  1.0000
  C   C18       1.0  0.96395  0.20576  0.93995  1.0000
  C   C19       1.0  0.75695  0.79454  0.55984  1.0000
  C   C20       1.0  0.03607  0.79424  0.06005  1.0000
  C   C21       1.0  0.26304  0.24597  0.52577  1.0000
  C   C22       1.0  0.98436  0.24630  0.02555  1.0000
  C   C23       1.0  0.73695  0.75402  0.47423  1.0000
  C   C24       1.0  0.01565  0.75370  0.97444  1.0000
  C   C25       1.0  0.61366  0.47444  0.25716  1.0000
  C   C26       1.0  0.86102  0.47484  0.75707  1.0000
  C   C27       1.0  0.38634  0.52555  0.74284  1.0000
  C   C28       1.0  0.13898  0.52517  0.24293  1.0000
  C   C29       1.0  0.64427  0.30957  0.23603  1.0000
  C   C30       1.0  0.66607  0.30995  0.73581  1.0000
  C   C31       1.0  0.35572  0.69042  0.76398  1.0000
  C   C32       1.0  0.33393  0.69005  0.26418  1.0000
  C   C33       1.0  0.66561  0.14227  0.21009  1.0000
  C   C34       1.0  0.47791  0.14265  0.70989  1.0000
  C   C35       1.0  0.33438  0.85773  0.78991  1.0000
  C   C36       1.0  0.52209  0.85736  0.29011  1.0000
  C   C37       1.0  0.46268  0.17176  0.32657  1.0000
  C   C38       1.0  0.71061  0.17215  0.82629  1.0000
  C   C39       1.0  0.53731  0.82824  0.67343  1.0000
  C   C40       1.0  0.28940  0.82785  0.17370  1.0000
  C   C41       1.0  0.38139  0.23984  0.37074  1.0000
  C   C42       1.0  0.85988  0.24020  0.87048  1.0000
  C   C43       1.0  0.61860  0.76016  0.62926  1.0000
  C   C44       1.0  0.14014  0.75981  0.12951  1.0000
  C   C45       1.0  0.43511  0.33646  0.34672  1.0000
  C   C46       1.0  0.90215  0.33685  0.84659  1.0000
  C   C47       1.0  0.56488  0.66354  0.65328  1.0000
  C   C48       1.0  0.09786  0.66315  0.15341  1.0000
  N   N1        1.0  0.13446  0.22062  0.59047  1.0000
  N   N2        1.0  0.08742  0.22084  0.09037  1.0000
  N   N3        1.0  0.86554  0.77937  0.40954  1.0000
  N   N4        1.0  0.91259  0.77916  0.90962  1.0000
  N   N5        1.0  0.84045  0.89006  0.01304  1.0000
  N   N6        1.0  0.04841  0.89001  0.51313  1.0000
  N   N7        1.0  0.15956  0.10995  0.98696  1.0000
  N   N8        1.0  0.95158  0.10999  0.48688  1.0000
  N   N9        1.0  0.55999  0.37062  0.28165  1.0000
  N   N10       1.0  0.81116  0.37101  0.78153  1.0000
  N   N11       1.0  0.44001  0.62938  0.71835  1.0000
  N   N12       1.0  0.18884  0.62899  0.21847  1.0000
  N   N13       1.0  0.58986  0.21111  0.26004  1.0000
  N   N14       1.0  0.62253  0.21148  0.75975  1.0000
  N   N15       1.0  0.41013  0.78889  0.73997  1.0000
  N   N16       1.0  0.37748  0.78853  0.24025  1.0000
  Cl  Cl1       1.0  0.20251  0.48441  0.01622  1.0000
  Cl  Cl2       1.0  0.28176  0.48406  0.51624  1.0000
  Cl  Cl3       1.0  0.79749  0.51559  0.98379  1.0000
  Cl  Cl4       1.0  0.71826  0.51594  0.48375  1.0000
  Cl  Cl5       1.0  0.43738  0.34482  0.93482  1.0000
  Cl  Cl6       1.0  0.90769  0.34494  0.43457  1.0000
  Cl  Cl7       1.0  0.56263  0.65519  0.06519  1.0000
  Cl  Cl8       1.0  0.09230  0.65507  0.56542  1.0000
  O   O1        1.0  0.86023  0.12721  0.63429  1.0000
  O   O2        1.0  0.26775  0.12707  0.13450  1.0000
  O   O3        1.0  0.13977  0.87278  0.36572  1.0000
  O   O4        1.0  0.73226  0.87293  0.86551  1.0000
  O   O5        1.0  0.94184  0.90429  0.16037  1.0000
  O   O6        1.0  0.96118  0.90423  0.66037  1.0000
  O   O7        1.0  0.05819  0.09572  0.83963  1.0000
  O   O8        1.0  0.03881  0.09575  0.33964  1.0000
  O   O9        1.0  0.75820  0.34259  0.17766  1.0000
  O   O10       1.0  0.58486  0.34297  0.67749  1.0000
  O   O11       1.0  0.24180  0.65741  0.82234  1.0000
  O   O12       1.0  0.41514  0.65704  0.32252  1.0000
  O   O13       1.0  0.42594  0.08219  0.34385  1.0000
  O   O14       1.0  0.65791  0.08259  0.84364  1.0000
  O   O15       1.0  0.57407  0.91781  0.65616  1.0000
  O   O16       1.0  0.34209  0.91741  0.15636  1.0000
