data_image0
_chemical_formula_structural       Ag4H40W10C56N8O32
_chemical_formula_sum              "Ag4 H40 W10 C56 N8 O32"
_cell_length_a       11.0808
_cell_length_b       13.3234
_cell_length_c       13.9777
_cell_angle_alpha    105.066
_cell_angle_beta     113.395
_cell_angle_gamma    94.331

_space_group_name_H-M_alt    "P 1"
_space_group_IT_number       1

loop_
  _space_group_symop_operation_xyz
  'x, y, z'

loop_
  _atom_site_type_symbol
  _atom_site_label
  _atom_site_symmetry_multiplicity
  _atom_site_fract_x
  _atom_site_fract_y
  _atom_site_fract_z
  _atom_site_occupancy
  Ag  Ag1       1.0  0.06037  0.51858  0.21718  1.0000
  Ag  Ag2       1.0  0.93963  0.48142  0.78283  1.0000
  Ag  Ag3       1.0  0.53500  0.11415  0.98665  1.0000
  Ag  Ag4       1.0  0.46500  0.88585  0.01335  1.0000
  H   H1        1.0  0.21749  0.61914  0.98367  1.0000
  H   H2        1.0  0.78251  0.38086  0.01633  1.0000
  H   H3        1.0  0.93037  0.63775  0.53946  1.0000
  H   H4        1.0  0.06963  0.36225  0.46054  1.0000
  H   H5        1.0  0.34810  0.65926  0.88488  1.0000
  H   H6        1.0  0.65190  0.34074  0.11512  1.0000
  H   H7        1.0  0.61606  0.47775  0.58598  1.0000
  H   H8        1.0  0.38394  0.52225  0.41402  1.0000
  H   H9        1.0  0.59582  0.66229  0.96308  1.0000
  H   H10       1.0  0.40418  0.33771  0.03692  1.0000
  H   H11       1.0  0.70961  0.62605  0.13882  1.0000
  H   H12       1.0  0.29039  0.37395  0.86118  1.0000
  H   H13       1.0  0.81189  0.62461  0.65508  1.0000
  H   H14       1.0  0.18811  0.37539  0.34492  1.0000
  H   H15       1.0  0.64574  0.36267  0.28016  1.0000
  H   H16       1.0  0.35426  0.63733  0.71984  1.0000
  H   H17       1.0  0.57772  0.58409  0.23793  1.0000
  H   H18       1.0  0.42228  0.41591  0.76207  1.0000
  H   H19       1.0  0.53130  0.34825  0.39586  1.0000
  H   H20       1.0  0.46870  0.65175  0.60414  1.0000
  H   H21       1.0  0.05086  0.07975  0.41017  1.0000
  H   H22       1.0  0.94914  0.92025  0.58983  1.0000
  H   H23       1.0  0.53645  0.22704  0.65642  1.0000
  H   H24       1.0  0.46355  0.77296  0.34358  1.0000
  H   H25       1.0  0.19421  0.16921  0.34559  1.0000
  H   H26       1.0  0.80579  0.83079  0.65441  1.0000
  H   H27       1.0  0.15051  0.06571  0.60041  1.0000
  H   H28       1.0  0.84949  0.93429  0.39959  1.0000
  H   H29       1.0  0.43583  0.24367  0.46788  1.0000
  H   H30       1.0  0.56417  0.75633  0.53212  1.0000
  H   H31       1.0  0.52682  0.07816  0.35407  1.0000
  H   H32       1.0  0.47318  0.92184  0.64593  1.0000
  H   H33       1.0  0.90335  0.22356  0.37779  1.0000
  H   H34       1.0  0.09665  0.77644  0.62221  1.0000
  H   H35       1.0  0.00820  0.25635  0.58217  1.0000
  H   H36       1.0  0.99180  0.74365  0.41783  1.0000
  H   H37       1.0  0.63258  0.10894  0.55661  1.0000
  H   H38       1.0  0.36742  0.89106  0.44339  1.0000
  H   H39       1.0  0.87078  0.19955  0.66956  1.0000
  H   H40       1.0  0.12922  0.80045  0.33044  1.0000
  W   W1        1.0  0.10491  0.06860  0.85193  1.0000
  W   W2        1.0  0.89509  0.93140  0.14807  1.0000
  W   W3        1.0  0.94650  0.20337  0.11312  1.0000
  W   W4        1.0  0.05350  0.79663  0.88688  1.0000
  W   W5        1.0  0.24528  0.17751  0.12192  1.0000
  W   W6        1.0  0.75472  0.82249  0.87808  1.0000
  W   W7        1.0  0.05729  0.30473  0.96242  1.0000
  W   W8        1.0  0.94271  0.69527  0.03758  1.0000
  W   W9        1.0  0.80634  0.09500  0.84273  1.0000
  W   W10       1.0  0.19366  0.90500  0.15726  1.0000
  C   C1        1.0  0.79547  0.50140  0.40266  1.0000
  C   C2        1.0  0.20453  0.49860  0.59734  1.0000
  C   C3        1.0  0.86433  0.51023  0.33770  1.0000
  C   C4        1.0  0.13567  0.48977  0.66230  1.0000
  C   C5        1.0  0.39016  0.59929  0.11620  1.0000
  C   C6        1.0  0.60984  0.40071  0.88380  1.0000
  C   C7        1.0  0.31240  0.57574  0.17019  1.0000
  C   C8        1.0  0.68760  0.42426  0.82981  1.0000
  C   C9        1.0  0.32477  0.62071  0.01664  1.0000
  C   C10       1.0  0.67523  0.37929  0.98336  1.0000
  C   C11       1.0  0.84270  0.57515  0.50875  1.0000
  C   C12       1.0  0.15730  0.42485  0.49125  1.0000
  C   C13       1.0  0.39948  0.64326  0.96227  1.0000
  C   C14       1.0  0.60052  0.35674  0.03773  1.0000
  C   C15       1.0  0.66575  0.48469  0.53389  1.0000
  C   C16       1.0  0.33425  0.51531  0.46611  1.0000
  C   C17       1.0  0.53742  0.64465  0.00584  1.0000
  C   C18       1.0  0.46258  0.35535  0.99416  1.0000
  C   C19       1.0  0.60201  0.62396  0.10515  1.0000
  C   C20       1.0  0.39799  0.37604  0.89485  1.0000
  C   C21       1.0  0.77702  0.56654  0.57374  1.0000
  C   C22       1.0  0.22298  0.43346  0.42626  1.0000
  C   C23       1.0  0.68241  0.41968  0.36207  1.0000
  C   C24       1.0  0.31759  0.58032  0.63793  1.0000
  C   C25       1.0  0.52910  0.60087  0.16070  1.0000
  C   C26       1.0  0.47090  0.39913  0.83930  1.0000
  C   C27       1.0  0.61838  0.41196  0.42843  1.0000
  C   C28       1.0  0.38162  0.58804  0.57156  1.0000
  C   C29       1.0  0.15631  0.11375  0.46486  1.0000
  C   C30       1.0  0.84369  0.88625  0.53514  1.0000
  C   C31       1.0  0.34798  0.14653  0.63848  1.0000
  C   C32       1.0  0.65202  0.85347  0.36152  1.0000
  C   C33       1.0  0.43003  0.19726  0.60251  1.0000
  C   C34       1.0  0.56997  0.80275  0.39749  1.0000
  C   C35       1.0  0.23713  0.16371  0.42846  1.0000
  C   C36       1.0  0.76288  0.83630  0.57154  1.0000
  C   C37       1.0  0.21050  0.10507  0.56998  1.0000
  C   C38       1.0  0.78950  0.89493  0.43002  1.0000
  C   C39       1.0  0.40510  0.13373  0.74379  1.0000
  C   C40       1.0  0.59490  0.86627  0.25621  1.0000
  C   C41       1.0  0.37326  0.20575  0.49733  1.0000
  C   C42       1.0  0.62674  0.79425  0.50268  1.0000
  C   C43       1.0  0.70994  0.15104  0.35602  1.0000
  C   C44       1.0  0.29006  0.84896  0.64398  1.0000
  C   C45       1.0  0.65462  0.13300  0.24140  1.0000
  C   C46       1.0  0.34538  0.86700  0.75860  1.0000
  C   C47       1.0  0.63134  0.11839  0.40477  1.0000
  C   C48       1.0  0.36866  0.88161  0.59523  1.0000
  C   C49       1.0  0.84600  0.20095  0.41935  1.0000
  C   C50       1.0  0.15400  0.79905  0.58065  1.0000
  C   C51       1.0  0.90275  0.21869  0.53211  1.0000
  C   C52       1.0  0.09725  0.78131  0.46789  1.0000
  C   C53       1.0  0.69070  0.13608  0.51768  1.0000
  C   C54       1.0  0.30930  0.86392  0.48232  1.0000
  C   C55       1.0  0.82547  0.18659  0.58134  1.0000
  C   C56       1.0  0.17453  0.81341  0.41866  1.0000
  N   N1        1.0  0.92372  0.51958  0.28689  1.0000
  N   N2        1.0  0.07629  0.48042  0.71311  1.0000
  N   N3        1.0  0.24531  0.55718  0.21250  1.0000
  N   N4        1.0  0.75469  0.44282  0.78750  1.0000
  N   N5        1.0  0.45134  0.12111  0.82928  1.0000
  N   N6        1.0  0.54866  0.87889  0.17072  1.0000
  N   N7        1.0  0.61266  0.11932  0.14741  1.0000
  N   N8        1.0  0.38734  0.88068  0.85259  1.0000
  O   O1        1.0  0.65107  0.07862  0.73452  1.0000
  O   O2        1.0  0.34893  0.92138  0.26548  1.0000
  O   O3        1.0  0.98913  0.32984  0.07287  1.0000
  O   O4        1.0  0.01087  0.67016  0.92713  1.0000
  O   O5        1.0  0.91335  0.04698  0.76711  1.0000
  O   O6        1.0  0.08665  0.95302  0.23289  1.0000
  O   O7        1.0  0.08083  0.42842  0.94412  1.0000
  O   O8        1.0  0.91917  0.57158  0.05588  1.0000
  O   O9        1.0  0.02652  0.13970  0.98392  1.0000
  O   O10       1.0  0.97348  0.86030  0.01608  1.0000
  O   O11       1.0  0.78502  0.15799  0.97612  1.0000
  O   O12       1.0  0.21498  0.84201  0.02388  1.0000
  O   O13       1.0  0.40843  0.22447  0.22357  1.0000
  O   O14       1.0  0.59157  0.77553  0.77643  1.0000
  O   O15       1.0  0.26647  0.11283  0.98929  1.0000
  O   O16       1.0  0.73353  0.88717  0.01071  1.0000
  O   O17       1.0  0.11391  0.21704  0.86014  1.0000
  O   O18       1.0  0.88609  0.78296  0.13986  1.0000
  O   O19       1.0  0.13880  0.22430  0.20007  1.0000
  O   O20       1.0  0.86120  0.77570  0.79993  1.0000
  O   O21       1.0  0.07548  0.93423  0.87460  1.0000
  O   O22       1.0  0.92452  0.06577  0.12540  1.0000
  O   O23       1.0  0.22739  0.30544  0.07714  1.0000
  O   O24       1.0  0.77261  0.69456  0.92286  1.0000
  O   O25       1.0  0.78688  0.96033  0.86549  1.0000
  O   O26       1.0  0.21312  0.03967  0.13451  1.0000
  O   O27       1.0  0.89406  0.27037  0.20937  1.0000
  O   O28       1.0  0.10594  0.72963  0.79063  1.0000
  O   O29       1.0  0.15828  0.02835  0.74973  1.0000
  O   O30       1.0  0.84172  0.97165  0.25027  1.0000
  O   O31       1.0  0.87556  0.23975  0.85506  1.0000
  O   O32       1.0  0.12444  0.76025  0.14494  1.0000
