data_image0
_chemical_formula_structural       Gd2H26C44O18
_chemical_formula_sum              "Gd2 H26 C44 O18"
_cell_length_a       6.09924
_cell_length_b       13.3579
_cell_length_c       14.3737
_cell_angle_alpha    60.666
_cell_angle_beta     79.1648
_cell_angle_gamma    77.9767

_space_group_name_H-M_alt    "P 1"
_space_group_IT_number       1

loop_
  _space_group_symop_operation_xyz
  'x, y, z'

loop_
  _atom_site_type_symbol
  _atom_site_label
  _atom_site_symmetry_multiplicity
  _atom_site_fract_x
  _atom_site_fract_y
  _atom_site_fract_z
  _atom_site_occupancy
  Gd  Gd1       1.0  0.58910  0.45499  0.82379  1.0000
  Gd  Gd2       1.0  0.41089  0.54500  0.17622  1.0000
  H   H1        1.0  0.87856  0.56291  0.60167  1.0000
  H   H2        1.0  0.12142  0.43710  0.39834  1.0000
  H   H3        1.0  0.04404  0.46813  0.68663  1.0000
  H   H4        1.0  0.95595  0.53188  0.31337  1.0000
  H   H5        1.0  0.88622  0.41646  0.20577  1.0000
  H   H6        1.0  0.11377  0.58354  0.79423  1.0000
  H   H7        1.0  0.63797  0.84108  0.73373  1.0000
  H   H8        1.0  0.36202  0.15891  0.26628  1.0000
  H   H9        1.0  0.09097  0.80594  0.00059  1.0000
  H   H10       1.0  0.90903  0.19406  0.99941  1.0000
  H   H11       1.0  0.19254  0.01698  0.60273  1.0000
  H   H12       1.0  0.80745  0.98301  0.39727  1.0000
  H   H13       1.0  0.14285  0.18350  0.42027  1.0000
  H   H14       1.0  0.85716  0.81649  0.57973  1.0000
  H   H15       1.0  0.42618  0.22173  0.50372  1.0000
  H   H16       1.0  0.57383  0.77827  0.49628  1.0000
  H   H17       1.0  0.47412  0.05344  0.68435  1.0000
  H   H18       1.0  0.52587  0.94656  0.31564  1.0000
  H   H19       1.0  0.86111  0.15254  0.72592  1.0000
  H   H20       1.0  0.13891  0.84747  0.27407  1.0000
  H   H21       1.0  0.05214  0.30883  0.69898  1.0000
  H   H22       1.0  0.94789  0.69117  0.30102  1.0000
  H   H23       1.0  0.54143  0.06123  0.90944  1.0000
  H   H24       1.0  0.45855  0.93877  0.09057  1.0000
  H   H25       1.0  0.36035  0.90110  0.93109  1.0000
  H   H26       1.0  0.63965  0.09891  0.06891  1.0000
  C   C1        1.0  0.58743  0.64951  0.91303  1.0000
  C   C2        1.0  0.41256  0.35049  0.08697  1.0000
  C   C3        1.0  0.91504  0.61682  0.07040  1.0000
  C   C4        1.0  0.08497  0.38318  0.92960  1.0000
  C   C5        1.0  0.87702  0.72364  0.96612  1.0000
  C   C6        1.0  0.12300  0.27636  0.03388  1.0000
  C   C7        1.0  0.74021  0.73492  0.89196  1.0000
  C   C8        1.0  0.25978  0.26508  0.10804  1.0000
  C   C9        1.0  0.73694  0.83456  0.79272  1.0000
  C   C10       1.0  0.26304  0.16545  0.20728  1.0000
  C   C11       1.0  0.85697  0.92550  0.76538  1.0000
  C   C12       1.0  0.14303  0.07449  0.23462  1.0000
  C   C13       1.0  0.98457  0.91798  0.84241  1.0000
  C   C14       1.0  0.01544  0.08202  0.15759  1.0000
  C   C15       1.0  0.99344  0.81539  0.94005  1.0000
  C   C16       1.0  0.00657  0.18461  0.05995  1.0000
  C   C17       1.0  0.83676  0.02474  0.65621  1.0000
  C   C18       1.0  0.16323  0.97526  0.34379  1.0000
  C   C19       1.0  0.02466  0.06225  0.58098  1.0000
  C   C20       1.0  0.97534  0.93775  0.41902  1.0000
  C   C21       1.0  0.99760  0.15527  0.47914  1.0000
  C   C22       1.0  0.00240  0.84473  0.52085  1.0000
  C   C23       1.0  0.78118  0.21377  0.45129  1.0000
  C   C24       1.0  0.21883  0.78624  0.54871  1.0000
  C   C25       1.0  0.59320  0.17556  0.52560  1.0000
  C   C26       1.0  0.40680  0.82445  0.47440  1.0000
  C   C27       1.0  0.62040  0.08123  0.62618  1.0000
  C   C28       1.0  0.37960  0.91878  0.37381  1.0000
  C   C29       1.0  0.74356  0.31621  0.34601  1.0000
  C   C30       1.0  0.25643  0.68379  0.65399  1.0000
  C   C31       1.0  0.09856  0.01354  0.82736  1.0000
  C   C32       1.0  0.90145  0.98646  0.17264  1.0000
  C   C33       1.0  0.01529  0.13043  0.76335  1.0000
  C   C34       1.0  0.98472  0.86957  0.23665  1.0000
  C   C35       1.0  0.12221  0.21980  0.74915  1.0000
  C   C36       1.0  0.87781  0.78020  0.25085  1.0000
  C   C37       1.0  0.31245  0.19606  0.80176  1.0000
  C   C38       1.0  0.68756  0.80394  0.19824  1.0000
  C   C39       1.0  0.39388  0.08003  0.86821  1.0000
  C   C40       1.0  0.60613  0.91998  0.13179  1.0000
  C   C41       1.0  0.29029  0.99029  0.88023  1.0000
  C   C42       1.0  0.70971  0.00971  0.11977  1.0000
  C   C43       1.0  0.41960  0.29118  0.79341  1.0000
  C   C44       1.0  0.58040  0.70882  0.20659  1.0000
  O   O1        1.0  0.61132  0.61130  0.84596  1.0000
  O   O2        1.0  0.38869  0.38870  0.15404  1.0000
  O   O3        1.0  0.88625  0.49061  0.66825  1.0000
  O   O4        1.0  0.11374  0.50938  0.33175  1.0000
  O   O5        1.0  0.43461  0.62833  0.99031  1.0000
  O   O6        1.0  0.56539  0.37167  0.00969  1.0000
  O   O7        1.0  0.80320  0.53136  0.10318  1.0000
  O   O8        1.0  0.19679  0.46864  0.89682  1.0000
  O   O9        1.0  0.05751  0.61402  0.12507  1.0000
  O   O10       1.0  0.94249  0.38597  0.87493  1.0000
  O   O11       1.0  0.55234  0.37367  0.32762  1.0000
  O   O12       1.0  0.44764  0.62634  0.67237  1.0000
  O   O13       1.0  0.92310  0.34163  0.27601  1.0000
  O   O14       1.0  0.07687  0.65836  0.72398  1.0000
  O   O15       1.0  0.35929  0.39777  0.72771  1.0000
  O   O16       1.0  0.64072  0.60222  0.27230  1.0000
  O   O17       1.0  0.56869  0.26452  0.85717  1.0000
  O   O18       1.0  0.43132  0.73547  0.14283  1.0000
