data_image0
_chemical_formula_structural       Ag4H32C32S2N6O12
_chemical_formula_sum              "Ag4 H32 C32 S2 N6 O12"
_cell_length_a       8.89128
_cell_length_b       10.4976
_cell_length_c       11.8184
_cell_angle_alpha    85.8635
_cell_angle_beta     69.1625
_cell_angle_gamma    65.0364

_space_group_name_H-M_alt    "P 1"
_space_group_IT_number       1

loop_
  _space_group_symop_operation_xyz
  'x, y, z'

loop_
  _atom_site_type_symbol
  _atom_site_label
  _atom_site_symmetry_multiplicity
  _atom_site_fract_x
  _atom_site_fract_y
  _atom_site_fract_z
  _atom_site_occupancy
  Ag  Ag1       1.0  0.32583  0.72246  0.77341  1.0000
  Ag  Ag2       1.0  0.67417  0.27755  0.22659  1.0000
  Ag  Ag3       1.0  0.40197  0.04235  0.62635  1.0000
  Ag  Ag4       1.0  0.59802  0.95765  0.37365  1.0000
  H   H1        1.0  0.87448  0.61401  0.49216  1.0000
  H   H2        1.0  0.12552  0.38599  0.50784  1.0000
  H   H3        1.0  0.13544  0.58794  0.30767  1.0000
  H   H4        1.0  0.86456  0.41206  0.69232  1.0000
  H   H5        1.0  0.97234  0.89588  0.67294  1.0000
  H   H6        1.0  0.02766  0.10412  0.32706  1.0000
  H   H7        1.0  0.95337  0.74339  0.88719  1.0000
  H   H8        1.0  0.04663  0.25660  0.11281  1.0000
  H   H9        1.0  0.54169  0.89909  0.14557  1.0000
  H   H10       1.0  0.45831  0.10090  0.85443  1.0000
  H   H11       1.0  0.65430  0.71178  0.13511  1.0000
  H   H12       1.0  0.34571  0.28821  0.86489  1.0000
  H   H13       1.0  0.65186  0.79881  0.00063  1.0000
  H   H14       1.0  0.34814  0.20119  0.99938  1.0000
  H   H15       1.0  0.99804  0.91648  0.23791  1.0000
  H   H16       1.0  0.00196  0.08353  0.76209  1.0000
  H   H17       1.0  0.35351  0.88368  0.93930  1.0000
  H   H18       1.0  0.64649  0.11633  0.06069  1.0000
  H   H19       1.0  0.40104  0.74804  0.03687  1.0000
  H   H20       1.0  0.59896  0.25196  0.96312  1.0000
  H   H21       1.0  0.28106  0.92648  0.09907  1.0000
  H   H22       1.0  0.71895  0.07352  0.90093  1.0000
  H   H23       1.0  0.60939  0.66870  0.52312  1.0000
  H   H24       1.0  0.39060  0.33130  0.47688  1.0000
  H   H25       1.0  0.24345  0.49186  0.79107  1.0000
  H   H26       1.0  0.75655  0.50814  0.20893  1.0000
  H   H27       1.0  0.23232  0.36719  0.70205  1.0000
  H   H28       1.0  0.76768  0.63281  0.29795  1.0000
  H   H29       1.0  0.09454  0.54921  0.71067  1.0000
  H   H30       1.0  0.90545  0.45080  0.28933  1.0000
  H   H31       1.0  0.38877  0.77820  0.30320  1.0000
  H   H32       1.0  0.61123  0.22180  0.69681  1.0000
  C   C1        1.0  0.90435  0.75948  0.59365  1.0000
  C   C2        1.0  0.09565  0.24051  0.40635  1.0000
  C   C3        1.0  0.95080  0.67291  0.49025  1.0000
  C   C4        1.0  0.04921  0.32708  0.50975  1.0000
  C   C5        1.0  0.09591  0.65852  0.38673  1.0000
  C   C6        1.0  0.90409  0.34147  0.61327  1.0000
  C   C7        1.0  0.19795  0.73161  0.38468  1.0000
  C   C8        1.0  0.80205  0.26839  0.61532  1.0000
  C   C9        1.0  0.15477  0.81635  0.48982  1.0000
  C   C10       1.0  0.84523  0.18366  0.51019  1.0000
  C   C11       1.0  0.00668  0.82948  0.59290  1.0000
  C   C12       1.0  0.99332  0.17052  0.40710  1.0000
  C   C13       1.0  0.26849  0.88517  0.49435  1.0000
  C   C14       1.0  0.73151  0.11483  0.50565  1.0000
  C   C15       1.0  0.96548  0.78075  0.96578  1.0000
  C   C16       1.0  0.03452  0.21925  0.03422  1.0000
  C   C17       1.0  0.82478  0.81727  0.07789  1.0000
  C   C18       1.0  0.17523  0.18272  0.92211  1.0000
  C   C19       1.0  0.65829  0.80640  0.09050  1.0000
  C   C20       1.0  0.34171  0.19359  0.90950  1.0000
  C   C21       1.0  0.99094  0.87586  0.15854  1.0000
  C   C22       1.0  0.00907  0.12414  0.84145  1.0000
  C   C23       1.0  0.13253  0.84005  0.04657  1.0000
  C   C24       1.0  0.86747  0.15996  0.95342  1.0000
  C   C25       1.0  0.30014  0.85146  0.02982  1.0000
  C   C26       1.0  0.69986  0.14854  0.97017  1.0000
  C   C27       1.0  0.37013  0.48734  0.59986  1.0000
  C   C28       1.0  0.62986  0.51267  0.40014  1.0000
  C   C29       1.0  0.56254  0.59179  0.51131  1.0000
  C   C30       1.0  0.43746  0.40821  0.48869  1.0000
  C   C31       1.0  0.22781  0.47286  0.70662  1.0000
  C   C32       1.0  0.77218  0.52715  0.29338  1.0000
  S   S1        1.0  0.72467  0.77049  0.72916  1.0000
  S   S2        1.0  0.27533  0.22950  0.27084  1.0000
  N   N1        1.0  0.11665  0.79190  0.95015  1.0000
  N   N2        1.0  0.88335  0.20810  0.04985  1.0000
  N   N3        1.0  0.84004  0.86484  0.17457  1.0000
  N   N4        1.0  0.15996  0.13517  0.82542  1.0000
  N   N5        1.0  0.43593  0.57933  0.60902  1.0000
  N   N6        1.0  0.56407  0.42068  0.39099  1.0000
  O   O1        1.0  0.57613  0.79162  0.68764  1.0000
  O   O2        1.0  0.42387  0.20839  0.31237  1.0000
  O   O3        1.0  0.78553  0.63525  0.78157  1.0000
  O   O4        1.0  0.21445  0.36474  0.21843  1.0000
  O   O5        1.0  0.68590  0.89168  0.80637  1.0000
  O   O6        1.0  0.31412  0.10831  0.19363  1.0000
  O   O7        1.0  0.33649  0.71753  0.28223  1.0000
  O   O8        1.0  0.66351  0.28247  0.71776  1.0000
  O   O9        1.0  0.40132  0.87063  0.39539  1.0000
  O   O10       1.0  0.59868  0.12937  0.60461  1.0000
  O   O11       1.0  0.23378  0.94861  0.59372  1.0000
  O   O12       1.0  0.76621  0.05140  0.40628  1.0000
