data_image0
_chemical_formula_structural       Ag4H32C38S2N8O16
_chemical_formula_sum              "Ag4 H32 C38 S2 N8 O16"
_cell_length_a       8.4229
_cell_length_b       10.707
_cell_length_c       12.9861
_cell_angle_alpha    101.516
_cell_angle_beta     95.7331
_cell_angle_gamma    88.4571

_space_group_name_H-M_alt    "P 1"
_space_group_IT_number       1

loop_
  _space_group_symop_operation_xyz
  'x, y, z'

loop_
  _atom_site_type_symbol
  _atom_site_label
  _atom_site_symmetry_multiplicity
  _atom_site_fract_x
  _atom_site_fract_y
  _atom_site_fract_z
  _atom_site_occupancy
  Ag  Ag1       1.0  0.51577  0.60339  0.58551  1.0000
  Ag  Ag2       1.0  0.48423  0.39661  0.41449  1.0000
  Ag  Ag3       1.0  0.58754  0.39008  0.05686  1.0000
  Ag  Ag4       1.0  0.41246  0.60992  0.94315  1.0000
  H   H1        1.0  0.24914  0.80956  0.49305  1.0000
  H   H2        1.0  0.75085  0.19044  0.50695  1.0000
  H   H3        1.0  0.36443  0.68201  0.33661  1.0000
  H   H4        1.0  0.63557  0.31799  0.66339  1.0000
  H   H5        1.0  0.96322  0.42958  0.27898  1.0000
  H   H6        1.0  0.03678  0.57042  0.72102  1.0000
  H   H7        1.0  0.71001  0.20931  0.87496  1.0000
  H   H8        1.0  0.28999  0.79069  0.12504  1.0000
  H   H9        1.0  0.64349  0.00115  0.75426  1.0000
  H   H10       1.0  0.35651  0.99885  0.24575  1.0000
  H   H11       1.0  0.22275  0.99198  0.91913  1.0000
  H   H12       1.0  0.77725  0.00802  0.08087  1.0000
  H   H13       1.0  0.31096  0.19445  0.03604  1.0000
  H   H14       1.0  0.68903  0.80555  0.96396  1.0000
  H   H15       1.0  0.88957  0.52642  0.03730  1.0000
  H   H16       1.0  0.11043  0.47357  0.96270  1.0000
  H   H17       1.0  0.03211  0.72981  0.11776  1.0000
  H   H18       1.0  0.96789  0.27019  0.88224  1.0000
  H   H19       1.0  0.67196  0.80820  0.33748  1.0000
  H   H20       1.0  0.32804  0.19180  0.66252  1.0000
  H   H21       1.0  0.54758  0.60093  0.24844  1.0000
  H   H22       1.0  0.45243  0.39907  0.75156  1.0000
  H   H23       1.0  0.24198  0.70167  0.71183  1.0000
  H   H24       1.0  0.75802  0.29833  0.28817  1.0000
  H   H25       1.0  0.19851  0.81306  0.82435  1.0000
  H   H26       1.0  0.80149  0.18694  0.17565  1.0000
  H   H27       1.0  0.95915  0.06429  0.40054  1.0000
  H   H28       1.0  0.04085  0.93571  0.59946  1.0000
  H   H29       1.0  0.84849  0.93482  0.41910  1.0000
  H   H30       1.0  0.15151  0.06518  0.58090  1.0000
  H   H31       1.0  0.86194  0.73140  0.55418  1.0000
  H   H32       1.0  0.13806  0.26860  0.44581  1.0000
  C   C1        1.0  0.95519  0.58643  0.41192  1.0000
  C   C2        1.0  0.04481  0.41357  0.58808  1.0000
  C   C3        1.0  0.03602  0.69602  0.47079  1.0000
  C   C4        1.0  0.96397  0.30398  0.52921  1.0000
  C   C5        1.0  0.18520  0.72809  0.44442  1.0000
  C   C6        1.0  0.81480  0.27191  0.55559  1.0000
  C   C7        1.0  0.25075  0.65454  0.35841  1.0000
  C   C8        1.0  0.74925  0.34546  0.64159  1.0000
  C   C9        1.0  0.17014  0.54674  0.29867  1.0000
  C   C10       1.0  0.82986  0.45326  0.70133  1.0000
  C   C11       1.0  0.02508  0.51259  0.32627  1.0000
  C   C12       1.0  0.97492  0.48741  0.67373  1.0000
  C   C13       1.0  0.79536  0.55376  0.43696  1.0000
  C   C14       1.0  0.20463  0.44624  0.56303  1.0000
  C   C15       1.0  0.60522  0.15617  0.88316  1.0000
  C   C16       1.0  0.39478  0.84383  0.11684  1.0000
  C   C17       1.0  0.56621  0.04159  0.81509  1.0000
  C   C18       1.0  0.43379  0.95841  0.18491  1.0000
  C   C19       1.0  0.42683  0.97869  0.82551  1.0000
  C   C20       1.0  0.57317  0.02131  0.17449  1.0000
  C   C21       1.0  0.33439  0.03345  0.90689  1.0000
  C   C22       1.0  0.66562  0.96655  0.09311  1.0000
  C   C23       1.0  0.38189  0.14824  0.97297  1.0000
  C   C24       1.0  0.61811  0.85176  0.02703  1.0000
  C   C25       1.0  0.38567  0.85802  0.74640  1.0000
  C   C26       1.0  0.61433  0.14198  0.25361  1.0000
  C   C27       1.0  0.84776  0.59109  0.10475  1.0000
  C   C28       1.0  0.15224  0.40891  0.89525  1.0000
  C   C29       1.0  0.92573  0.70431  0.14955  1.0000
  C   C30       1.0  0.07427  0.29569  0.85045  1.0000
  C   C31       1.0  0.86536  0.78575  0.23465  1.0000
  C   C32       1.0  0.13465  0.21424  0.76535  1.0000
  C   C33       1.0  0.72725  0.74882  0.27218  1.0000
  C   C34       1.0  0.27275  0.25118  0.72782  1.0000
  C   C35       1.0  0.65509  0.63434  0.22300  1.0000
  C   C36       1.0  0.34491  0.36566  0.77700  1.0000
  C   C37       1.0  0.94758  0.91124  0.27667  1.0000
  C   C38       1.0  0.05242  0.08876  0.72333  1.0000
  S   S1        1.0  0.24963  0.45928  0.18345  1.0000
  S   S2        1.0  0.75037  0.54072  0.81655  1.0000
  N   N1        1.0  0.51452  0.20952  0.96097  1.0000
  N   N2        1.0  0.48547  0.79048  0.03904  1.0000
  N   N3        1.0  0.71365  0.55693  0.14023  1.0000
  N   N4        1.0  0.28635  0.44307  0.85977  1.0000
  N   N5        1.0  0.26724  0.78570  0.76405  1.0000
  N   N6        1.0  0.73276  0.21430  0.23595  1.0000
  N   N7        1.0  0.91290  0.97487  0.37259  1.0000
  N   N8        1.0  0.08710  0.02513  0.62741  1.0000
  O   O1        1.0  0.73230  0.63428  0.51022  1.0000
  O   O2        1.0  0.26769  0.36572  0.48978  1.0000
  O   O3        1.0  0.72808  0.45303  0.38568  1.0000
  O   O4        1.0  0.27191  0.54697  0.61432  1.0000
  O   O5        1.0  0.13166  0.36329  0.13210  1.0000
  O   O6        1.0  0.86835  0.63671  0.86790  1.0000
  O   O7        1.0  0.40275  0.40371  0.22137  1.0000
  O   O8        1.0  0.59726  0.59630  0.77863  1.0000
  O   O9        1.0  0.27771  0.55689  0.12165  1.0000
  O   O10       1.0  0.72229  0.44311  0.87835  1.0000
  O   O11       1.0  0.46306  0.82919  0.66758  1.0000
  O   O12       1.0  0.53694  0.17081  0.33242  1.0000
  O   O13       1.0  0.03876  0.95390  0.22265  1.0000
  O   O14       1.0  0.96124  0.04611  0.77735  1.0000
  O   O15       1.0  0.97106  0.77183  0.55247  1.0000
  O   O16       1.0  0.02893  0.22817  0.44753  1.0000
