data_image0
_chemical_formula_structural       Cu4H64C52N8O16
_chemical_formula_sum              "Cu4 H64 C52 N8 O16"
_cell_length_a       8.66507
_cell_length_b       12.9364
_cell_length_c       13.5654
_cell_angle_alpha    89.9996
_cell_angle_beta     90.0004
_cell_angle_gamma    92.1914

_space_group_name_H-M_alt    "P 1"
_space_group_IT_number       1

loop_
  _space_group_symop_operation_xyz
  'x, y, z'

loop_
  _atom_site_type_symbol
  _atom_site_label
  _atom_site_symmetry_multiplicity
  _atom_site_fract_x
  _atom_site_fract_y
  _atom_site_fract_z
  _atom_site_occupancy
  Cu  Cu1       1.0  0.04885  0.58593  0.04087  1.0000
  Cu  Cu2       1.0  0.45115  0.41408  0.54087  1.0000
  Cu  Cu3       1.0  0.95114  0.41408  0.95913  1.0000
  Cu  Cu4       1.0  0.54885  0.58593  0.45913  1.0000
  H   H1        1.0  0.22687  0.61136  0.22681  1.0000
  H   H2        1.0  0.27311  0.38864  0.72680  1.0000
  H   H3        1.0  0.77311  0.38864  0.77320  1.0000
  H   H4        1.0  0.72688  0.61136  0.27319  1.0000
  H   H5        1.0  0.27955  0.73891  0.36056  1.0000
  H   H6        1.0  0.22044  0.26109  0.86055  1.0000
  H   H7        1.0  0.72044  0.26109  0.63944  1.0000
  H   H8        1.0  0.77956  0.73891  0.13944  1.0000
  H   H9        1.0  0.07870  0.97004  0.17572  1.0000
  H   H10       1.0  0.42131  0.02996  0.67572  1.0000
  H   H11       1.0  0.92131  0.02996  0.82428  1.0000
  H   H12       1.0  0.57870  0.97004  0.32428  1.0000
  H   H13       1.0  0.03227  0.83076  0.04906  1.0000
  H   H14       1.0  0.46774  0.16924  0.54907  1.0000
  H   H15       1.0  0.96774  0.16923  0.95093  1.0000
  H   H16       1.0  0.53226  0.83076  0.45093  1.0000
  H   H17       1.0  0.30122  0.91347  0.41076  1.0000
  H   H18       1.0  0.19879  0.08654  0.91077  1.0000
  H   H19       1.0  0.69879  0.08654  0.58923  1.0000
  H   H20       1.0  0.80122  0.91346  0.08923  1.0000
  H   H21       1.0  0.27863  0.01415  0.32284  1.0000
  H   H22       1.0  0.22136  0.98585  0.82285  1.0000
  H   H23       1.0  0.72136  0.98585  0.67715  1.0000
  H   H24       1.0  0.77865  0.01415  0.17716  1.0000
  H   H25       1.0  0.19024  0.12764  0.44018  1.0000
  H   H26       1.0  0.30976  0.87236  0.94018  1.0000
  H   H27       1.0  0.80976  0.87235  0.55982  1.0000
  H   H28       1.0  0.69024  0.12764  0.05982  1.0000
  H   H29       1.0  0.21801  0.03109  0.53190  1.0000
  H   H30       1.0  0.28200  0.96890  0.03191  1.0000
  H   H31       1.0  0.78200  0.96890  0.46810  1.0000
  H   H32       1.0  0.71801  0.03110  0.96810  1.0000
  H   H33       1.0  0.08338  0.86088  0.51320  1.0000
  H   H34       1.0  0.41662  0.13912  0.01319  1.0000
  H   H35       1.0  0.91663  0.13912  0.48681  1.0000
  H   H36       1.0  0.58338  0.86088  0.98681  1.0000
  H   H37       1.0  0.96032  0.83943  0.40891  1.0000
  H   H38       1.0  0.53969  0.16056  0.90891  1.0000
  H   H39       1.0  0.03969  0.16056  0.59109  1.0000
  H   H40       1.0  0.46033  0.83943  0.09109  1.0000
  H   H41       1.0  0.59547  0.70893  0.95686  1.0000
  H   H42       1.0  0.90453  0.29108  0.45686  1.0000
  H   H43       1.0  0.40452  0.29108  0.04314  1.0000
  H   H44       1.0  0.09547  0.70893  0.54314  1.0000
  H   H45       1.0  0.49716  0.60054  0.01028  1.0000
  H   H46       1.0  0.00285  0.39946  0.51028  1.0000
  H   H47       1.0  0.50285  0.39946  0.98972  1.0000
  H   H48       1.0  0.99716  0.60054  0.48972  1.0000
  H   H49       1.0  0.40271  0.62618  0.84245  1.0000
  H   H50       1.0  0.09729  0.37383  0.34245  1.0000
  H   H51       1.0  0.59728  0.37382  0.15756  1.0000
  H   H52       1.0  0.90271  0.62618  0.65754  1.0000
  H   H53       1.0  0.49579  0.50707  0.84948  1.0000
  H   H54       1.0  0.00421  0.49294  0.34948  1.0000
  H   H55       1.0  0.50420  0.49293  0.15053  1.0000
  H   H56       1.0  0.99579  0.50706  0.65052  1.0000
  H   H57       1.0  0.63932  0.70866  0.76266  1.0000
  H   H58       1.0  0.86068  0.29135  0.26267  1.0000
  H   H59       1.0  0.36066  0.29134  0.23734  1.0000
  H   H60       1.0  0.13932  0.70866  0.73734  1.0000
  H   H61       1.0  0.73998  0.59404  0.78314  1.0000
  H   H62       1.0  0.76003  0.40597  0.28314  1.0000
  H   H63       1.0  0.26001  0.40596  0.21686  1.0000
  H   H64       1.0  0.23997  0.59403  0.71686  1.0000
  C   C1        1.0  0.19569  0.69165  0.21821  1.0000
  C   C2        1.0  0.30430  0.30835  0.71820  1.0000
  C   C3        1.0  0.80431  0.30835  0.78179  1.0000
  C   C4        1.0  0.69569  0.69164  0.28179  1.0000
  C   C5        1.0  0.22529  0.76370  0.29254  1.0000
  C   C6        1.0  0.27470  0.23629  0.79253  1.0000
  C   C7        1.0  0.77471  0.23629  0.70746  1.0000
  C   C8        1.0  0.72530  0.76370  0.20746  1.0000
  C   C9        1.0  0.18395  0.86614  0.27904  1.0000
  C   C10       1.0  0.31605  0.13385  0.77904  1.0000
  C   C11       1.0  0.81605  0.13385  0.72096  1.0000
  C   C12       1.0  0.68396  0.86614  0.22096  1.0000
  C   C13       1.0  0.11300  0.89121  0.19003  1.0000
  C   C14       1.0  0.38700  0.10879  0.69003  1.0000
  C   C15       1.0  0.88700  0.10879  0.80997  1.0000
  C   C16       1.0  0.61301  0.89120  0.30997  1.0000
  C   C17       1.0  0.08719  0.81424  0.11950  1.0000
  C   C18       1.0  0.41281  0.18576  0.61950  1.0000
  C   C19       1.0  0.91281  0.18576  0.88049  1.0000
  C   C20       1.0  0.58719  0.81424  0.38049  1.0000
  C   C21       1.0  0.21917  0.94641  0.35717  1.0000
  C   C22       1.0  0.28083  0.05358  0.85717  1.0000
  C   C23       1.0  0.78083  0.05359  0.64283  1.0000
  C   C24       1.0  0.71918  0.94642  0.14283  1.0000
  C   C25       1.0  0.13265  0.06256  0.47967  1.0000
  C   C26       1.0  0.36735  0.93744  0.97967  1.0000
  C   C27       1.0  0.86734  0.93744  0.52033  1.0000
  C   C28       1.0  0.63266  0.06256  0.02033  1.0000
  C   C29       1.0  0.00256  0.89836  0.46174  1.0000
  C   C30       1.0  0.49744  0.10163  0.96174  1.0000
  C   C31       1.0  0.99744  0.10163  0.53826  1.0000
  C   C32       1.0  0.50257  0.89837  0.03826  1.0000
  C   C33       1.0  0.73414  0.57777  0.97491  1.0000
  C   C34       1.0  0.76587  0.42223  0.47491  1.0000
  C   C35       1.0  0.26586  0.42224  0.02509  1.0000
  C   C36       1.0  0.23414  0.57777  0.52509  1.0000
  C   C37       1.0  0.57989  0.62454  0.95217  1.0000
  C   C38       1.0  0.92010  0.37546  0.45218  1.0000
  C   C39       1.0  0.42010  0.37546  0.04783  1.0000
  C   C40       1.0  0.07990  0.62454  0.54783  1.0000
  C   C41       1.0  0.51544  0.59136  0.85170  1.0000
  C   C42       1.0  0.98455  0.40865  0.35170  1.0000
  C   C43       1.0  0.48455  0.40864  0.14831  1.0000
  C   C44       1.0  0.01544  0.59135  0.64830  1.0000
  C   C45       1.0  0.62489  0.62410  0.76793  1.0000
  C   C46       1.0  0.87511  0.37590  0.26794  1.0000
  C   C47       1.0  0.37510  0.37590  0.23207  1.0000
  C   C48       1.0  0.12488  0.62410  0.73207  1.0000
  C   C49       1.0  0.57963  0.58160  0.66705  1.0000
  C   C50       1.0  0.92037  0.41841  0.16705  1.0000
  C   C51       1.0  0.42037  0.41841  0.33295  1.0000
  C   C52       1.0  0.07962  0.58159  0.83296  1.0000
  N   N1        1.0  0.12737  0.71592  0.13271  1.0000
  N   N2        1.0  0.37263  0.28408  0.63271  1.0000
  N   N3        1.0  0.87263  0.28408  0.86729  1.0000
  N   N4        1.0  0.62736  0.71591  0.36728  1.0000
  N   N5        1.0  0.08290  0.98286  0.40856  1.0000
  N   N6        1.0  0.41710  0.01713  0.90856  1.0000
  N   N7        1.0  0.91710  0.01713  0.59144  1.0000
  N   N8        1.0  0.58291  0.98286  0.09144  1.0000
  O   O1        1.0  0.83665  0.63621  0.01649  1.0000
  O   O2        1.0  0.66336  0.36380  0.51650  1.0000
  O   O3        1.0  0.16335  0.36380  0.98350  1.0000
  O   O4        1.0  0.33665  0.63621  0.48351  1.0000
  O   O5        1.0  0.74973  0.48400  0.94932  1.0000
  O   O6        1.0  0.75026  0.51600  0.44931  1.0000
  O   O7        1.0  0.25026  0.51600  0.05069  1.0000
  O   O8        1.0  0.24974  0.48401  0.55068  1.0000
  O   O9        1.0  0.60574  0.64073  0.59325  1.0000
  O   O10       1.0  0.89427  0.35927  0.09325  1.0000
  O   O11       1.0  0.39427  0.35927  0.40675  1.0000
  O   O12       1.0  0.10574  0.64073  0.90675  1.0000
  O   O13       1.0  0.52294  0.48935  0.66439  1.0000
  O   O14       1.0  0.97706  0.51066  0.16439  1.0000
  O   O15       1.0  0.47705  0.51065  0.33561  1.0000
  O   O16       1.0  0.02292  0.48935  0.83561  1.0000
