data_image0
_chemical_formula_structural       Cu4H44C64N16O16
_chemical_formula_sum              "Cu4 H44 C64 N16 O16"
_cell_length_a       9.89779
_cell_length_b       9.89722
_cell_length_c       17.871
_cell_angle_alpha    95.4166
_cell_angle_beta     100.628
_cell_angle_gamma    119.783

_space_group_name_H-M_alt    "P 1"
_space_group_IT_number       1

loop_
  _space_group_symop_operation_xyz
  'x, y, z'

loop_
  _atom_site_type_symbol
  _atom_site_label
  _atom_site_symmetry_multiplicity
  _atom_site_fract_x
  _atom_site_fract_y
  _atom_site_fract_z
  _atom_site_occupancy
  Cu  Cu1       1.0  0.89175  0.56704  0.04557  1.0000
  Cu  Cu2       1.0  0.02142  0.84615  0.45440  1.0000
  Cu  Cu3       1.0  0.10825  0.43297  0.95444  1.0000
  Cu  Cu4       1.0  0.97858  0.15386  0.54560  1.0000
  H   H1        1.0  0.31789  0.15150  0.42464  1.0000
  H   H2        1.0  0.22674  0.89318  0.07530  1.0000
  H   H3        1.0  0.68210  0.84850  0.57537  1.0000
  H   H4        1.0  0.77326  0.10681  0.92470  1.0000
  H   H5        1.0  0.42146  0.36770  0.16036  1.0000
  H   H6        1.0  0.70746  0.26113  0.33956  1.0000
  H   H7        1.0  0.57855  0.63230  0.83964  1.0000
  H   H8        1.0  0.29254  0.73887  0.66044  1.0000
  H   H9        1.0  0.75790  0.77152  0.02719  1.0000
  H   H10       1.0  0.24441  0.73082  0.47290  1.0000
  H   H11       1.0  0.24210  0.22848  0.97281  1.0000
  H   H12       1.0  0.75559  0.26919  0.52710  1.0000
  H   H13       1.0  0.44069  0.84222  0.29887  1.0000
  H   H14       1.0  0.04316  0.14178  0.20125  1.0000
  H   H15       1.0  0.55931  0.15777  0.70113  1.0000
  H   H16       1.0  0.95684  0.85823  0.79875  1.0000
  H   H17       1.0  0.28330  0.34321  0.25574  1.0000
  H   H18       1.0  0.58721  0.02746  0.24427  1.0000
  H   H19       1.0  0.71670  0.65679  0.74426  1.0000
  H   H20       1.0  0.41278  0.97254  0.75573  1.0000
  H   H21       1.0  0.67381  0.39728  0.13797  1.0000
  H   H22       1.0  0.75944  0.53593  0.36191  1.0000
  H   H23       1.0  0.32620  0.60273  0.86203  1.0000
  H   H24       1.0  0.24056  0.46407  0.63810  1.0000
  H   H25       1.0  0.51696  0.76683  0.05158  1.0000
  H   H26       1.0  0.21526  0.46541  0.44851  1.0000
  H   H27       1.0  0.48304  0.23317  0.94842  1.0000
  H   H28       1.0  0.78474  0.53459  0.55149  1.0000
  H   H29       1.0  0.63560  0.66392  0.46946  1.0000
  H   H30       1.0  0.69441  0.16621  0.03063  1.0000
  H   H31       1.0  0.36440  0.33607  0.53054  1.0000
  H   H32       1.0  0.30559  0.83379  0.96937  1.0000
  H   H33       1.0  0.94203  0.59142  0.20646  1.0000
  H   H34       1.0  0.88443  0.73535  0.29354  1.0000
  H   H35       1.0  0.05798  0.40860  0.79354  1.0000
  H   H36       1.0  0.11556  0.26465  0.70646  1.0000
  H   H37       1.0  0.12678  0.69324  0.28199  1.0000
  H   H38       1.0  0.91016  0.84430  0.21793  1.0000
  H   H39       1.0  0.87323  0.30677  0.71801  1.0000
  H   H40       1.0  0.08983  0.15570  0.78207  1.0000
  H   H41       1.0  0.00444  0.48217  0.26250  1.0000
  H   H42       1.0  0.71886  0.74160  0.23769  1.0000
  H   H43       1.0  0.99557  0.51784  0.73750  1.0000
  H   H44       1.0  0.28114  0.25841  0.76231  1.0000
  C   C1        1.0  0.68424  0.68885  0.05967  1.0000
  C   C2        1.0  0.12927  0.62468  0.44035  1.0000
  C   C3        1.0  0.31577  0.31116  0.94033  1.0000
  C   C4        1.0  0.87073  0.37532  0.55965  1.0000
  C   C5        1.0  0.54810  0.68394  0.07283  1.0000
  C   C6        1.0  0.11119  0.47537  0.42719  1.0000
  C   C7        1.0  0.45190  0.31607  0.92717  1.0000
  C   C8        1.0  0.88881  0.52463  0.57281  1.0000
  C   C9        1.0  0.45094  0.56963  0.11070  1.0000
  C   C10       1.0  0.95903  0.34032  0.38932  1.0000
  C   C11       1.0  0.54906  0.43037  0.88930  1.0000
  C   C12       1.0  0.04097  0.65968  0.61068  1.0000
  C   C13       1.0  0.30447  0.56177  0.12146  1.0000
  C   C14       1.0  0.94040  0.18308  0.37861  1.0000
  C   C15       1.0  0.69553  0.43823  0.87854  1.0000
  C   C16       1.0  0.05960  0.81692  0.62139  1.0000
  C   C17       1.0  0.49726  0.46472  0.13510  1.0000
  C   C18       1.0  0.82971  0.36221  0.36483  1.0000
  C   C19       1.0  0.50274  0.53529  0.86490  1.0000
  C   C20       1.0  0.17029  0.63779  0.63518  1.0000
  C   C21       1.0  0.44751  0.74334  0.31717  1.0000
  C   C22       1.0  0.92598  0.13028  0.18292  1.0000
  C   C23       1.0  0.55249  0.25665  0.68283  1.0000
  C   C24       1.0  0.07403  0.86972  0.81708  1.0000
  C   C25       1.0  0.45782  0.35794  0.40300  1.0000
  C   C26       1.0  0.45482  0.05484  0.09699  1.0000
  C   C27       1.0  0.54218  0.64206  0.59701  1.0000
  C   C28       1.0  0.54518  0.94515  0.90300  1.0000
  C   C29       1.0  0.35905  0.46200  0.29336  1.0000
  C   C30       1.0  0.66842  0.06563  0.20667  1.0000
  C   C31       1.0  0.64095  0.53800  0.70664  1.0000
  C   C32       1.0  0.33158  0.93436  0.79333  1.0000
  C   C33       1.0  0.54381  0.77011  0.39141  1.0000
  C   C34       1.0  0.87858  0.15244  0.10869  1.0000
  C   C35       1.0  0.45618  0.22988  0.60859  1.0000
  C   C36       1.0  0.12142  0.84756  0.89130  1.0000
  C   C37       1.0  0.36131  0.59222  0.26813  1.0000
  C   C38       1.0  0.82384  0.09310  0.23193  1.0000
  C   C39       1.0  0.63869  0.40778  0.73187  1.0000
  C   C40       1.0  0.17615  0.90690  0.76807  1.0000
  C   C41       1.0  0.63650  0.47899  0.12104  1.0000
  C   C42       1.0  0.85806  0.51552  0.37884  1.0000
  C   C43       1.0  0.36351  0.52102  0.87896  1.0000
  C   C44       1.0  0.14194  0.48448  0.62116  1.0000
  C   C45       1.0  0.12768  0.57318  0.17639  1.0000
  C   C46       1.0  0.89638  0.95110  0.32365  1.0000
  C   C47       1.0  0.87233  0.42682  0.82361  1.0000
  C   C48       1.0  0.10362  0.04890  0.67635  1.0000
  C   C49       1.0  0.55425  0.64361  0.41392  1.0000
  C   C50       1.0  0.72959  0.14041  0.08617  1.0000
  C   C51       1.0  0.44575  0.35639  0.58608  1.0000
  C   C52       1.0  0.27041  0.85959  0.91382  1.0000
  C   C53       1.0  0.04608  0.58587  0.23539  1.0000
  C   C54       1.0  0.84975  0.81037  0.26464  1.0000
  C   C55       1.0  0.95392  0.41414  0.76461  1.0000
  C   C56       1.0  0.15025  0.18963  0.73536  1.0000
  C   C57       1.0  0.63380  0.93582  0.44378  1.0000
  C   C58       1.0  0.99199  0.19010  0.05636  1.0000
  C   C59       1.0  0.36620  0.06416  0.55622  1.0000
  C   C60       1.0  0.00802  0.80990  0.94364  1.0000
  C   C61       1.0  0.45714  0.48875  0.36718  1.0000
  C   C62       1.0  0.62142  0.08999  0.13286  1.0000
  C   C63       1.0  0.54286  0.51125  0.63282  1.0000
  C   C64       1.0  0.37858  0.91000  0.86714  1.0000
  N   N1        1.0  0.72940  0.58745  0.08333  1.0000
  N   N2        1.0  0.00422  0.64615  0.41664  1.0000
  N   N3        1.0  0.27061  0.41255  0.91667  1.0000
  N   N4        1.0  0.99578  0.35386  0.58336  1.0000
  N   N5        1.0  0.19003  0.55466  0.06585  1.0000
  N   N6        1.0  0.98891  0.12423  0.43419  1.0000
  N   N7        1.0  0.80997  0.44535  0.93415  1.0000
  N   N8        1.0  0.01108  0.87577  0.56581  1.0000
  N   N9        1.0  0.07925  0.56180  0.10068  1.0000
  N   N10       1.0  0.96096  0.97848  0.39935  1.0000
  N   N11       1.0  0.92076  0.43821  0.89933  1.0000
  N   N12       1.0  0.03904  0.02152  0.60065  1.0000
  N   N13       1.0  0.26757  0.57153  0.19170  1.0000
  N   N14       1.0  0.87956  0.07579  0.30836  1.0000
  N   N15       1.0  0.73243  0.42847  0.80830  1.0000
  N   N16       1.0  0.12044  0.92421  0.69163  1.0000
  O   O1        1.0  0.63248  0.04470  0.41389  1.0000
  O   O2        1.0  0.13064  0.21850  0.08627  1.0000
  O   O3        1.0  0.36752  0.95531  0.58611  1.0000
  O   O4        1.0  0.86935  0.78150  0.91373  1.0000
  O   O5        1.0  0.31590  0.22060  0.38404  1.0000
  O   O6        1.0  0.33642  0.93192  0.11595  1.0000
  O   O7        1.0  0.68408  0.77940  0.61597  1.0000
  O   O8        1.0  0.66358  0.06808  0.88405  1.0000
  O   O9        1.0  0.57921  0.38268  0.45036  1.0000
  O   O10       1.0  0.43215  0.12875  0.04956  1.0000
  O   O11       1.0  0.42078  0.61731  0.54963  1.0000
  O   O12       1.0  0.56785  0.87125  0.95044  1.0000
  O   O13       1.0  0.71072  0.95485  0.51461  1.0000
  O   O14       1.0  0.94028  0.19640  0.98554  1.0000
  O   O15       1.0  0.28927  0.04514  0.48538  1.0000
  O   O16       1.0  0.05972  0.80361  0.01445  1.0000
