data_image0
_chemical_formula_structural       Mn2H48C44S4N6O12
_chemical_formula_sum              "Mn2 H48 C44 S4 N6 O12"
_cell_length_a       10.0989
_cell_length_b       10.8131
_cell_length_c       11.3738
_cell_angle_alpha    84.5949
_cell_angle_beta     79.7476
_cell_angle_gamma    71.3938

_space_group_name_H-M_alt    "P 1"
_space_group_IT_number       1

loop_
  _space_group_symop_operation_xyz
  'x, y, z'

loop_
  _atom_site_type_symbol
  _atom_site_label
  _atom_site_symmetry_multiplicity
  _atom_site_fract_x
  _atom_site_fract_y
  _atom_site_fract_z
  _atom_site_occupancy
  Mn  Mn1       1.0  0.89447  0.11709  0.23689  1.0000
  Mn  Mn2       1.0  0.10552  0.88291  0.76312  1.0000
  H   H1        1.0  0.10842  0.31489  0.92550  1.0000
  H   H2        1.0  0.89157  0.68510  0.07451  1.0000
  H   H3        1.0  0.17385  0.52145  0.88065  1.0000
  H   H4        1.0  0.82615  0.47855  0.11935  1.0000
  H   H5        1.0  0.31011  0.55542  0.68401  1.0000
  H   H6        1.0  0.68990  0.44457  0.31599  1.0000
  H   H7        1.0  0.37893  0.38759  0.53016  1.0000
  H   H8        1.0  0.62108  0.61240  0.46984  1.0000
  H   H9        1.0  0.17900  0.28132  0.39627  1.0000
  H   H10       1.0  0.82099  0.71869  0.60372  1.0000
  H   H11       1.0  0.03662  0.41958  0.25020  1.0000
  H   H12       1.0  0.96339  0.58045  0.74978  1.0000
  H   H13       1.0  0.15498  0.51016  0.06587  1.0000
  H   H14       1.0  0.84505  0.48986  0.93412  1.0000
  H   H15       1.0  0.41804  0.44543  0.02432  1.0000
  H   H16       1.0  0.58198  0.55458  0.97568  1.0000
  H   H17       1.0  0.13582  0.05291  0.41717  1.0000
  H   H18       1.0  0.86417  0.94710  0.58284  1.0000
  H   H19       1.0  0.42265  0.92829  0.34098  1.0000
  H   H20       1.0  0.57735  0.07172  0.65901  1.0000
  H   H21       1.0  0.19089  0.93914  0.06233  1.0000
  H   H22       1.0  0.80909  0.06086  0.93767  1.0000
  H   H23       1.0  0.45071  0.79575  0.03818  1.0000
  H   H24       1.0  0.54927  0.20425  0.96182  1.0000
  H   H25       1.0  0.54629  0.78009  0.15790  1.0000
  H   H26       1.0  0.45369  0.21991  0.84210  1.0000
  H   H27       1.0  0.57023  0.00268  0.10901  1.0000
  H   H28       1.0  0.42978  0.99731  0.89098  1.0000
  H   H29       1.0  0.64716  0.89599  0.99003  1.0000
  H   H30       1.0  0.35284  0.10399  0.00997  1.0000
  H   H31       1.0  0.69700  0.34544  0.74651  1.0000
  H   H32       1.0  0.30297  0.65457  0.25350  1.0000
  H   H33       1.0  0.58783  0.33626  0.64226  1.0000
  H   H34       1.0  0.41215  0.66374  0.35774  1.0000
  H   H35       1.0  0.63799  0.48000  0.64577  1.0000
  H   H36       1.0  0.36198  0.52000  0.35423  1.0000
  H   H37       1.0  0.92409  0.36850  0.66950  1.0000
  H   H38       1.0  0.07590  0.63151  0.33051  1.0000
  H   H39       1.0  0.95384  0.41144  0.51386  1.0000
  H   H40       1.0  0.04614  0.58857  0.48615  1.0000
  H   H41       1.0  0.01774  0.24462  0.56448  1.0000
  H   H42       1.0  0.98224  0.75539  0.43554  1.0000
  H   H43       1.0  0.68665  0.24292  0.47349  1.0000
  H   H44       1.0  0.31335  0.75707  0.52652  1.0000
  H   H45       1.0  0.83133  0.25964  0.04867  1.0000
  H   H46       1.0  0.16868  0.74034  0.95133  1.0000
  H   H47       1.0  0.99564  0.17436  0.00043  1.0000
  H   H48       1.0  0.00436  0.82562  0.99957  1.0000
  C   C1        1.0  0.15845  0.11765  0.78184  1.0000
  C   C2        1.0  0.84155  0.88234  0.21816  1.0000
  C   C3        1.0  0.20339  0.23722  0.75293  1.0000
  C   C4        1.0  0.79661  0.76277  0.24707  1.0000
  C   C5        1.0  0.16687  0.33269  0.83870  1.0000
  C   C6        1.0  0.83314  0.66730  0.16130  1.0000
  C   C7        1.0  0.20417  0.44683  0.81455  1.0000
  C   C8        1.0  0.79582  0.55316  0.18544  1.0000
  C   C9        1.0  0.28025  0.46635  0.70298  1.0000
  C   C10       1.0  0.71976  0.53363  0.29703  1.0000
  C   C11       1.0  0.31828  0.37272  0.61674  1.0000
  C   C12       1.0  0.68172  0.62727  0.38326  1.0000
  C   C13       1.0  0.28186  0.25699  0.63986  1.0000
  C   C14       1.0  0.71815  0.74299  0.36013  1.0000
  C   C15       1.0  0.37919  0.28591  0.29534  1.0000
  C   C16       1.0  0.62082  0.71410  0.70465  1.0000
  C   C17       1.0  0.23145  0.31850  0.31523  1.0000
  C   C18       1.0  0.76857  0.68150  0.68476  1.0000
  C   C19       1.0  0.15144  0.39634  0.23247  1.0000
  C   C20       1.0  0.84857  0.60369  0.76752  1.0000
  C   C21       1.0  0.21770  0.44496  0.12843  1.0000
  C   C22       1.0  0.78233  0.55505  0.87155  1.0000
  C   C23       1.0  0.36465  0.40948  0.10560  1.0000
  C   C24       1.0  0.63537  0.59053  0.89439  1.0000
  C   C25       1.0  0.44772  0.32938  0.18700  1.0000
  C   C26       1.0  0.55230  0.67062  0.81299  1.0000
  C   C27       1.0  0.60535  0.29272  0.15698  1.0000
  C   C28       1.0  0.39466  0.70727  0.84302  1.0000
  C   C29       1.0  0.18939  0.01027  0.33252  1.0000
  C   C30       1.0  0.81061  0.98973  0.66747  1.0000
  C   C31       1.0  0.33080  0.94815  0.29680  1.0000
  C   C32       1.0  0.66920  0.05186  0.70320  1.0000
  C   C33       1.0  0.21188  0.95289  0.14971  1.0000
  C   C34       1.0  0.78811  0.04711  0.85029  1.0000
  C   C35       1.0  0.47544  0.85071  0.10308  1.0000
  C   C36       1.0  0.52455  0.14929  0.89692  1.0000
  C   C37       1.0  0.54522  0.95088  0.04110  1.0000
  C   C38       1.0  0.45478  0.04911  0.95889  1.0000
  C   C39       1.0  0.67325  0.37290  0.65542  1.0000
  C   C40       1.0  0.32673  0.62710  0.34459  1.0000
  C   C41       1.0  0.93147  0.33648  0.57959  1.0000
  C   C42       1.0  0.06852  0.66353  0.42043  1.0000
  C   C43       1.0  0.79115  0.25317  0.47636  1.0000
  C   C44       1.0  0.20883  0.74684  0.52367  1.0000
  S   S1        1.0  0.33568  0.13395  0.53209  1.0000
  S   S2        1.0  0.66431  0.86606  0.46791  1.0000
  S   S3        1.0  0.48163  0.18851  0.40224  1.0000
  S   S4        1.0  0.51836  0.81149  0.59776  1.0000
  N   N1        1.0  0.11622  0.01326  0.23990  1.0000
  N   N2        1.0  0.88378  0.98674  0.76010  1.0000
  N   N3        1.0  0.34305  0.91179  0.18106  1.0000
  N   N4        1.0  0.65694  0.08822  0.81893  1.0000
  N   N5        1.0  0.79804  0.31724  0.56826  1.0000
  N   N6        1.0  0.20194  0.68277  0.43175  1.0000
  O   O1        1.0  0.10434  0.09028  0.88654  1.0000
  O   O2        1.0  0.89566  0.90970  0.11346  1.0000
  O   O3        1.0  0.17839  0.04321  0.69429  1.0000
  O   O4        1.0  0.82160  0.95679  0.30571  1.0000
  O   O5        1.0  0.67550  0.23901  0.24246  1.0000
  O   O6        1.0  0.32451  0.76098  0.75753  1.0000
  O   O7        1.0  0.66156  0.31411  0.05127  1.0000
  O   O8        1.0  0.33845  0.68588  0.94873  1.0000
  O   O9        1.0  0.89568  0.20823  0.39664  1.0000
  O   O10       1.0  0.10432  0.79176  0.60337  1.0000
  O   O11       1.0  0.92999  0.22116  0.07031  1.0000
  O   O12       1.0  0.07002  0.77883  0.92969  1.0000
