data_image0
_chemical_formula_structural       Cd2H44C48S4N8O8
_chemical_formula_sum              "Cd2 H44 C48 S4 N8 O8"
_cell_length_a       9.23162
_cell_length_b       11.7549
_cell_length_c       14.5243
_cell_angle_alpha    101.055
_cell_angle_beta     100.354
_cell_angle_gamma    109.037

_space_group_name_H-M_alt    "P 1"
_space_group_IT_number       1

loop_
  _space_group_symop_operation_xyz
  'x, y, z'

loop_
  _atom_site_type_symbol
  _atom_site_label
  _atom_site_symmetry_multiplicity
  _atom_site_fract_x
  _atom_site_fract_y
  _atom_site_fract_z
  _atom_site_occupancy
  Cd  Cd1       1.0  0.15126  0.36906  0.70440  1.0000
  Cd  Cd2       1.0  0.84874  0.63095  0.29559  1.0000
  H   H1        1.0  0.52685  0.98525  0.89215  1.0000
  H   H2        1.0  0.47316  0.01475  0.10786  1.0000
  H   H3        1.0  0.75553  0.32378  0.35243  1.0000
  H   H4        1.0  0.24444  0.67622  0.64756  1.0000
  H   H5        1.0  0.15057  0.14528  0.49471  1.0000
  H   H6        1.0  0.84943  0.85473  0.50529  1.0000
  H   H7        1.0  0.81684  0.40307  0.65713  1.0000
  H   H8        1.0  0.18317  0.59695  0.34287  1.0000
  H   H9        1.0  0.05271  0.32926  0.44309  1.0000
  H   H10       1.0  0.94727  0.67074  0.55689  1.0000
  H   H11       1.0  0.83652  0.96438  0.93377  1.0000
  H   H12       1.0  0.16347  0.03561  0.06623  1.0000
  H   H13       1.0  0.23512  0.97802  0.42246  1.0000
  H   H14       1.0  0.76489  0.02200  0.57754  1.0000
  H   H15       1.0  0.18134  0.86705  0.48928  1.0000
  H   H16       1.0  0.81867  0.13296  0.51073  1.0000
  H   H17       1.0  0.60066  0.53276  0.96091  1.0000
  H   H18       1.0  0.39933  0.46723  0.03910  1.0000
  H   H19       1.0  0.41728  0.02124  0.69319  1.0000
  H   H20       1.0  0.58272  0.97877  0.30682  1.0000
  H   H21       1.0  0.83577  0.68638  0.08918  1.0000
  H   H22       1.0  0.16423  0.31361  0.91083  1.0000
  H   H23       1.0  0.83996  0.42937  0.92108  1.0000
  H   H24       1.0  0.16006  0.57062  0.07889  1.0000
  H   H25       1.0  0.51349  0.31371  0.41362  1.0000
  H   H26       1.0  0.48651  0.68632  0.58638  1.0000
  H   H27       1.0  0.52643  0.32213  0.53878  1.0000
  H   H28       1.0  0.47357  0.67789  0.46122  1.0000
  H   H29       1.0  0.37965  0.23221  0.79268  1.0000
  H   H30       1.0  0.62033  0.76779  0.20732  1.0000
  H   H31       1.0  0.95063  0.90581  0.07702  1.0000
  H   H32       1.0  0.04937  0.09418  0.92297  1.0000
  H   H33       1.0  0.49003  0.15308  0.00536  1.0000
  H   H34       1.0  0.51000  0.84694  0.99464  1.0000
  H   H35       1.0  0.65044  0.37725  0.02399  1.0000
  H   H36       1.0  0.34959  0.62276  0.97600  1.0000
  H   H37       1.0  0.46280  0.90430  0.55948  1.0000
  H   H38       1.0  0.53721  0.09572  0.44053  1.0000
  H   H39       1.0  0.41586  0.86737  0.43125  1.0000
  H   H40       1.0  0.58415  0.13264  0.56876  1.0000
  H   H41       1.0  0.63645  0.54383  0.45194  1.0000
  H   H42       1.0  0.36357  0.45619  0.54808  1.0000
  H   H43       1.0  0.65879  0.55727  0.57858  1.0000
  H   H44       1.0  0.34122  0.44275  0.42143  1.0000
  C   C1        1.0  0.90843  0.27503  0.79300  1.0000
  C   C2        1.0  0.09157  0.72493  0.20697  1.0000
  C   C3        1.0  0.43755  0.56252  0.80644  1.0000
  C   C4        1.0  0.56243  0.43747  0.19358  1.0000
  C   C5        1.0  0.79194  0.23863  0.85095  1.0000
  C   C6        1.0  0.20806  0.76135  0.14903  1.0000
  C   C7        1.0  0.59670  0.08279  0.89923  1.0000
  C   C8        1.0  0.40331  0.91721  0.10078  1.0000
  C   C9        1.0  0.58663  0.65888  0.87474  1.0000
  C   C10       1.0  0.41336  0.34111  0.12527  1.0000
  C   C11       1.0  0.65536  0.78147  0.86544  1.0000
  C   C12       1.0  0.34462  0.21852  0.13457  1.0000
  C   C13       1.0  0.81306  0.33799  0.42795  1.0000
  C   C14       1.0  0.18693  0.66201  0.57204  1.0000
  C   C15       1.0  0.21775  0.14279  0.56325  1.0000
  C   C16       1.0  0.78225  0.85722  0.43675  1.0000
  C   C17       1.0  0.84220  0.38237  0.58702  1.0000
  C   C18       1.0  0.15781  0.61764  0.41298  1.0000
  C   C19       1.0  0.95930  0.34246  0.47438  1.0000
  C   C20       1.0  0.04069  0.65754  0.52561  1.0000
  C   C21       1.0  0.78643  0.86901  0.93909  1.0000
  C   C22       1.0  0.21356  0.13097  0.06091  1.0000
  C   C23       1.0  0.70540  0.11159  0.84320  1.0000
  C   C24       1.0  0.29460  0.88840  0.15679  1.0000
  C   C25       1.0  0.27308  0.95485  0.49016  1.0000
  C   C26       1.0  0.72693  0.04516  0.50985  1.0000
  C   C27       1.0  0.65581  0.62744  0.95542  1.0000
  C   C28       1.0  0.34418  0.37255  0.04458  1.0000
  C   C29       1.0  0.35586  0.07818  0.66776  1.0000
  C   C30       1.0  0.64414  0.92183  0.33224  1.0000
  C   C31       1.0  0.78693  0.71396  0.02721  1.0000
  C   C32       1.0  0.21306  0.28603  0.97279  1.0000
  C   C33       1.0  0.77022  0.33256  0.91615  1.0000
  C   C34       1.0  0.22979  0.66742  0.08382  1.0000
  C   C35       1.0  0.58228  0.36834  0.48807  1.0000
  C   C36       1.0  0.41772  0.63168  0.51194  1.0000
  C   C37       1.0  0.33671  0.18267  0.71611  1.0000
  C   C38       1.0  0.66328  0.81733  0.28389  1.0000
  C   C39       1.0  0.85105  0.83579  0.01936  1.0000
  C   C40       1.0  0.14895  0.16419  0.98064  1.0000
  C   C41       1.0  0.57619  0.17773  0.96308  1.0000
  C   C42       1.0  0.42383  0.82228  0.03692  1.0000
  C   C43       1.0  0.66421  0.30320  0.97278  1.0000
  C   C44       1.0  0.33581  0.69680  0.02721  1.0000
  C   C45       1.0  0.43221  0.93987  0.49683  1.0000
  C   C46       1.0  0.56780  0.06015  0.50318  1.0000
  C   C47       1.0  0.58425  0.50088  0.50525  1.0000
  C   C48       1.0  0.41576  0.49914  0.49476  1.0000
  S   S1        1.0  0.56994  0.82466  0.76387  1.0000
  S   S2        1.0  0.43004  0.17533  0.23614  1.0000
  S   S3        1.0  0.73936  0.99210  0.76326  1.0000
  S   S4        1.0  0.26063  0.00787  0.23674  1.0000
  N   N1        1.0  0.97606  0.37032  0.57352  1.0000
  N   N2        1.0  0.02394  0.62969  0.42648  1.0000
  N   N3        1.0  0.74069  0.36331  0.50053  1.0000
  N   N4        1.0  0.25931  0.63670  0.49947  1.0000
  N   N5        1.0  0.24998  0.22191  0.65001  1.0000
  N   N6        1.0  0.75002  0.77810  0.34999  1.0000
  N   N7        1.0  0.28040  0.05440  0.57096  1.0000
  N   N8        1.0  0.71961  0.94561  0.42904  1.0000
  O   O1        1.0  0.93442  0.18888  0.73853  1.0000
  O   O2        1.0  0.06558  0.81108  0.26145  1.0000
  O   O3        1.0  0.98078  0.39132  0.80048  1.0000
  O   O4        1.0  0.01921  0.60865  0.19949  1.0000
  O   O5        1.0  0.37539  0.58231  0.72818  1.0000
  O   O6        1.0  0.62458  0.41767  0.27183  1.0000
  O   O7        1.0  0.37385  0.46227  0.83086  1.0000
  O   O8        1.0  0.62614  0.53772  0.16915  1.0000
