data_image0
_chemical_formula_structural       K2H20C20O6F10
_chemical_formula_sum              "K2 H20 C20 O6 F10"
_cell_length_a       4.33677
_cell_length_b       12.0791
_cell_length_c       12.2504
_cell_angle_alpha    86.4544
_cell_angle_beta     81.7986
_cell_angle_gamma    88.872

_space_group_name_H-M_alt    "P 1"
_space_group_IT_number       1

loop_
  _space_group_symop_operation_xyz
  'x, y, z'

loop_
  _atom_site_type_symbol
  _atom_site_label
  _atom_site_symmetry_multiplicity
  _atom_site_fract_x
  _atom_site_fract_y
  _atom_site_fract_z
  _atom_site_occupancy
  K   K1        1.0  0.20668  0.37736  0.08756  1.0000
  K   K2        1.0  0.79334  0.62264  0.91244  1.0000
  H   H1        1.0  0.61323  0.01694  0.13192  1.0000
  H   H2        1.0  0.38677  0.98306  0.86808  1.0000
  H   H3        1.0  0.60133  0.11971  0.02046  1.0000
  H   H4        1.0  0.39867  0.88029  0.97954  1.0000
  H   H5        1.0  0.24631  0.06246  0.09262  1.0000
  H   H6        1.0  0.75368  0.93754  0.90738  1.0000
  H   H7        1.0  0.43991  0.07350  0.31703  1.0000
  H   H8        1.0  0.56008  0.92650  0.68297  1.0000
  H   H9        1.0  0.07709  0.11953  0.27579  1.0000
  H   H10       1.0  0.92291  0.88047  0.72421  1.0000
  H   H11       1.0  0.21690  0.21061  0.44033  1.0000
  H   H12       1.0  0.78310  0.78939  0.55967  1.0000
  H   H13       1.0  0.54897  0.27140  0.35559  1.0000
  H   H14       1.0  0.45103  0.72860  0.64441  1.0000
  H   H15       1.0  0.93667  0.38149  0.47217  1.0000
  H   H16       1.0  0.06332  0.61851  0.52784  1.0000
  H   H17       1.0  0.93168  0.47898  0.35603  1.0000
  H   H18       1.0  0.06831  0.52102  0.64397  1.0000
  H   H19       1.0  0.29032  0.44640  0.40870  1.0000
  H   H20       1.0  0.70968  0.55360  0.59131  1.0000
  C   C1        1.0  0.92317  0.23675  0.84489  1.0000
  C   C2        1.0  0.07684  0.76326  0.15511  1.0000
  C   C3        1.0  0.91170  0.17746  0.75201  1.0000
  C   C4        1.0  0.08832  0.82254  0.24798  1.0000
  C   C5        1.0  0.73373  0.21624  0.67111  1.0000
  C   C6        1.0  0.26628  0.78376  0.32889  1.0000
  C   C7        1.0  0.57023  0.31596  0.68586  1.0000
  C   C8        1.0  0.42978  0.68404  0.31413  1.0000
  C   C9        1.0  0.58383  0.37429  0.77921  1.0000
  C   C10       1.0  0.41618  0.62571  0.22079  1.0000
  C   C11       1.0  0.75926  0.33856  0.86501  1.0000
  C   C12       1.0  0.24074  0.66144  0.13499  1.0000
  C   C13       1.0  0.48326  0.08883  0.10120  1.0000
  C   C14       1.0  0.51674  0.91117  0.89880  1.0000
  C   C15       1.0  0.31734  0.14508  0.28132  1.0000
  C   C16       1.0  0.68265  0.85492  0.71869  1.0000
  C   C17       1.0  0.31130  0.24026  0.35527  1.0000
  C   C18       1.0  0.68870  0.75974  0.64473  1.0000
  C   C19       1.0  0.06730  0.41304  0.39288  1.0000
  C   C20       1.0  0.93269  0.58696  0.60712  1.0000
  O   O1        1.0  0.47279  0.17775  0.17332  1.0000
  O   O2        1.0  0.52720  0.82225  0.82668  1.0000
  O   O3        1.0  0.11670  0.32741  0.31699  1.0000
  O   O4        1.0  0.88329  0.67259  0.68301  1.0000
  O   O5        1.0  0.76817  0.39324  0.95227  1.0000
  O   O6        1.0  0.23183  0.60676  0.04772  1.0000
  F   F1        1.0  0.10406  0.19596  0.92137  1.0000
  F   F2        1.0  0.89595  0.80405  0.07863  1.0000
  F   F3        1.0  0.07946  0.08179  0.73786  1.0000
  F   F4        1.0  0.92054  0.91821  0.26215  1.0000
  F   F5        1.0  0.72210  0.15877  0.57975  1.0000
  F   F6        1.0  0.27790  0.84123  0.42025  1.0000
  F   F7        1.0  0.39622  0.35558  0.60767  1.0000
  F   F8        1.0  0.60377  0.64442  0.39233  1.0000
  F   F9        1.0  0.41727  0.47165  0.79043  1.0000
  F   F10       1.0  0.58273  0.52836  0.20957  1.0000
