data_image0
_chemical_formula_structural       Cd2H18C28S4N6O2
_chemical_formula_sum              "Cd2 H18 C28 S4 N6 O2"
_cell_length_a       8.57902
_cell_length_b       9.06643
_cell_length_c       10.4271
_cell_angle_alpha    86.7559
_cell_angle_beta     73.1062
_cell_angle_gamma    74.5195

_space_group_name_H-M_alt    "P 1"
_space_group_IT_number       1

loop_
  _space_group_symop_operation_xyz
  'x, y, z'

loop_
  _atom_site_type_symbol
  _atom_site_label
  _atom_site_symmetry_multiplicity
  _atom_site_fract_x
  _atom_site_fract_y
  _atom_site_fract_z
  _atom_site_occupancy
  Cd  Cd1       1.0  0.57700  0.87033  0.73522  1.0000
  Cd  Cd2       1.0  0.42300  0.12967  0.26478  1.0000
  H   H1        1.0  0.77883  0.99268  0.44673  1.0000
  H   H2        1.0  0.22116  0.00732  0.55327  1.0000
  H   H3        1.0  0.87724  0.36958  0.87071  1.0000
  H   H4        1.0  0.12277  0.63042  0.12930  1.0000
  H   H5        1.0  0.28250  0.69578  0.30723  1.0000
  H   H6        1.0  0.71750  0.30422  0.69277  1.0000
  H   H7        1.0  0.22016  0.54984  0.51741  1.0000
  H   H8        1.0  0.77984  0.45016  0.48259  1.0000
  H   H9        1.0  0.05706  0.92155  0.26949  1.0000
  H   H10       1.0  0.94294  0.07846  0.73051  1.0000
  H   H11       1.0  0.22922  0.64279  0.71257  1.0000
  H   H12       1.0  0.77078  0.35721  0.28743  1.0000
  H   H13       1.0  0.08333  0.19820  0.97465  1.0000
  H   H14       1.0  0.91668  0.80180  0.02535  1.0000
  H   H15       1.0  0.42928  0.47835  0.82393  1.0000
  H   H16       1.0  0.57072  0.52165  0.17607  1.0000
  H   H17       1.0  0.35971  0.25213  0.95078  1.0000
  H   H18       1.0  0.64030  0.74788  0.04922  1.0000
  C   C1        1.0  0.96828  0.69906  0.59547  1.0000
  C   C2        1.0  0.03171  0.30094  0.40453  1.0000
  C   C3        1.0  0.91588  0.61312  0.72167  1.0000
  C   C4        1.0  0.08412  0.38688  0.27833  1.0000
  C   C5        1.0  0.51890  0.81651  0.44114  1.0000
  C   C6        1.0  0.48110  0.18348  0.55888  1.0000
  C   C7        1.0  0.04258  0.51283  0.77939  1.0000
  C   C8        1.0  0.95742  0.48717  0.22061  1.0000
  C   C9        1.0  0.68293  0.05957  0.96029  1.0000
  C   C10       1.0  0.31706  0.94043  0.03971  1.0000
  C   C11       1.0  0.88029  0.89608  0.45928  1.0000
  C   C12       1.0  0.11971  0.10392  0.54072  1.0000
  C   C13       1.0  0.00065  0.38942  0.85732  1.0000
  C   C14       1.0  0.99936  0.61058  0.14269  1.0000
  C   C15       1.0  0.15990  0.73095  0.38186  1.0000
  C   C16       1.0  0.84010  0.26905  0.61814  1.0000
  C   C17       1.0  0.12611  0.65058  0.50063  1.0000
  C   C18       1.0  0.87388  0.34942  0.49937  1.0000
  C   C19       1.0  0.03528  0.85548  0.36037  1.0000
  C   C20       1.0  0.96471  0.14452  0.63963  1.0000
  C   C21       1.0  0.19819  0.54382  0.76761  1.0000
  C   C22       1.0  0.80181  0.45618  0.23239  1.0000
  C   C23       1.0  0.11525  0.29530  0.91672  1.0000
  C   C24       1.0  0.88476  0.70470  0.08328  1.0000
  C   C25       1.0  0.31062  0.45148  0.83060  1.0000
  C   C26       1.0  0.68939  0.54852  0.16940  1.0000
  C   C27       1.0  0.27077  0.32582  0.90323  1.0000
  C   C28       1.0  0.72924  0.67418  0.09676  1.0000
  S   S1        1.0  0.51300  0.69159  0.55955  1.0000
  S   S2        1.0  0.48699  0.30841  0.44045  1.0000
  S   S3        1.0  0.68873  0.17310  0.07431  1.0000
  S   S4        1.0  0.31127  0.82690  0.92569  1.0000
  N   N1        1.0  0.84786  0.82007  0.57346  1.0000
  N   N2        1.0  0.15213  0.17993  0.42654  1.0000
  N   N3        1.0  0.68380  0.97740  0.87586  1.0000
  N   N4        1.0  0.31619  0.02259  0.12413  1.0000
  N   N5        1.0  0.52370  0.90563  0.35367  1.0000
  N   N6        1.0  0.47630  0.09438  0.64632  1.0000
  O   O1        1.0  0.76245  0.62523  0.77536  1.0000
  O   O2        1.0  0.23755  0.37476  0.22464  1.0000
