data_image0
_chemical_formula_structural       Cu2H56C54N8O14
_chemical_formula_sum              "Cu2 H56 C54 N8 O14"
_cell_length_a       8.34155
_cell_length_b       12.4878
_cell_length_c       13.4484
_cell_angle_alpha    74.7974
_cell_angle_beta     84.4986
_cell_angle_gamma    85.2101

_space_group_name_H-M_alt    "P 1"
_space_group_IT_number       1

loop_
  _space_group_symop_operation_xyz
  'x, y, z'

loop_
  _atom_site_type_symbol
  _atom_site_label
  _atom_site_symmetry_multiplicity
  _atom_site_fract_x
  _atom_site_fract_y
  _atom_site_fract_z
  _atom_site_occupancy
  Cu  Cu1       1.0  0.00000  0.50000  0.50000  1.0000
  Cu  Cu2       1.0  0.50000  1.00000  1.00000  1.0000
  H   H1        1.0  0.79958  0.71244  0.48016  1.0000
  H   H2        1.0  0.20041  0.28756  0.51985  1.0000
  H   H3        1.0  0.44656  0.18055  0.86095  1.0000
  H   H4        1.0  0.55344  0.81945  0.13905  1.0000
  H   H5        1.0  0.29809  0.24555  0.90430  1.0000
  H   H6        1.0  0.70191  0.75444  0.09571  1.0000
  H   H7        1.0  0.55509  0.80440  0.39023  1.0000
  H   H8        1.0  0.44489  0.19560  0.60979  1.0000
  H   H9        1.0  0.29413  0.55937  0.29511  1.0000
  H   H10       1.0  0.70587  0.44063  0.70489  1.0000
  H   H11       1.0  0.42096  0.70357  0.28672  1.0000
  H   H12       1.0  0.57903  0.29643  0.71329  1.0000
  H   H13       1.0  0.25403  0.62060  0.06237  1.0000
  H   H14       1.0  0.74596  0.37940  0.93763  1.0000
  H   H15       1.0  0.78249  0.43561  0.36658  1.0000
  H   H16       1.0  0.21752  0.56439  0.63341  1.0000
  H   H17       1.0  0.34137  0.42767  0.13981  1.0000
  H   H18       1.0  0.65862  0.57233  0.86020  1.0000
  H   H19       1.0  0.17559  0.34575  0.35604  1.0000
  H   H20       1.0  0.82441  0.65424  0.64395  1.0000
  H   H21       1.0  0.35511  0.28607  0.30305  1.0000
  H   H22       1.0  0.64488  0.71393  0.69696  1.0000
  H   H23       1.0  0.20211  0.23821  0.17510  1.0000
  H   H24       1.0  0.79789  0.76179  0.82490  1.0000
  H   H25       1.0  0.11190  0.18124  0.29961  1.0000
  H   H26       1.0  0.88809  0.81876  0.70039  1.0000
  H   H27       1.0  0.90312  0.33938  0.27874  1.0000
  H   H28       1.0  0.09688  0.66063  0.72127  1.0000
  H   H29       1.0  0.89930  0.27588  0.17755  1.0000
  H   H30       1.0  0.10070  0.72412  0.82245  1.0000
  H   H31       1.0  0.88922  0.48169  0.11292  1.0000
  H   H32       1.0  0.11077  0.51831  0.88708  1.0000
  H   H33       1.0  0.06733  0.42089  0.06070  1.0000
  H   H34       1.0  0.93267  0.57911  0.93929  1.0000
  H   H35       1.0  0.04119  0.52731  0.24263  1.0000
  H   H36       1.0  0.95881  0.47269  0.75738  1.0000
  H   H37       1.0  0.87351  0.84876  0.93136  1.0000
  H   H38       1.0  0.12649  0.15123  0.06864  1.0000
  H   H39       1.0  0.97830  0.02642  0.81705  1.0000
  H   H40       1.0  0.02171  0.97358  0.18295  1.0000
  H   H41       1.0  0.24507  0.08359  0.84749  1.0000
  H   H42       1.0  0.75493  0.91640  0.15250  1.0000
  H   H43       1.0  0.32271  0.79544  0.07780  1.0000
  H   H44       1.0  0.67730  0.20456  0.92220  1.0000
  H   H45       1.0  0.12716  0.80708  0.57915  1.0000
  H   H46       1.0  0.87285  0.19293  0.42085  1.0000
  H   H47       1.0  0.31146  0.07759  0.56834  1.0000
  H   H48       1.0  0.68855  0.92241  0.43166  1.0000
  H   H49       1.0  0.29397  0.94314  0.65394  1.0000
  H   H50       1.0  0.70603  0.05686  0.34605  1.0000
  H   H51       1.0  0.11773  0.02612  0.61135  1.0000
  H   H52       1.0  0.88227  0.97388  0.38864  1.0000
  H   H53       1.0  0.38042  0.08649  0.39003  1.0000
  H   H54       1.0  0.61959  0.91351  0.60996  1.0000
  H   H55       1.0  0.24458  0.83497  0.25585  1.0000
  H   H56       1.0  0.75542  0.16503  0.74415  1.0000
  C   C1        1.0  0.73754  0.67204  0.43379  1.0000
  C   C2        1.0  0.26247  0.32797  0.56621  1.0000
  C   C3        1.0  0.60256  0.72245  0.38349  1.0000
  C   C4        1.0  0.39743  0.27754  0.61653  1.0000
  C   C5        1.0  0.52828  0.66643  0.32543  1.0000
  C   C6        1.0  0.47172  0.33357  0.67457  1.0000
  C   C7        1.0  0.59240  0.56169  0.31828  1.0000
  C   C8        1.0  0.40760  0.43831  0.68172  1.0000
  C   C9        1.0  0.72914  0.51708  0.37022  1.0000
  C   C10       1.0  0.27086  0.48292  0.62977  1.0000
  C   C11       1.0  0.52134  0.49409  0.25794  1.0000
  C   C12       1.0  0.47866  0.50592  0.74206  1.0000
  C   C13       1.0  0.26805  0.44273  0.20819  1.0000
  C   C14       1.0  0.73195  0.55727  0.79181  1.0000
  C   C15       1.0  0.23751  0.32987  0.28483  1.0000
  C   C16       1.0  0.76249  0.67014  0.71517  1.0000
  C   C17       1.0  0.13353  0.26024  0.24178  1.0000
  C   C18       1.0  0.86647  0.73976  0.75822  1.0000
  C   C19       1.0  0.97478  0.32414  0.21021  1.0000
  C   C20       1.0  0.02521  0.67587  0.78980  1.0000
  C   C21       1.0  0.00458  0.43537  0.13230  1.0000
  C   C22       1.0  0.99542  0.56464  0.86770  1.0000
  C   C23       1.0  0.10853  0.50623  0.17493  1.0000
  C   C24       1.0  0.89147  0.49377  0.82507  1.0000
  C   C25       1.0  0.03419  0.70020  0.08212  1.0000
  C   C26       1.0  0.96582  0.29980  0.91788  1.0000
  C   C27       1.0  0.09227  0.80657  0.01166  1.0000
  C   C28       1.0  0.90773  0.19343  0.98835  1.0000
  C   C29       1.0  0.99286  0.87395  0.93877  1.0000
  C   C30       1.0  0.00714  0.12605  0.06123  1.0000
  C   C31       1.0  0.04989  0.97283  0.87644  1.0000
  C   C32       1.0  0.95012  0.02716  0.12356  1.0000
  C   C33       1.0  0.19918  0.00502  0.89275  1.0000
  C   C34       1.0  0.80083  0.99497  0.10724  1.0000
  C   C35       1.0  0.24114  0.84446  0.02223  1.0000
  C   C36       1.0  0.75886  0.15554  0.97777  1.0000
  C   C37       1.0  0.12334  0.69693  0.42713  1.0000
  C   C38       1.0  0.87666  0.30308  0.57287  1.0000
  C   C39       1.0  0.17994  0.80951  0.41869  1.0000
  C   C40       1.0  0.82007  0.19049  0.58130  1.0000
  C   C41       1.0  0.17923  0.85348  0.50439  1.0000
  C   C42       1.0  0.82078  0.14653  0.49561  1.0000
  C   C43       1.0  0.24741  0.95499  0.49531  1.0000
  C   C44       1.0  0.75260  0.04502  0.50469  1.0000
  C   C45       1.0  0.24280  0.00280  0.58730  1.0000
  C   C46       1.0  0.75721  0.99720  0.41270  1.0000
  C   C47       1.0  0.32093  0.00950  0.39930  1.0000
  C   C48       1.0  0.67907  0.99050  0.60070  1.0000
  C   C49       1.0  0.32172  0.96650  0.31283  1.0000
  C   C50       1.0  0.67828  0.03349  0.68717  1.0000
  C   C51       1.0  0.24675  0.86826  0.32266  1.0000
  C   C52       1.0  0.75324  0.13174  0.67732  1.0000
  C   C53       1.0  0.41042  0.02194  0.21139  1.0000
  C   C54       1.0  0.58958  0.97806  0.78861  1.0000
  N   N1        1.0  0.79935  0.57024  0.42795  1.0000
  N   N2        1.0  0.20065  0.42976  0.57205  1.0000
  N   N3        1.0  0.29163  0.94325  0.96589  1.0000
  N   N4        1.0  0.70837  0.05674  0.03411  1.0000
  N   N5        1.0  0.35932  0.51039  0.25322  1.0000
  N   N6        1.0  0.64068  0.48960  0.74678  1.0000
  N   N7        1.0  0.14289  0.61265  0.10082  1.0000
  N   N8        1.0  0.85711  0.38734  0.89918  1.0000
  O   O1        1.0  0.05049  0.64723  0.51460  1.0000
  O   O2        1.0  0.94951  0.35277  0.48540  1.0000
  O   O3        1.0  0.40886  0.21328  0.91812  1.0000
  O   O4        1.0  0.59113  0.78671  0.08188  1.0000
  O   O5        1.0  0.41718  0.96136  0.14438  1.0000
  O   O6        1.0  0.58284  0.03863  0.85561  1.0000
  O   O7        1.0  0.14937  0.65335  0.35219  1.0000
  O   O8        1.0  0.85063  0.34666  0.64781  1.0000
  O   O9        1.0  0.46933  0.11269  0.19876  1.0000
  O   O10       1.0  0.53068  0.88731  0.80123  1.0000
  O   O11       1.0  0.60736  0.42838  0.21776  1.0000
  O   O12       1.0  0.39264  0.57162  0.78224  1.0000
  O   O13       1.0  0.89261  0.69494  0.12217  1.0000
  O   O14       1.0  0.10740  0.30506  0.87783  1.0000
