data_image0
_chemical_formula_structural       Ni2H56C54N8O14
_chemical_formula_sum              "Ni2 H56 C54 N8 O14"
_cell_length_a       9.56015
_cell_length_b       12.1041
_cell_length_c       12.2637
_cell_angle_alpha    102.138
_cell_angle_beta     92.6863
_cell_angle_gamma    88.8117

_space_group_name_H-M_alt    "P 1"
_space_group_IT_number       1

loop_
  _space_group_symop_operation_xyz
  'x, y, z'

loop_
  _atom_site_type_symbol
  _atom_site_label
  _atom_site_symmetry_multiplicity
  _atom_site_fract_x
  _atom_site_fract_y
  _atom_site_fract_z
  _atom_site_occupancy
  Ni  Ni1       1.0  0.16774  0.36594  0.58945  1.0000
  Ni  Ni2       1.0  0.83225  0.63404  0.41054  1.0000
  H   H1        1.0  0.37023  0.25846  0.71091  1.0000
  H   H2        1.0  0.62973  0.74154  0.28909  1.0000
  H   H3        1.0  0.21704  0.56615  0.64343  1.0000
  H   H4        1.0  0.78297  0.43381  0.35658  1.0000
  H   H5        1.0  0.14465  0.56212  0.51768  1.0000
  H   H6        1.0  0.85531  0.43782  0.48229  1.0000
  H   H7        1.0  0.37254  0.09218  0.80327  1.0000
  H   H8        1.0  0.62744  0.90785  0.19675  1.0000
  H   H9        1.0  0.25376  0.01757  0.92046  1.0000
  H   H10       1.0  0.74624  0.98244  0.07953  1.0000
  H   H11       1.0  0.41180  0.72574  0.82598  1.0000
  H   H12       1.0  0.58818  0.27427  0.17401  1.0000
  H   H13       1.0  0.98413  0.98844  0.62104  1.0000
  H   H14       1.0  0.01590  0.01156  0.37895  1.0000
  H   H15       1.0  0.99221  0.16498  0.54210  1.0000
  H   H16       1.0  0.00776  0.83499  0.45786  1.0000
  H   H17       1.0  0.18245  0.77528  0.88582  1.0000
  H   H18       1.0  0.81754  0.22472  0.11418  1.0000
  H   H19       1.0  0.14719  0.96943  0.08844  1.0000
  H   H20       1.0  0.85280  0.03057  0.91154  1.0000
  H   H21       1.0  0.01276  0.88891  0.00650  1.0000
  H   H22       1.0  0.98724  0.11109  0.99347  1.0000
  H   H23       1.0  0.06218  0.82601  0.18755  1.0000
  H   H24       1.0  0.93781  0.17399  0.81244  1.0000
  H   H25       1.0  0.09819  0.71600  0.07296  1.0000
  H   H26       1.0  0.90178  0.28400  0.92702  1.0000
  H   H27       1.0  0.29351  0.73261  0.21835  1.0000
  H   H28       1.0  0.70646  0.26740  0.78164  1.0000
  H   H29       1.0  0.31843  0.87519  0.20953  1.0000
  H   H30       1.0  0.68155  0.12482  0.79048  1.0000
  H   H31       1.0  0.34289  0.66825  0.01777  1.0000
  H   H32       1.0  0.65710  0.33177  0.98222  1.0000
  H   H33       1.0  0.48784  0.74242  0.09132  1.0000
  H   H34       1.0  0.51214  0.25760  0.90869  1.0000
  H   H35       1.0  0.41526  0.91554  0.02650  1.0000
  H   H36       1.0  0.58472  0.08447  0.97350  1.0000
  H   H37       1.0  0.44824  0.77687  0.66908  1.0000
  H   H38       1.0  0.55178  0.22315  0.33094  1.0000
  H   H39       1.0  0.55451  0.69672  0.48675  1.0000
  H   H40       1.0  0.44551  0.30328  0.51327  1.0000
  H   H41       1.0  0.94984  0.68247  0.63836  1.0000
  H   H42       1.0  0.05017  0.31751  0.36165  1.0000
  H   H43       1.0  0.86072  0.76440  0.82681  1.0000
  H   H44       1.0  0.13932  0.23560  0.17321  1.0000
  H   H45       1.0  0.51442  0.58680  0.94339  1.0000
  H   H46       1.0  0.48559  0.41322  0.05661  1.0000
  H   H47       1.0  0.66650  0.62532  0.10143  1.0000
  H   H48       1.0  0.33351  0.37471  0.89857  1.0000
  H   H49       1.0  0.83058  0.67592  0.07252  1.0000
  H   H50       1.0  0.16943  0.32413  0.92748  1.0000
  H   H51       1.0  0.81855  0.54039  0.10253  1.0000
  H   H52       1.0  0.18148  0.45965  0.89745  1.0000
  H   H53       1.0  0.95213  0.50766  0.90056  1.0000
  H   H54       1.0  0.04788  0.49233  0.09945  1.0000
  H   H55       1.0  0.65762  0.42374  0.62156  1.0000
  H   H56       1.0  0.34237  0.57626  0.37845  1.0000
  C   C1        1.0  0.28684  0.19627  0.69457  1.0000
  C   C2        1.0  0.71312  0.80375  0.30544  1.0000
  C   C3        1.0  0.28650  0.10365  0.74499  1.0000
  C   C4        1.0  0.71348  0.89638  0.25503  1.0000
  C   C5        1.0  0.17568  0.02764  0.72040  1.0000
  C   C6        1.0  0.82433  0.97235  0.27959  1.0000
  C   C7        1.0  0.07066  0.04718  0.64310  1.0000
  C   C8        1.0  0.92936  0.95283  0.35687  1.0000
  C   C9        1.0  0.07545  0.14304  0.59790  1.0000
  C   C10       1.0  0.92453  0.85696  0.40206  1.0000
  C   C11       1.0  0.16602  0.92584  0.77192  1.0000
  C   C12       1.0  0.83399  0.07416  0.22807  1.0000
  C   C13       1.0  0.21904  0.85293  0.94328  1.0000
  C   C14       1.0  0.78096  0.14708  0.05670  1.0000
  C   C15       1.0  0.12057  0.88407  0.04081  1.0000
  C   C16       1.0  0.87942  0.11594  0.95917  1.0000
  C   C17       1.0  0.13257  0.80034  0.11825  1.0000
  C   C18       1.0  0.86741  0.19967  0.88173  1.0000
  C   C19       1.0  0.28407  0.79169  0.16160  1.0000
  C   C20       1.0  0.71592  0.20832  0.83839  1.0000
  C   C21       1.0  0.37815  0.75209  0.06340  1.0000
  C   C22       1.0  0.62184  0.24792  0.93660  1.0000
  C   C23       1.0  0.37168  0.83370  0.98310  1.0000
  C   C24       1.0  0.62831  0.16630  0.01689  1.0000
  C   C25       1.0  0.58770  0.82049  0.87703  1.0000
  C   C26       1.0  0.41230  0.17951  0.12297  1.0000
  C   C27       1.0  0.64615  0.77505  0.76431  1.0000
  C   C28       1.0  0.35388  0.22495  0.23571  1.0000
  C   C29       1.0  0.55997  0.75749  0.66665  1.0000
  C   C30       1.0  0.44005  0.24253  0.33338  1.0000
  C   C31       1.0  0.61746  0.71339  0.56466  1.0000
  C   C32       1.0  0.38255  0.28661  0.43537  1.0000
  C   C33       1.0  0.83952  0.70461  0.64898  1.0000
  C   C34       1.0  0.16049  0.29538  0.35104  1.0000
  C   C35       1.0  0.78891  0.75018  0.75381  1.0000
  C   C36       1.0  0.21111  0.24982  0.24622  1.0000
  C   C37       1.0  0.42388  0.50612  0.72681  1.0000
  C   C38       1.0  0.57616  0.49390  0.27319  1.0000
  C   C39       1.0  0.57028  0.50856  0.77710  1.0000
  C   C40       1.0  0.42975  0.49145  0.22291  1.0000
  C   C41       1.0  0.59979  0.55271  0.89038  1.0000
  C   C42       1.0  0.40023  0.44728  0.10964  1.0000
  C   C43       1.0  0.73619  0.55275  0.93729  1.0000
  C   C44       1.0  0.26383  0.44726  0.06271  1.0000
  C   C45       1.0  0.76433  0.60063  0.05926  1.0000
  C   C46       1.0  0.23568  0.39942  0.94074  1.0000
  C   C47       1.0  0.84426  0.50786  0.86749  1.0000
  C   C48       1.0  0.15575  0.49213  0.13253  1.0000
  C   C49       1.0  0.81571  0.46150  0.75422  1.0000
  C   C50       1.0  0.18430  0.53849  0.24579  1.0000
  C   C51       1.0  0.67861  0.46133  0.70941  1.0000
  C   C52       1.0  0.32140  0.53867  0.29060  1.0000
  C   C53       1.0  0.92829  0.40956  0.67915  1.0000
  C   C54       1.0  0.07169  0.59040  0.32084  1.0000
  N   N1        1.0  0.18151  0.21728  0.62436  1.0000
  N   N2        1.0  0.81847  0.78271  0.37561  1.0000
  N   N3        1.0  0.75475  0.68588  0.55586  1.0000
  N   N4        1.0  0.24526  0.31410  0.44416  1.0000
  N   N5        1.0  0.21608  0.94099  0.87878  1.0000
  N   N6        1.0  0.78393  0.05902  0.12121  1.0000
  N   N7        1.0  0.45330  0.79334  0.88497  1.0000
  N   N8        1.0  0.54670  0.20666  0.11504  1.0000
  O   O1        1.0  0.38673  0.41181  0.66723  1.0000
  O   O2        1.0  0.61335  0.58821  0.33278  1.0000
  O   O3        1.0  0.14613  0.52775  0.58523  1.0000
  O   O4        1.0  0.85387  0.47217  0.41477  1.0000
  O   O5        1.0  0.05435  0.41058  0.72122  1.0000
  O   O6        1.0  0.94565  0.58938  0.27873  1.0000
  O   O7        1.0  0.89825  0.36598  0.57755  1.0000
  O   O8        1.0  0.10168  0.63395  0.42245  1.0000
  O   O9        1.0  0.34782  0.59569  0.74452  1.0000
  O   O10       1.0  0.65220  0.40432  0.25547  1.0000
  O   O11       1.0  0.11408  0.83684  0.71698  1.0000
  O   O12       1.0  0.88591  0.16317  0.28302  1.0000
  O   O13       1.0  0.66092  0.88013  0.95376  1.0000
  O   O14       1.0  0.33910  0.11984  0.04627  1.0000
