data_image0
_chemical_formula_structural       Hg4H44C32S4N8Cl4O12
_chemical_formula_sum              "Hg4 H44 C32 S4 N8 Cl4 O12"
_cell_length_a       7.05029
_cell_length_b       7.3475
_cell_length_c       23.6987
_cell_angle_alpha    89.9999
_cell_angle_beta     90.0003
_cell_angle_gamma    110.652

_space_group_name_H-M_alt    "P 1"
_space_group_IT_number       1

loop_
  _space_group_symop_operation_xyz
  'x, y, z'

loop_
  _atom_site_type_symbol
  _atom_site_label
  _atom_site_symmetry_multiplicity
  _atom_site_fract_x
  _atom_site_fract_y
  _atom_site_fract_z
  _atom_site_occupancy
  Hg  Hg1       1.0  0.06340  0.19771  0.13654  1.0000
  Hg  Hg2       1.0  0.43661  0.30230  0.63654  1.0000
  Hg  Hg3       1.0  0.93660  0.80230  0.86346  1.0000
  Hg  Hg4       1.0  0.56339  0.69770  0.36346  1.0000
  H   H1        1.0  0.14641  0.48228  0.21716  1.0000
  H   H2        1.0  0.35360  0.01773  0.71715  1.0000
  H   H3        1.0  0.85359  0.51773  0.78285  1.0000
  H   H4        1.0  0.64640  0.98227  0.28285  1.0000
  H   H5        1.0  0.16940  0.24911  0.99432  1.0000
  H   H6        1.0  0.33061  0.25090  0.49432  1.0000
  H   H7        1.0  0.83061  0.75088  0.00568  1.0000
  H   H8        1.0  0.66940  0.74911  0.50568  1.0000
  H   H9        1.0  0.28292  0.52309  0.92432  1.0000
  H   H10       1.0  0.21708  0.97692  0.42432  1.0000
  H   H11       1.0  0.71708  0.47690  0.07568  1.0000
  H   H12       1.0  0.78292  0.02308  0.57568  1.0000
  H   H13       1.0  0.36717  0.86235  0.95897  1.0000
  H   H14       1.0  0.13283  0.63766  0.45897  1.0000
  H   H15       1.0  0.63282  0.13765  0.04103  1.0000
  H   H16       1.0  0.86717  0.36234  0.54103  1.0000
  H   H17       1.0  0.34000  0.91914  0.06385  1.0000
  H   H18       1.0  0.16000  0.58087  0.56385  1.0000
  H   H19       1.0  0.65999  0.08086  0.93614  1.0000
  H   H20       1.0  0.84000  0.41913  0.43615  1.0000
  H   H21       1.0  0.30437  0.78096  0.15906  1.0000
  H   H22       1.0  0.19563  0.71904  0.65906  1.0000
  H   H23       1.0  0.69563  0.21904  0.84094  1.0000
  H   H24       1.0  0.80437  0.28096  0.34094  1.0000
  H   H25       1.0  0.04577  0.63304  0.14977  1.0000
  H   H26       1.0  0.45423  0.86696  0.64977  1.0000
  H   H27       1.0  0.95423  0.36696  0.85023  1.0000
  H   H28       1.0  0.54577  0.13304  0.35023  1.0000
  H   H29       1.0  0.49122  0.66206  0.22017  1.0000
  H   H30       1.0  0.00880  0.83794  0.72017  1.0000
  H   H31       1.0  0.50879  0.33794  0.77983  1.0000
  H   H32       1.0  0.99121  0.16206  0.27983  1.0000
  H   H33       1.0  0.53311  0.55597  0.15696  1.0000
  H   H34       1.0  0.96689  0.94403  0.65696  1.0000
  H   H35       1.0  0.46689  0.44404  0.84304  1.0000
  H   H36       1.0  0.03311  0.05597  0.34303  1.0000
  H   H37       1.0  0.34283  0.27798  0.25399  1.0000
  H   H38       1.0  0.15718  0.22202  0.75399  1.0000
  H   H39       1.0  0.65718  0.72202  0.74601  1.0000
  H   H40       1.0  0.84282  0.77798  0.24601  1.0000
  H   H41       1.0  0.60265  0.42260  0.25945  1.0000
  H   H42       1.0  0.89735  0.07739  0.75945  1.0000
  H   H43       1.0  0.39735  0.57740  0.74054  1.0000
  H   H44       1.0  0.10264  0.92260  0.24054  1.0000
  C   C1        1.0  0.20919  0.40010  0.00764  1.0000
  C   C2        1.0  0.29081  0.09991  0.50764  1.0000
  C   C3        1.0  0.79081  0.59990  0.99237  1.0000
  C   C4        1.0  0.70919  0.90009  0.49236  1.0000
  C   C5        1.0  0.27292  0.55191  0.96903  1.0000
  C   C6        1.0  0.22708  0.94810  0.46903  1.0000
  C   C7        1.0  0.72708  0.44808  0.03097  1.0000
  C   C8        1.0  0.77292  0.05191  0.53097  1.0000
  C   C9        1.0  0.31991  0.74180  0.98876  1.0000
  C   C10       1.0  0.18008  0.75821  0.48876  1.0000
  C   C11       1.0  0.68008  0.25820  0.01123  1.0000
  C   C12       1.0  0.81991  0.24180  0.51123  1.0000
  C   C13       1.0  0.30424  0.77396  0.04622  1.0000
  C   C14       1.0  0.19576  0.72605  0.54622  1.0000
  C   C15       1.0  0.69575  0.22604  0.95378  1.0000
  C   C16       1.0  0.80424  0.27396  0.45377  1.0000
  C   C17       1.0  0.23826  0.61386  0.08246  1.0000
  C   C18       1.0  0.26174  0.88615  0.58245  1.0000
  C   C19       1.0  0.76173  0.38615  0.91755  1.0000
  C   C20       1.0  0.73827  0.11385  0.41755  1.0000
  C   C21       1.0  0.20254  0.63778  0.14442  1.0000
  C   C22       1.0  0.29747  0.86223  0.64442  1.0000
  C   C23       1.0  0.79746  0.36222  0.85558  1.0000
  C   C24       1.0  0.70254  0.13778  0.35558  1.0000
  C   C25       1.0  0.44214  0.52573  0.19574  1.0000
  C   C26       1.0  0.05787  0.97427  0.69574  1.0000
  C   C27       1.0  0.55787  0.47427  0.80426  1.0000
  C   C28       1.0  0.94213  0.02573  0.30426  1.0000
  C   C29       1.0  0.47688  0.36355  0.22950  1.0000
  C   C30       1.0  0.02312  0.13645  0.72950  1.0000
  C   C31       1.0  0.52312  0.63645  0.77050  1.0000
  C   C32       1.0  0.97688  0.86355  0.27049  1.0000
  S   S1        1.0  0.55360  0.20079  0.18561  1.0000
  S   S2        1.0  0.94640  0.29921  0.68561  1.0000
  S   S3        1.0  0.44640  0.79921  0.81439  1.0000
  S   S4        1.0  0.05360  0.70079  0.31439  1.0000
  N   N1        1.0  0.19165  0.43212  0.06286  1.0000
  N   N2        1.0  0.30835  0.06789  0.56286  1.0000
  N   N3        1.0  0.80835  0.56788  0.93714  1.0000
  N   N4        1.0  0.69165  0.93211  0.43714  1.0000
  N   N5        1.0  0.22685  0.48277  0.18039  1.0000
  N   N6        1.0  0.27315  0.01724  0.68039  1.0000
  N   N7        1.0  0.77315  0.51724  0.81961  1.0000
  N   N8        1.0  0.72685  0.98277  0.31961  1.0000
  Cl  Cl1       1.0  0.84767  0.87900  0.11561  1.0000
  Cl  Cl2       1.0  0.65232  0.62101  0.61561  1.0000
  Cl  Cl3       1.0  0.15232  0.12100  0.88439  1.0000
  Cl  Cl4       1.0  0.34768  0.37899  0.38439  1.0000
  O   O1        1.0  0.41286  0.14718  0.13713  1.0000
  O   O2        1.0  0.08714  0.35282  0.63714  1.0000
  O   O3        1.0  0.58714  0.85282  0.86287  1.0000
  O   O4        1.0  0.91286  0.64718  0.36286  1.0000
  O   O5        1.0  0.53729  0.03139  0.22101  1.0000
  O   O6        1.0  0.96269  0.46860  0.72101  1.0000
  O   O7        1.0  0.46271  0.96861  0.77899  1.0000
  O   O8        1.0  0.03730  0.53140  0.27899  1.0000
  O   O9        1.0  0.76149  0.31780  0.16848  1.0000
  O   O10       1.0  0.73851  0.18219  0.66848  1.0000
  O   O11       1.0  0.23851  0.68220  0.83151  1.0000
  O   O12       1.0  0.26149  0.81780  0.33151  1.0000
