data_image0
_chemical_formula_structural       Cd2H52C54N8O12
_chemical_formula_sum              "Cd2 H52 C54 N8 O12"
_cell_length_a       10.2314
_cell_length_b       10.5642
_cell_length_c       13.2881
_cell_angle_alpha    106.4
_cell_angle_beta     97.2235
_cell_angle_gamma    106.048

_space_group_name_H-M_alt    "P 1"
_space_group_IT_number       1

loop_
  _space_group_symop_operation_xyz
  'x, y, z'

loop_
  _atom_site_type_symbol
  _atom_site_label
  _atom_site_symmetry_multiplicity
  _atom_site_fract_x
  _atom_site_fract_y
  _atom_site_fract_z
  _atom_site_occupancy
  Cd  Cd1       1.0  0.91269  0.14343  0.06088  1.0000
  Cd  Cd2       1.0  0.08731  0.85658  0.93912  1.0000
  H   H1        1.0  0.05986  0.97208  0.18978  1.0000
  H   H2        1.0  0.94014  0.02791  0.81022  1.0000
  H   H3        1.0  0.00670  0.85572  0.32920  1.0000
  H   H4        1.0  0.99330  0.14427  0.67081  1.0000
  H   H5        1.0  0.69384  0.99503  0.49899  1.0000
  H   H6        1.0  0.30617  0.00497  0.50101  1.0000
  H   H7        1.0  0.73863  0.14200  0.79107  1.0000
  H   H8        1.0  0.26137  0.85801  0.20894  1.0000
  H   H9        1.0  0.69607  0.05826  0.38096  1.0000
  H   H10       1.0  0.30393  0.94173  0.61904  1.0000
  H   H11       1.0  0.75453  0.15591  0.23785  1.0000
  H   H12       1.0  0.24547  0.84408  0.76215  1.0000
  H   H13       1.0  0.78248  0.86986  0.64632  1.0000
  H   H14       1.0  0.21752  0.13014  0.35368  1.0000
  H   H15       1.0  0.64952  0.64953  0.50450  1.0000
  H   H16       1.0  0.35048  0.35047  0.49550  1.0000
  H   H17       1.0  0.50119  0.70509  0.49015  1.0000
  H   H18       1.0  0.49882  0.29491  0.50985  1.0000
  H   H19       1.0  0.47412  0.55058  0.60377  1.0000
  H   H20       1.0  0.52588  0.44942  0.39623  1.0000
  H   H21       1.0  0.63306  0.66153  0.69370  1.0000
  H   H22       1.0  0.36694  0.33847  0.30629  1.0000
  H   H23       1.0  0.43211  0.71706  0.76459  1.0000
  H   H24       1.0  0.56790  0.28294  0.23541  1.0000
  H   H25       1.0  0.37287  0.74252  0.64333  1.0000
  H   H26       1.0  0.62713  0.25748  0.35666  1.0000
  H   H27       1.0  0.50654  0.97054  0.78818  1.0000
  H   H28       1.0  0.49347  0.02946  0.21182  1.0000
  H   H29       1.0  0.65182  0.91285  0.80554  1.0000
  H   H30       1.0  0.34818  0.08715  0.19446  1.0000
  H   H31       1.0  0.52677  0.95800  0.60091  1.0000
  H   H32       1.0  0.47323  0.04200  0.39909  1.0000
  H   H33       1.0  0.93981  0.30107  0.84361  1.0000
  H   H34       1.0  0.06020  0.69893  0.15639  1.0000
  H   H35       1.0  0.08850  0.54817  0.92882  1.0000
  H   H36       1.0  0.91151  0.45183  0.07118  1.0000
  H   H37       1.0  0.89701  0.66853  0.69539  1.0000
  H   H38       1.0  0.10299  0.33148  0.30461  1.0000
  H   H39       1.0  0.73589  0.42275  0.59855  1.0000
  H   H40       1.0  0.26412  0.57725  0.40145  1.0000
  H   H41       1.0  0.41938  0.12571  0.04485  1.0000
  H   H42       1.0  0.58061  0.87429  0.95514  1.0000
  H   H43       1.0  0.64798  0.34702  0.86208  1.0000
  H   H44       1.0  0.35202  0.65298  0.13792  1.0000
  H   H45       1.0  0.23186  0.35096  0.88089  1.0000
  H   H46       1.0  0.76813  0.64905  0.11911  1.0000
  H   H47       1.0  0.35234  0.47009  0.77312  1.0000
  H   H48       1.0  0.64766  0.52992  0.22688  1.0000
  H   H49       1.0  0.46748  0.39115  0.71138  1.0000
  H   H50       1.0  0.53252  0.60885  0.28863  1.0000
  H   H51       1.0  0.53563  0.54469  0.82555  1.0000
  H   H52       1.0  0.46436  0.45531  0.17445  1.0000
  C   C1        1.0  0.97971  0.98677  0.23424  1.0000
  C   C2        1.0  0.02029  0.01323  0.76576  1.0000
  C   C3        1.0  0.95030  0.92286  0.31081  1.0000
  C   C4        1.0  0.04970  0.07714  0.68919  1.0000
  C   C5        1.0  0.84697  0.94599  0.36592  1.0000
  C   C6        1.0  0.15302  0.05400  0.63408  1.0000
  C   C7        1.0  0.77638  0.03296  0.34069  1.0000
  C   C8        1.0  0.22362  0.96704  0.65931  1.0000
  C   C9        1.0  0.80968  0.09081  0.26187  1.0000
  C   C10       1.0  0.19033  0.90918  0.73814  1.0000
  C   C11       1.0  0.81808  0.87595  0.44914  1.0000
  C   C12       1.0  0.18191  0.12404  0.55086  1.0000
  C   C13       1.0  0.68746  0.86410  0.59322  1.0000
  C   C14       1.0  0.31255  0.13590  0.40678  1.0000
  C   C15       1.0  0.59170  0.71165  0.54831  1.0000
  C   C16       1.0  0.40831  0.28835  0.45168  1.0000
  C   C17       1.0  0.54272  0.65969  0.63768  1.0000
  C   C18       1.0  0.45728  0.34031  0.36231  1.0000
  C   C19       1.0  0.46724  0.75175  0.69909  1.0000
  C   C20       1.0  0.53276  0.24825  0.30091  1.0000
  C   C21       1.0  0.56182  0.90407  0.74564  1.0000
  C   C22       1.0  0.43818  0.09593  0.25436  1.0000
  C   C23       1.0  0.61506  0.95892  0.65837  1.0000
  C   C24       1.0  0.38494  0.04108  0.34162  1.0000
  C   C25       1.0  0.72472  0.19639  0.65416  1.0000
  C   C26       1.0  0.27528  0.80361  0.34584  1.0000
  C   C27       1.0  0.82148  0.34225  0.71424  1.0000
  C   C28       1.0  0.17852  0.65775  0.28576  1.0000
  C   C29       1.0  0.92419  0.37747  0.80713  1.0000
  C   C30       1.0  0.07582  0.62253  0.19286  1.0000
  C   C31       1.0  0.00910  0.51619  0.85526  1.0000
  C   C32       1.0  0.99090  0.48381  0.14474  1.0000
  C   C33       1.0  0.90163  0.58346  0.72551  1.0000
  C   C34       1.0  0.09837  0.41654  0.27448  1.0000
  C   C35       1.0  0.81225  0.44774  0.67219  1.0000
  C   C36       1.0  0.18775  0.55226  0.32781  1.0000
  C   C37       1.0  0.18015  0.18882  0.00406  1.0000
  C   C38       1.0  0.81985  0.81118  0.99595  1.0000
  C   C39       1.0  0.31203  0.23416  0.96695  1.0000
  C   C40       1.0  0.68797  0.76584  0.03305  1.0000
  C   C41       1.0  0.42512  0.19175  0.99491  1.0000
  C   C42       1.0  0.57488  0.80825  0.00509  1.0000
  C   C43       1.0  0.54625  0.23331  0.95717  1.0000
  C   C44       1.0  0.45375  0.76669  0.04283  1.0000
  C   C45       1.0  0.66926  0.19251  0.99024  1.0000
  C   C46       1.0  0.33074  0.80750  0.00976  1.0000
  C   C47       1.0  0.55253  0.31523  0.89040  1.0000
  C   C48       1.0  0.44746  0.68478  0.10960  1.0000
  C   C49       1.0  0.44002  0.35840  0.86125  1.0000
  C   C50       1.0  0.55997  0.64160  0.13876  1.0000
  C   C51       1.0  0.32093  0.31814  0.90113  1.0000
  C   C52       1.0  0.67907  0.68187  0.09888  1.0000
  C   C53       1.0  0.44880  0.44576  0.78909  1.0000
  C   C54       1.0  0.55119  0.55424  0.21091  1.0000
  N   N1        1.0  0.90949  0.06822  0.20908  1.0000
  N   N2        1.0  0.09051  0.93177  0.79092  1.0000
  N   N3        1.0  0.99765  0.61787  0.81621  1.0000
  N   N4        1.0  0.00236  0.38213  0.18379  1.0000
  N   N5        1.0  0.72847  0.91569  0.50745  1.0000
  N   N6        1.0  0.27153  0.08431  0.49255  1.0000
  N   N7        1.0  0.70778  0.10426  0.70785  1.0000
  N   N8        1.0  0.29222  0.89574  0.29214  1.0000
  O   O1        1.0  0.08584  0.24151  0.98413  1.0000
  O   O2        1.0  0.91416  0.75848  0.01587  1.0000
  O   O3        1.0  0.16361  0.09811  0.05278  1.0000
  O   O4        1.0  0.83640  0.90189  0.94723  1.0000
  O   O5        1.0  0.67647  0.15148  0.07099  1.0000
  O   O6        1.0  0.32352  0.84853  0.92902  1.0000
  O   O7        1.0  0.76666  0.20287  0.93706  1.0000
  O   O8        1.0  0.23334  0.79712  0.06295  1.0000
  O   O9        1.0  0.87443  0.78926  0.46095  1.0000
  O   O10       1.0  0.12555  0.21072  0.53905  1.0000
  O   O11       1.0  0.66712  0.16564  0.55733  1.0000
  O   O12       1.0  0.33287  0.83436  0.44267  1.0000
