data_image0
_chemical_formula_structural       Zn2H52C54N8O12
_chemical_formula_sum              "Zn2 H52 C54 N8 O12"
_cell_length_a       10.025
_cell_length_b       10.7293
_cell_length_c       13.2773
_cell_angle_alpha    106.771
_cell_angle_beta     95.7427
_cell_angle_gamma    107.854

_space_group_name_H-M_alt    "P 1"
_space_group_IT_number       1

loop_
  _space_group_symop_operation_xyz
  'x, y, z'

loop_
  _atom_site_type_symbol
  _atom_site_label
  _atom_site_symmetry_multiplicity
  _atom_site_fract_x
  _atom_site_fract_y
  _atom_site_fract_z
  _atom_site_occupancy
  Zn  Zn1       1.0  0.41160  0.15585  0.57122  1.0000
  Zn  Zn2       1.0  0.58840  0.84414  0.42878  1.0000
  H   H1        1.0  0.26748  0.17991  0.74553  1.0000
  H   H2        1.0  0.73252  0.82010  0.25447  1.0000
  H   H3        1.0  0.21284  0.08373  0.89057  1.0000
  H   H4        1.0  0.78716  0.91628  0.10943  1.0000
  H   H5        1.0  0.19045  0.99659  0.99368  1.0000
  H   H6        1.0  0.80955  0.00341  0.00632  1.0000
  H   H7        1.0  0.24661  0.14473  0.28769  1.0000
  H   H8        1.0  0.75339  0.85528  0.71231  1.0000
  H   H9        1.0  0.50155  0.86183  0.80886  1.0000
  H   H10       1.0  0.49845  0.13817  0.19114  1.0000
  H   H11       1.0  0.55361  0.97835  0.66836  1.0000
  H   H12       1.0  0.44639  0.02165  0.33164  1.0000
  H   H13       1.0  0.28940  0.87822  0.13871  1.0000
  H   H14       1.0  0.71060  0.12178  0.86129  1.0000
  H   H15       1.0  0.15277  0.65628  0.99863  1.0000
  H   H16       1.0  0.84723  0.34373  0.00137  1.0000
  H   H17       1.0  0.99908  0.70525  0.98801  1.0000
  H   H18       1.0  0.00092  0.29475  0.01199  1.0000
  H   H19       1.0  0.97651  0.55316  0.10223  1.0000
  H   H20       1.0  0.02349  0.44685  0.89778  1.0000
  H   H21       1.0  0.14009  0.66881  0.18949  1.0000
  H   H22       1.0  0.85992  0.33119  0.81051  1.0000
  H   H23       1.0  0.93422  0.71560  0.26498  1.0000
  H   H24       1.0  0.06578  0.28441  0.73502  1.0000
  H   H25       1.0  0.87011  0.73751  0.14447  1.0000
  H   H26       1.0  0.12989  0.26250  0.85553  1.0000
  H   H27       1.0  0.00521  0.96775  0.28700  1.0000
  H   H28       1.0  0.99479  0.03226  0.71300  1.0000
  H   H29       1.0  0.15631  0.91810  0.30346  1.0000
  H   H30       1.0  0.84370  0.08191  0.69653  1.0000
  H   H31       1.0  0.02552  0.95700  0.10025  1.0000
  H   H32       1.0  0.97447  0.04300  0.89974  1.0000
  H   H33       1.0  0.45408  0.30513  0.33352  1.0000
  H   H34       1.0  0.54591  0.69487  0.66648  1.0000
  H   H35       1.0  0.60264  0.55381  0.42236  1.0000
  H   H36       1.0  0.39735  0.44618  0.57764  1.0000
  H   H37       1.0  0.38706  0.67192  0.20516  1.0000
  H   H38       1.0  0.61294  0.32808  0.79484  1.0000
  H   H39       1.0  0.22806  0.42450  0.10440  1.0000
  H   H40       1.0  0.77195  0.57550  0.89560  1.0000
  H   H41       1.0  0.93278  0.10903  0.54266  1.0000
  H   H42       1.0  0.06722  0.89096  0.45734  1.0000
  H   H43       1.0  0.72603  0.33333  0.40178  1.0000
  H   H44       1.0  0.27397  0.66666  0.59823  1.0000
  H   H45       1.0  0.15387  0.35536  0.36542  1.0000
  H   H46       1.0  0.84613  0.64464  0.63458  1.0000
  H   H47       1.0  0.83946  0.46326  0.29497  1.0000
  H   H48       1.0  0.16054  0.53675  0.70503  1.0000
  H   H49       1.0  0.95939  0.39769  0.22576  1.0000
  H   H50       1.0  0.04061  0.60232  0.77424  1.0000
  H   H51       1.0  0.02765  0.54650  0.34357  1.0000
  H   H52       1.0  0.97235  0.45350  0.65644  1.0000
  C   C1        1.0  0.31817  0.10988  0.76284  1.0000
  C   C2        1.0  0.68183  0.89012  0.23716  1.0000
  C   C3        1.0  0.28612  0.05234  0.84239  1.0000
  C   C4        1.0  0.71388  0.94766  0.15761  1.0000
  C   C5        1.0  0.35084  0.95949  0.85916  1.0000
  C   C6        1.0  0.64916  0.04052  0.14084  1.0000
  C   C7        1.0  0.44834  0.93195  0.79591  1.0000
  C   C8        1.0  0.55166  0.06805  0.20409  1.0000
  C   C9        1.0  0.47760  0.99569  0.71914  1.0000
  C   C10       1.0  0.52240  0.00431  0.28087  1.0000
  C   C11       1.0  0.32273  0.88812  0.94176  1.0000
  C   C12       1.0  0.67727  0.11187  0.05823  1.0000
  C   C13       1.0  0.19038  0.86894  0.08805  1.0000
  C   C14       1.0  0.80962  0.13106  0.91195  1.0000
  C   C15       1.0  0.09338  0.71543  0.04437  1.0000
  C   C16       1.0  0.90661  0.28457  0.95563  1.0000
  C   C17       1.0  0.04605  0.66316  0.13506  1.0000
  C   C18       1.0  0.95395  0.33684  0.86494  1.0000
  C   C19       1.0  0.96823  0.75096  0.19869  1.0000
  C   C20       1.0  0.03177  0.24904  0.80131  1.0000
  C   C21       1.0  0.06338  0.90461  0.24403  1.0000
  C   C22       1.0  0.93663  0.09539  0.75597  1.0000
  C   C23       1.0  0.11670  0.96016  0.15592  1.0000
  C   C24       1.0  0.88330  0.03984  0.84408  1.0000
  C   C25       1.0  0.22685  0.19785  0.15176  1.0000
  C   C26       1.0  0.77315  0.80215  0.84824  1.0000
  C   C27       1.0  0.32521  0.34462  0.21197  1.0000
  C   C28       1.0  0.67478  0.65538  0.78803  1.0000
  C   C29       1.0  0.43449  0.38153  0.30105  1.0000
  C   C30       1.0  0.56551  0.61847  0.69895  1.0000
  C   C31       1.0  0.51879  0.52114  0.35128  1.0000
  C   C32       1.0  0.48120  0.47886  0.64872  1.0000
  C   C33       1.0  0.39796  0.58688  0.23062  1.0000
  C   C34       1.0  0.60204  0.41312  0.76937  1.0000
  C   C35       1.0  0.30939  0.45016  0.17526  1.0000
  C   C36       1.0  0.69061  0.54985  0.82474  1.0000
  C   C37       1.0  0.18904  0.19973  0.48539  1.0000
  C   C38       1.0  0.81096  0.80027  0.51461  1.0000
  C   C39       1.0  0.05731  0.23083  0.45789  1.0000
  C   C40       1.0  0.94269  0.76917  0.54211  1.0000
  C   C41       1.0  0.93495  0.17845  0.49681  1.0000
  C   C42       1.0  0.06505  0.82154  0.50319  1.0000
  C   C43       1.0  0.81552  0.21514  0.47585  1.0000
  C   C44       1.0  0.18448  0.78485  0.52416  1.0000
  C   C45       1.0  0.68331  0.15821  0.51603  1.0000
  C   C46       1.0  0.31670  0.84178  0.48398  1.0000
  C   C47       1.0  0.81941  0.30417  0.41585  1.0000
  C   C48       1.0  0.18059  0.69582  0.58415  1.0000
  C   C49       1.0  0.93875  0.35357  0.37317  1.0000
  C   C50       1.0  0.06125  0.64643  0.62683  1.0000
  C   C51       1.0  0.05763  0.31596  0.39532  1.0000
  C   C52       1.0  0.94237  0.68404  0.60468  1.0000
  C   C53       1.0  0.94097  0.44510  0.30591  1.0000
  C   C54       1.0  0.05903  0.55490  0.69410  1.0000
  N   N1        1.0  0.41181  0.08211  0.70159  1.0000
  N   N2        1.0  0.58819  0.91789  0.29841  1.0000
  N   N3        1.0  0.50041  0.62274  0.31791  1.0000
  N   N4        1.0  0.49959  0.37726  0.68209  1.0000
  N   N5        1.0  0.22923  0.92127  0.00135  1.0000
  N   N6        1.0  0.77077  0.07873  0.99865  1.0000
  N   N7        1.0  0.21220  0.10608  0.20457  1.0000
  N   N8        1.0  0.78780  0.89392  0.79542  1.0000
  O   O1        1.0  0.28619  0.21558  0.43025  1.0000
  O   O2        1.0  0.71380  0.78441  0.56974  1.0000
  O   O3        1.0  0.20372  0.16169  0.56747  1.0000
  O   O4        1.0  0.79628  0.83830  0.43252  1.0000
  O   O5        1.0  0.66726  0.05378  0.54704  1.0000
  O   O6        1.0  0.33274  0.94621  0.45296  1.0000
  O   O7        1.0  0.59160  0.21907  0.51546  1.0000
  O   O8        1.0  0.40840  0.78093  0.48454  1.0000
  O   O9        1.0  0.38296  0.80556  0.95178  1.0000
  O   O10       1.0  0.61703  0.19444  0.04822  1.0000
  O   O11       1.0  0.16499  0.16680  0.05625  1.0000
  O   O12       1.0  0.83501  0.83320  0.94374  1.0000
