data_image0
_chemical_formula_structural       Tb4H36C52N8O28
_chemical_formula_sum              "Tb4 H36 C52 N8 O28"
_cell_length_a       9.22187
_cell_length_b       10.5355
_cell_length_c       14.0987
_cell_angle_alpha    90
_cell_angle_beta     90.0001
_cell_angle_gamma    95.9305

_space_group_name_H-M_alt    "P 1"
_space_group_IT_number       1

loop_
  _space_group_symop_operation_xyz
  'x, y, z'

loop_
  _atom_site_type_symbol
  _atom_site_label
  _atom_site_symmetry_multiplicity
  _atom_site_fract_x
  _atom_site_fract_y
  _atom_site_fract_z
  _atom_site_occupancy
  Tb  Tb1       1.0  0.87551  0.52907  0.86457  1.0000
  Tb  Tb2       1.0  0.12449  0.97093  0.36457  1.0000
  Tb  Tb3       1.0  0.12449  0.47093  0.13543  1.0000
  Tb  Tb4       1.0  0.87551  0.02907  0.63543  1.0000
  H   H1        1.0  0.66649  0.12759  0.90434  1.0000
  H   H2        1.0  0.33351  0.37241  0.40434  1.0000
  H   H3        1.0  0.33351  0.87240  0.09566  1.0000
  H   H4        1.0  0.66649  0.62760  0.59566  1.0000
  H   H5        1.0  0.57339  0.89737  0.93854  1.0000
  H   H6        1.0  0.42661  0.60263  0.43854  1.0000
  H   H7        1.0  0.42662  0.10263  0.06146  1.0000
  H   H8        1.0  0.57339  0.39737  0.56146  1.0000
  H   H9        1.0  0.69985  0.78014  0.06078  1.0000
  H   H10       1.0  0.30015  0.71986  0.56078  1.0000
  H   H11       1.0  0.30015  0.21986  0.93922  1.0000
  H   H12       1.0  0.69985  0.28014  0.43922  1.0000
  H   H13       1.0  0.97968  0.10140  0.12791  1.0000
  H   H14       1.0  0.02032  0.39860  0.62791  1.0000
  H   H15       1.0  0.02032  0.89861  0.87209  1.0000
  H   H16       1.0  0.97968  0.60140  0.37209  1.0000
  H   H17       1.0  0.45348  0.22147  0.66573  1.0000
  H   H18       1.0  0.54652  0.27853  0.16573  1.0000
  H   H19       1.0  0.54651  0.77853  0.33427  1.0000
  H   H20       1.0  0.45349  0.72147  0.83427  1.0000
  H   H21       1.0  0.22674  0.29263  0.74172  1.0000
  H   H22       1.0  0.77326  0.20737  0.24172  1.0000
  H   H23       1.0  0.77326  0.70737  0.25828  1.0000
  H   H24       1.0  0.22674  0.79263  0.75828  1.0000
  H   H25       1.0  0.51157  0.53513  0.92399  1.0000
  H   H26       1.0  0.48843  0.96487  0.42399  1.0000
  H   H27       1.0  0.48843  0.46487  0.07601  1.0000
  H   H28       1.0  0.51157  0.03513  0.57601  1.0000
  H   H29       1.0  0.96488  0.73530  0.72854  1.0000
  H   H30       1.0  0.03512  0.76470  0.22854  1.0000
  H   H31       1.0  0.03512  0.26470  0.27146  1.0000
  H   H32       1.0  0.96488  0.23530  0.77146  1.0000
  H   H33       1.0  0.05616  0.62363  0.68382  1.0000
  H   H34       1.0  0.94384  0.87637  0.18382  1.0000
  H   H35       1.0  0.94384  0.37637  0.31618  1.0000
  H   H36       1.0  0.05616  0.12363  0.81618  1.0000
  C   C1        1.0  0.88804  0.26646  0.99624  1.0000
  C   C2        1.0  0.11195  0.23354  0.49624  1.0000
  C   C3        1.0  0.11195  0.73354  0.00376  1.0000
  C   C4        1.0  0.88804  0.76646  0.50376  1.0000
  C   C5        1.0  0.82946  0.13060  0.01379  1.0000
  C   C6        1.0  0.17054  0.36940  0.51379  1.0000
  C   C7        1.0  0.17054  0.86940  0.98621  1.0000
  C   C8        1.0  0.82946  0.63060  0.48621  1.0000
  C   C9        1.0  0.71403  0.07268  0.95969  1.0000
  C   C10       1.0  0.28597  0.42732  0.45969  1.0000
  C   C11       1.0  0.28597  0.92732  0.04031  1.0000
  C   C12       1.0  0.71403  0.57268  0.54031  1.0000
  C   C13       1.0  0.66412  0.94601  0.97792  1.0000
  C   C14       1.0  0.33588  0.55399  0.47792  1.0000
  C   C15       1.0  0.33588  0.05399  0.02208  1.0000
  C   C16       1.0  0.66412  0.44601  0.52208  1.0000
  C   C17       1.0  0.73359  0.88055  0.04745  1.0000
  C   C18       1.0  0.26641  0.61945  0.54745  1.0000
  C   C19       1.0  0.26641  0.11945  0.95255  1.0000
  C   C20       1.0  0.73359  0.38055  0.45254  1.0000
  C   C21       1.0  0.89010  0.05881  0.08396  1.0000
  C   C22       1.0  0.10990  0.44119  0.58396  1.0000
  C   C23       1.0  0.10990  0.94119  0.91604  1.0000
  C   C24       1.0  0.89010  0.55881  0.41604  1.0000
  C   C25       1.0  0.59662  0.34592  0.75286  1.0000
  C   C26       1.0  0.40338  0.15408  0.25286  1.0000
  C   C27       1.0  0.40338  0.65408  0.24714  1.0000
  C   C28       1.0  0.59662  0.84592  0.74714  1.0000
  C   C29       1.0  0.73694  0.30388  0.71463  1.0000
  C   C30       1.0  0.26306  0.19612  0.21463  1.0000
  C   C31       1.0  0.26306  0.69612  0.28537  1.0000
  C   C32       1.0  0.73694  0.80388  0.78537  1.0000
  C   C33       1.0  0.45979  0.29288  0.72179  1.0000
  C   C34       1.0  0.54021  0.20712  0.22179  1.0000
  C   C35       1.0  0.54021  0.70712  0.27821  1.0000
  C   C36       1.0  0.45979  0.79288  0.77821  1.0000
  C   C37       1.0  0.33535  0.33146  0.76440  1.0000
  C   C38       1.0  0.66465  0.16854  0.26440  1.0000
  C   C39       1.0  0.66465  0.66854  0.23560  1.0000
  C   C40       1.0  0.33535  0.83146  0.73560  1.0000
  C   C41       1.0  0.35220  0.41634  0.84098  1.0000
  C   C42       1.0  0.64780  0.08366  0.34098  1.0000
  C   C43       1.0  0.64780  0.58366  0.15902  1.0000
  C   C44       1.0  0.35220  0.91634  0.65902  1.0000
  C   C45       1.0  0.49338  0.46706  0.86592  1.0000
  C   C46       1.0  0.50662  0.03294  0.36592  1.0000
  C   C47       1.0  0.50662  0.53293  0.13408  1.0000
  C   C48       1.0  0.49338  0.96707  0.63408  1.0000
  C   C49       1.0  0.22387  0.44704  0.89964  1.0000
  C   C50       1.0  0.77613  0.05295  0.39964  1.0000
  C   C51       1.0  0.77613  0.55296  0.10036  1.0000
  C   C52       1.0  0.22387  0.94704  0.60036  1.0000
  N   N1        1.0  0.84419  0.93558  0.10010  1.0000
  N   N2        1.0  0.15581  0.56442  0.60010  1.0000
  N   N3        1.0  0.15581  0.06442  0.89990  1.0000
  N   N4        1.0  0.84419  0.43558  0.39990  1.0000
  N   N5        1.0  0.61258  0.43558  0.82135  1.0000
  N   N6        1.0  0.38742  0.06442  0.32135  1.0000
  N   N7        1.0  0.38742  0.56441  0.17865  1.0000
  N   N8        1.0  0.61258  0.93559  0.67865  1.0000
  O   O1        1.0  0.83607  0.32037  0.92554  1.0000
  O   O2        1.0  0.16392  0.17963  0.42554  1.0000
  O   O3        1.0  0.16392  0.67963  0.07446  1.0000
  O   O4        1.0  0.83608  0.82037  0.57446  1.0000
  O   O5        1.0  0.98432  0.31746  0.05254  1.0000
  O   O6        1.0  0.01567  0.18254  0.55254  1.0000
  O   O7        1.0  0.01567  0.68254  0.94746  1.0000
  O   O8        1.0  0.98433  0.81746  0.44746  1.0000
  O   O9        1.0  0.85364  0.37344  0.73618  1.0000
  O   O10       1.0  0.14636  0.12656  0.23618  1.0000
  O   O11       1.0  0.14636  0.62656  0.26382  1.0000
  O   O12       1.0  0.85364  0.87344  0.76382  1.0000
  O   O13       1.0  0.72923  0.20158  0.66696  1.0000
  O   O14       1.0  0.27077  0.29842  0.16696  1.0000
  O   O15       1.0  0.27077  0.79842  0.33304  1.0000
  O   O16       1.0  0.72923  0.70158  0.83304  1.0000
  O   O17       1.0  0.24771  0.46186  0.98789  1.0000
  O   O18       1.0  0.75229  0.03814  0.48789  1.0000
  O   O19       1.0  0.75229  0.53814  0.01211  1.0000
  O   O20       1.0  0.24771  0.96186  0.51211  1.0000
  O   O21       1.0  0.10426  0.45193  0.85649  1.0000
  O   O22       1.0  0.89574  0.04807  0.35649  1.0000
  O   O23       1.0  0.89574  0.54807  0.14351  1.0000
  O   O24       1.0  0.10426  0.95193  0.64351  1.0000
  O   O25       1.0  0.98914  0.64738  0.73720  1.0000
  O   O26       1.0  0.01086  0.85262  0.23720  1.0000
  O   O27       1.0  0.01086  0.35262  0.26280  1.0000
  O   O28       1.0  0.98914  0.14738  0.76280  1.0000
