data_image0
_chemical_formula_structural       Ca2H30C34S4N8Cl2O16
_chemical_formula_sum              "Ca2 H30 C34 S4 N8 Cl2 O16"
_cell_length_a       5.59819
_cell_length_b       10.6331
_cell_length_c       18.4007
_cell_angle_alpha    73.266
_cell_angle_beta     84.9846
_cell_angle_gamma    76.3467

_space_group_name_H-M_alt    "P 1"
_space_group_IT_number       1

loop_
  _space_group_symop_operation_xyz
  'x, y, z'

loop_
  _atom_site_type_symbol
  _atom_site_label
  _atom_site_symmetry_multiplicity
  _atom_site_fract_x
  _atom_site_fract_y
  _atom_site_fract_z
  _atom_site_occupancy
  Ca  Ca1       1.0  0.99999  0.00000  0.50000  1.0000
  Ca  Ca2       1.0  0.49999  0.50000  0.50000  1.0000
  H   H1        1.0  0.00383  0.72768  0.24613  1.0000
  H   H2        1.0  0.99616  0.27232  0.75388  1.0000
  H   H3        1.0  0.76258  0.69157  0.94836  1.0000
  H   H4        1.0  0.23743  0.30843  0.05164  1.0000
  H   H5        1.0  0.07598  0.66725  0.97327  1.0000
  H   H6        1.0  0.92404  0.33275  0.02673  1.0000
  H   H7        1.0  0.86660  0.82203  0.97054  1.0000
  H   H8        1.0  0.13341  0.17798  0.02946  1.0000
  H   H9        1.0  0.36364  0.89501  0.08587  1.0000
  H   H10       1.0  0.63638  0.10498  0.91413  1.0000
  H   H11       1.0  0.64948  0.42173  0.31381  1.0000
  H   H12       1.0  0.35052  0.57828  0.68619  1.0000
  H   H13       1.0  0.30933  0.46510  0.10423  1.0000
  H   H14       1.0  0.69069  0.53489  0.89576  1.0000
  H   H15       1.0  0.48335  0.96229  0.33445  1.0000
  H   H16       1.0  0.51665  0.03770  0.66555  1.0000
  H   H17       1.0  0.05085  0.30469  0.17390  1.0000
  H   H18       1.0  0.94917  0.69531  0.82610  1.0000
  H   H19       1.0  0.09169  0.20215  0.31389  1.0000
  H   H20       1.0  0.90831  0.79786  0.68610  1.0000
  H   H21       1.0  0.97507  0.57003  0.56295  1.0000
  H   H22       1.0  0.02493  0.42997  0.43704  1.0000
  H   H23       1.0  0.13650  0.44768  0.62202  1.0000
  H   H24       1.0  0.86349  0.55233  0.37799  1.0000
  H   H25       1.0  0.77698  0.09086  0.28267  1.0000
  H   H26       1.0  0.22301  0.90913  0.71734  1.0000
  H   H27       1.0  0.67810  0.20361  0.19296  1.0000
  H   H28       1.0  0.32189  0.79639  0.80705  1.0000
  H   H29       1.0  0.93600  0.06926  0.19742  1.0000
  H   H30       1.0  0.06400  0.93075  0.80259  1.0000
  C   C1        1.0  0.89770  0.68498  0.13084  1.0000
  C   C2        1.0  0.10230  0.31503  0.86916  1.0000
  C   C3        1.0  0.77443  0.60960  0.19660  1.0000
  C   C4        1.0  0.22555  0.39041  0.80341  1.0000
  C   C5        1.0  0.81401  0.65926  0.06563  1.0000
  C   C6        1.0  0.18599  0.34075  0.93437  1.0000
  C   C7        1.0  0.88357  0.71274  0.98481  1.0000
  C   C8        1.0  0.11644  0.28726  0.01519  1.0000
  C   C9        1.0  0.26315  0.84775  0.20474  1.0000
  C   C10       1.0  0.73685  0.15225  0.79526  1.0000
  C   C11       1.0  0.48983  0.45634  0.20473  1.0000
  C   C12       1.0  0.51018  0.54366  0.79526  1.0000
  C   C13       1.0  0.29894  0.86770  0.27538  1.0000
  C   C14       1.0  0.70106  0.13230  0.72463  1.0000
  C   C15       1.0  0.39058  0.90955  0.14041  1.0000
  C   C16       1.0  0.60944  0.09044  0.85959  1.0000
  C   C17       1.0  0.51683  0.39778  0.28308  1.0000
  C   C18       1.0  0.48317  0.60222  0.71692  1.0000
  C   C19       1.0  0.32281  0.42125  0.16534  1.0000
  C   C20       1.0  0.67719  0.57875  0.83465  1.0000
  C   C21       1.0  0.45839  0.94809  0.27954  1.0000
  C   C22       1.0  0.54162  0.05191  0.72046  1.0000
  C   C23       1.0  0.54810  0.98893  0.14695  1.0000
  C   C24       1.0  0.45191  0.01106  0.85306  1.0000
  C   C25       1.0  0.37394  0.30644  0.32047  1.0000
  C   C26       1.0  0.62605  0.69357  0.67953  1.0000
  C   C27       1.0  0.18050  0.33097  0.20474  1.0000
  C   C28       1.0  0.81951  0.66902  0.79525  1.0000
  C   C29       1.0  0.58715  0.01094  0.21637  1.0000
  C   C30       1.0  0.41286  0.98905  0.78364  1.0000
  C   C31       1.0  0.20231  0.27285  0.28299  1.0000
  C   C32       1.0  0.79769  0.72715  0.71701  1.0000
  C   C33       1.0  0.75412  0.09785  0.22304  1.0000
  C   C34       1.0  0.24588  0.90214  0.77697  1.0000
  S   S1        1.0  0.14973  0.79647  0.36214  1.0000
  S   S2        1.0  0.85026  0.20353  0.63786  1.0000
  S   S3        1.0  0.42389  0.23234  0.41917  1.0000
  S   S4        1.0  0.57610  0.76766  0.58083  1.0000
  N   N1        1.0  0.05717  0.75860  0.13151  1.0000
  N   N2        1.0  0.94282  0.24141  0.86849  1.0000
  N   N3        1.0  0.10091  0.77027  0.19794  1.0000
  N   N4        1.0  0.89910  0.22973  0.80206  1.0000
  N   N5        1.0  0.63510  0.54646  0.16560  1.0000
  N   N6        1.0  0.36489  0.45354  0.83439  1.0000
  N   N7        1.0  0.65881  0.57888  0.08620  1.0000
  N   N8        1.0  0.34119  0.42112  0.91380  1.0000
  Cl  Cl1       1.0  0.70381  0.06221  0.06614  1.0000
  Cl  Cl2       1.0  0.29621  0.93778  0.93387  1.0000
  O   O1        1.0  0.79094  0.60301  0.26465  1.0000
  O   O2        1.0  0.20906  0.39699  0.73535  1.0000
  O   O3        1.0  0.33117  0.67743  0.40215  1.0000
  O   O4        1.0  0.66880  0.32255  0.59785  1.0000
  O   O5        1.0  0.92968  0.76320  0.34306  1.0000
  O   O6        1.0  0.07030  0.23681  0.65694  1.0000
  O   O7        1.0  0.09698  0.90237  0.40175  1.0000
  O   O8        1.0  0.90303  0.09762  0.59825  1.0000
  O   O9        1.0  0.34323  0.34448  0.45472  1.0000
  O   O10       1.0  0.65676  0.65552  0.54528  1.0000
  O   O11       1.0  0.27247  0.13232  0.44424  1.0000
  O   O12       1.0  0.72752  0.86768  0.55575  1.0000
  O   O13       1.0  0.68811  0.17327  0.42765  1.0000
  O   O14       1.0  0.31188  0.82673  0.57235  1.0000
  O   O15       1.0  0.14535  0.52083  0.57580  1.0000
  O   O16       1.0  0.85464  0.47918  0.42420  1.0000
