data_image0
_chemical_formula_structural       Ca2H24C32S4N8Cl4O16
_chemical_formula_sum              "Ca2 H24 C32 S4 N8 Cl4 O16"
_cell_length_a       5.60488
_cell_length_b       10.6435
_cell_length_c       18.3941
_cell_angle_alpha    72.9893
_cell_angle_beta     85.0317
_cell_angle_gamma    76.0865

_space_group_name_H-M_alt    "P 1"
_space_group_IT_number       1

loop_
  _space_group_symop_operation_xyz
  'x, y, z'

loop_
  _atom_site_type_symbol
  _atom_site_label
  _atom_site_symmetry_multiplicity
  _atom_site_fract_x
  _atom_site_fract_y
  _atom_site_fract_z
  _atom_site_occupancy
  Ca  Ca1       1.0  0.00000  1.00000  0.50000  1.0000
  Ca  Ca2       1.0  0.50000  0.50000  0.50000  1.0000
  H   H1        1.0  0.00316  0.72973  0.24669  1.0000
  H   H2        1.0  0.99688  0.27025  0.75331  1.0000
  H   H3        1.0  0.76666  0.68830  0.94909  1.0000
  H   H4        1.0  0.23326  0.31175  0.05092  1.0000
  H   H5        1.0  0.07939  0.66552  0.97382  1.0000
  H   H6        1.0  0.92055  0.33451  0.02616  1.0000
  H   H7        1.0  0.86747  0.82015  0.97023  1.0000
  H   H8        1.0  0.13246  0.17988  0.02978  1.0000
  H   H9        1.0  0.36503  0.89085  0.08538  1.0000
  H   H10       1.0  0.63494  0.10918  0.91461  1.0000
  H   H11       1.0  0.65152  0.41926  0.31516  1.0000
  H   H12       1.0  0.34849  0.58074  0.68485  1.0000
  H   H13       1.0  0.31541  0.46276  0.10466  1.0000
  H   H14       1.0  0.68461  0.53723  0.89534  1.0000
  H   H15       1.0  0.48183  0.96619  0.33243  1.0000
  H   H16       1.0  0.51820  0.03380  0.66757  1.0000
  H   H17       1.0  0.05227  0.30616  0.17443  1.0000
  H   H18       1.0  0.94775  0.69383  0.82557  1.0000
  H   H19       1.0  0.08891  0.20468  0.31537  1.0000
  H   H20       1.0  0.91110  0.79531  0.68463  1.0000
  H   H21       1.0  0.97647  0.57085  0.56371  1.0000
  H   H22       1.0  0.02353  0.42914  0.43629  1.0000
  H   H23       1.0  0.14461  0.45754  0.62650  1.0000
  H   H24       1.0  0.85541  0.54245  0.37350  1.0000
  C   C1        1.0  0.90006  0.68322  0.13164  1.0000
  C   C2        1.0  0.09994  0.31678  0.86835  1.0000
  C   C3        1.0  0.77696  0.60770  0.19759  1.0000
  C   C4        1.0  0.22308  0.39228  0.80242  1.0000
  C   C5        1.0  0.81792  0.65712  0.06632  1.0000
  C   C6        1.0  0.18204  0.34289  0.93368  1.0000
  C   C7        1.0  0.88667  0.71052  0.98529  1.0000
  C   C8        1.0  0.11327  0.28951  0.01471  1.0000
  C   C9        1.0  0.26290  0.84814  0.20411  1.0000
  C   C10       1.0  0.73709  0.15187  0.79589  1.0000
  C   C11       1.0  0.49384  0.45417  0.20567  1.0000
  C   C12       1.0  0.50618  0.54583  0.79433  1.0000
  C   C13       1.0  0.29771  0.86938  0.27447  1.0000
  C   C14       1.0  0.70230  0.13062  0.72553  1.0000
  C   C15       1.0  0.39047  0.90793  0.13932  1.0000
  C   C16       1.0  0.60950  0.09209  0.86068  1.0000
  C   C17       1.0  0.51884  0.39619  0.28423  1.0000
  C   C18       1.0  0.48118  0.60380  0.71577  1.0000
  C   C19       1.0  0.32756  0.41964  0.16601  1.0000
  C   C20       1.0  0.67246  0.58035  0.83400  1.0000
  C   C21       1.0  0.45535  0.95017  0.27823  1.0000
  C   C22       1.0  0.54466  0.04982  0.72177  1.0000
  C   C23       1.0  0.54725  0.98858  0.14383  1.0000
  C   C24       1.0  0.45272  0.01143  0.85616  1.0000
  C   C25       1.0  0.37410  0.30624  0.32181  1.0000
  C   C26       1.0  0.62591  0.69376  0.67819  1.0000
  C   C27       1.0  0.18273  0.33111  0.20556  1.0000
  C   C28       1.0  0.81730  0.66888  0.79444  1.0000
  C   C29       1.0  0.58067  0.01042  0.21367  1.0000
  C   C30       1.0  0.41934  0.98958  0.78633  1.0000
  C   C31       1.0  0.20194  0.27379  0.28419  1.0000
  C   C32       1.0  0.79808  0.72619  0.71582  1.0000
  S   S1        1.0  0.14874  0.79739  0.36154  1.0000
  S   S2        1.0  0.85127  0.20260  0.63846  1.0000
  S   S3        1.0  0.42474  0.23201  0.42063  1.0000
  S   S4        1.0  0.57527  0.76799  0.57937  1.0000
  N   N1        1.0  0.05807  0.75713  0.13211  1.0000
  N   N2        1.0  0.94192  0.24287  0.86789  1.0000
  N   N3        1.0  0.10094  0.77049  0.19826  1.0000
  N   N4        1.0  0.89907  0.22950  0.80174  1.0000
  N   N5        1.0  0.63975  0.54407  0.16670  1.0000
  N   N6        1.0  0.36025  0.45593  0.83330  1.0000
  N   N7        1.0  0.66408  0.57651  0.08712  1.0000
  N   N8        1.0  0.33590  0.42350  0.91289  1.0000
  Cl  Cl1       1.0  0.70211  0.06036  0.06338  1.0000
  Cl  Cl2       1.0  0.29784  0.93967  0.93662  1.0000
  Cl  Cl3       1.0  0.77567  0.10801  0.22076  1.0000
  Cl  Cl4       1.0  0.22434  0.89199  0.77925  1.0000
  O   O1        1.0  0.79245  0.60223  0.26566  1.0000
  O   O2        1.0  0.20762  0.39774  0.73434  1.0000
  O   O3        1.0  0.32477  0.67233  0.39871  1.0000
  O   O4        1.0  0.67526  0.32767  0.60129  1.0000
  O   O5        1.0  0.92138  0.77347  0.34158  1.0000
  O   O6        1.0  0.07864  0.22652  0.65842  1.0000
  O   O7        1.0  0.11216  0.89862  0.40359  1.0000
  O   O8        1.0  0.88786  0.10137  0.59641  1.0000
  O   O9        1.0  0.34309  0.34405  0.45612  1.0000
  O   O10       1.0  0.65692  0.65595  0.54388  1.0000
  O   O11       1.0  0.27486  0.13168  0.44606  1.0000
  O   O12       1.0  0.72515  0.86832  0.55394  1.0000
  O   O13       1.0  0.68931  0.17353  0.42883  1.0000
  O   O14       1.0  0.31071  0.82646  0.57117  1.0000
  O   O15       1.0  0.14791  0.52341  0.57658  1.0000
  O   O16       1.0  0.85209  0.47659  0.42343  1.0000
