data_image0
_chemical_formula_structural       Mn2H20C28S2O14
_chemical_formula_sum              "Mn2 H20 C28 S2 O14"
_cell_length_a       4.75446
_cell_length_b       12.2217
_cell_length_c       14.1912
_cell_angle_alpha    110.576
_cell_angle_beta     97.4013
_cell_angle_gamma    104.047

_space_group_name_H-M_alt    "P 1"
_space_group_IT_number       1

loop_
  _space_group_symop_operation_xyz
  'x, y, z'

loop_
  _atom_site_type_symbol
  _atom_site_label
  _atom_site_symmetry_multiplicity
  _atom_site_fract_x
  _atom_site_fract_y
  _atom_site_fract_z
  _atom_site_occupancy
  Mn  Mn1       1.0  0.91454  0.47913  0.10451  1.0000
  Mn  Mn2       1.0  0.08543  0.52089  0.89547  1.0000
  H   H1        1.0  0.81435  0.31464  0.19000  1.0000
  H   H2        1.0  0.18566  0.68539  0.80998  1.0000
  H   H3        1.0  0.15343  0.32417  0.19422  1.0000
  H   H4        1.0  0.84661  0.67593  0.80578  1.0000
  H   H5        1.0  0.28080  0.76360  0.34500  1.0000
  H   H6        1.0  0.71922  0.23639  0.65498  1.0000
  H   H7        1.0  0.26296  0.85393  0.53072  1.0000
  H   H8        1.0  0.73699  0.14606  0.46926  1.0000
  H   H9        1.0  0.74690  0.62280  0.59648  1.0000
  H   H10       1.0  0.25312  0.37721  0.40354  1.0000
  H   H11       1.0  0.78053  0.53953  0.41119  1.0000
  H   H12       1.0  0.21949  0.46045  0.58883  1.0000
  H   H13       1.0  0.43583  0.03031  0.70646  1.0000
  H   H14       1.0  0.56412  0.96969  0.29355  1.0000
  H   H15       1.0  0.74625  0.24552  0.81978  1.0000
  H   H16       1.0  0.25376  0.75450  0.18024  1.0000
  H   H17       1.0  0.33337  0.11131  0.97474  1.0000
  H   H18       1.0  0.66677  0.88867  0.02522  1.0000
  H   H19       1.0  0.01271  0.89459  0.86613  1.0000
  H   H20       1.0  0.98735  0.10539  0.13384  1.0000
  C   C1        1.0  0.55342  0.59525  0.25638  1.0000
  C   C2        1.0  0.44657  0.40473  0.74361  1.0000
  C   C3        1.0  0.53811  0.64840  0.36789  1.0000
  C   C4        1.0  0.46191  0.35158  0.63212  1.0000
  C   C5        1.0  0.39189  0.73690  0.40147  1.0000
  C   C6        1.0  0.60809  0.26309  0.59854  1.0000
  C   C7        1.0  0.38191  0.78724  0.50498  1.0000
  C   C8        1.0  0.61806  0.21275  0.49504  1.0000
  C   C9        1.0  0.51353  0.74593  0.57453  1.0000
  C   C10       1.0  0.48641  0.25407  0.42550  1.0000
  C   C11       1.0  0.65317  0.65564  0.54181  1.0000
  C   C12       1.0  0.34680  0.34437  0.45822  1.0000
  C   C13       1.0  0.66910  0.60869  0.43868  1.0000
  C   C14       1.0  0.33088  0.39130  0.56133  1.0000
  C   C15       1.0  0.71460  0.95060  0.77757  1.0000
  C   C16       1.0  0.28537  0.04937  0.22242  1.0000
  C   C17       1.0  0.63670  0.04814  0.76331  1.0000
  C   C18       1.0  0.36326  0.95184  0.23669  1.0000
  C   C19       1.0  0.80954  0.16815  0.82665  1.0000
  C   C20       1.0  0.19046  0.83184  0.17336  1.0000
  C   C21       1.0  0.06250  0.19061  0.90200  1.0000
  C   C22       1.0  0.93756  0.80939  0.09800  1.0000
  C   C23       1.0  0.13713  0.09196  0.91532  1.0000
  C   C24       1.0  0.86292  0.90802  0.08466  1.0000
  C   C25       1.0  0.96100  0.97142  0.85435  1.0000
  C   C26       1.0  0.03901  0.02856  0.14562  1.0000
  C   C27       1.0  0.24779  0.31993  0.97052  1.0000
  C   C28       1.0  0.75220  0.68009  0.02949  1.0000
  S   S1        1.0  0.46783  0.80011  0.70343  1.0000
  S   S2        1.0  0.53220  0.19989  0.29656  1.0000
  O   O1        1.0  0.97668  0.33172  0.15594  1.0000
  O   O2        1.0  0.02332  0.66832  0.84405  1.0000
  O   O3        1.0  0.35865  0.59858  0.18809  1.0000
  O   O4        1.0  0.64130  0.40145  0.81193  1.0000
  O   O5        1.0  0.76794  0.55156  0.23914  1.0000
  O   O6        1.0  0.23203  0.44842  0.76086  1.0000
  O   O7        1.0  0.12719  0.40549  0.97541  1.0000
  O   O8        1.0  0.87270  0.59448  0.02454  1.0000
  O   O9        1.0  0.50344  0.33690  0.02112  1.0000
  O   O10       1.0  0.49657  0.66313  0.97891  1.0000
  O   O11       1.0  0.53547  0.71733  0.75045  1.0000
  O   O12       1.0  0.46453  0.28268  0.24955  1.0000
  O   O13       1.0  0.16961  0.81123  0.69614  1.0000
  O   O14       1.0  0.83042  0.18875  0.30388  1.0000
