data_image0
_chemical_formula_structural       CoH36C32N4O6
_chemical_formula_sum              "Co1 H36 C32 N4 O6"
_cell_length_a       8.13257
_cell_length_b       8.9827
_cell_length_c       11.2293
_cell_angle_alpha    84.1536
_cell_angle_beta     89.5267
_cell_angle_gamma    64.6642

_space_group_name_H-M_alt    "P 1"
_space_group_IT_number       1

loop_
  _space_group_symop_operation_xyz
  'x, y, z'

loop_
  _atom_site_type_symbol
  _atom_site_label
  _atom_site_symmetry_multiplicity
  _atom_site_fract_x
  _atom_site_fract_y
  _atom_site_fract_z
  _atom_site_occupancy
  Co  Co1       1.0  0.00000  0.00000  1.00000  1.0000
  H   H1        1.0  0.23013  0.09958  0.07297  1.0000
  H   H2        1.0  0.76987  0.90042  0.92703  1.0000
  H   H3        1.0  0.23295  0.13845  0.92756  1.0000
  H   H4        1.0  0.76706  0.86155  0.07244  1.0000
  H   H5        1.0  0.31116  0.83095  0.16230  1.0000
  H   H6        1.0  0.68884  0.16905  0.83770  1.0000
  H   H7        1.0  0.51760  0.54120  0.23376  1.0000
  H   H8        1.0  0.48240  0.45879  0.76624  1.0000
  H   H9        1.0  0.23099  0.38694  0.98910  1.0000
  H   H10       1.0  0.76901  0.61306  0.01089  1.0000
  H   H11       1.0  0.03643  0.68465  0.92488  1.0000
  H   H12       1.0  0.96356  0.31535  0.07512  1.0000
  H   H13       1.0  0.42726  0.21245  0.22757  1.0000
  H   H14       1.0  0.57273  0.78755  0.77243  1.0000
  H   H15       1.0  0.62932  0.24384  0.21282  1.0000
  H   H16       1.0  0.37068  0.75615  0.78717  1.0000
  H   H17       1.0  0.54496  0.17974  0.09239  1.0000
  H   H18       1.0  0.45504  0.82026  0.90761  1.0000
  H   H19       1.0  0.17219  0.05461  0.65832  1.0000
  H   H20       1.0  0.82780  0.94539  0.34168  1.0000
  H   H21       1.0  0.77802  0.88576  0.55902  1.0000
  H   H22       1.0  0.22198  0.11423  0.44097  1.0000
  H   H23       1.0  0.48535  0.06154  0.76881  1.0000
  H   H24       1.0  0.51466  0.93845  0.23119  1.0000
  H   H25       1.0  0.53303  0.18125  0.56917  1.0000
  H   H26       1.0  0.46698  0.81875  0.43083  1.0000
  H   H27       1.0  0.03429  0.61498  0.60982  1.0000
  H   H28       1.0  0.96572  0.38502  0.39019  1.0000
  H   H29       1.0  0.00228  0.47391  0.80502  1.0000
  H   H30       1.0  0.99773  0.52608  0.19498  1.0000
  H   H31       1.0  0.21320  0.47856  0.38312  1.0000
  H   H32       1.0  0.78680  0.52145  0.61688  1.0000
  H   H33       1.0  0.44436  0.42503  0.41940  1.0000
  H   H34       1.0  0.55563  0.57498  0.58061  1.0000
  H   H35       1.0  0.26921  0.61929  0.45134  1.0000
  H   H36       1.0  0.73078  0.38072  0.54866  1.0000
  C   C1        1.0  0.29489  0.72940  0.12773  1.0000
  C   C2        1.0  0.70511  0.27060  0.87227  1.0000
  C   C3        1.0  0.41004  0.56616  0.16703  1.0000
  C   C4        1.0  0.58996  0.43384  0.83297  1.0000
  C   C5        1.0  0.38886  0.43602  0.12127  1.0000
  C   C6        1.0  0.61114  0.56398  0.87872  1.0000
  C   C7        1.0  0.25147  0.48152  0.03194  1.0000
  C   C8        1.0  0.74853  0.51848  0.96806  1.0000
  C   C9        1.0  0.14218  0.64727  0.99516  1.0000
  C   C10       1.0  0.85782  0.35274  0.00484  1.0000
  C   C11       1.0  0.50474  0.25898  0.16568  1.0000
  C   C12       1.0  0.49526  0.74102  0.83432  1.0000
  C   C13       1.0  0.93993  0.93330  0.75255  1.0000
  C   C14       1.0  0.06007  0.06669  0.24745  1.0000
  C   C15       1.0  0.97296  0.96587  0.62193  1.0000
  C   C16       1.0  0.02704  0.03413  0.37807  1.0000
  C   C17       1.0  0.09787  0.03057  0.58831  1.0000
  C   C18       1.0  0.90213  0.96942  0.41169  1.0000
  C   C19       1.0  0.87531  0.93578  0.53236  1.0000
  C   C20       1.0  0.12469  0.06422  0.46764  1.0000
  C   C21       1.0  0.38589  0.18306  0.72970  1.0000
  C   C22       1.0  0.61412  0.81694  0.27030  1.0000
  C   C23       1.0  0.41222  0.25085  0.61790  1.0000
  C   C24       1.0  0.58779  0.74916  0.38210  1.0000
  C   C25       1.0  0.28518  0.40872  0.57045  1.0000
  C   C26       1.0  0.71482  0.59129  0.42955  1.0000
  C   C27       1.0  0.13601  0.49048  0.64036  1.0000
  C   C28       1.0  0.86399  0.50953  0.35965  1.0000
  C   C29       1.0  0.11886  0.41257  0.75028  1.0000
  C   C30       1.0  0.88114  0.58742  0.24972  1.0000
  C   C31       1.0  0.30559  0.48677  0.45029  1.0000
  C   C32       1.0  0.69441  0.51324  0.54971  1.0000
  N   N1        1.0  0.15975  0.77178  0.04387  1.0000
  N   N2        1.0  0.84025  0.22822  0.95613  1.0000
  N   N3        1.0  0.24135  0.26135  0.79544  1.0000
  N   N4        1.0  0.75866  0.73864  0.20456  1.0000
  O   O1        1.0  0.03159  0.97074  0.82656  1.0000
  O   O2        1.0  0.96841  0.02926  0.17344  1.0000
  O   O3        1.0  0.82456  0.87564  0.77865  1.0000
  O   O4        1.0  0.17544  0.12436  0.22135  1.0000
  O   O5        1.0  0.24218  0.05271  0.99499  1.0000
  O   O6        1.0  0.75783  0.94729  0.00501  1.0000
