data_image0
_chemical_formula_structural       Cd2H22C16N10Cl4O6
_chemical_formula_sum              "Cd2 H22 C16 N10 Cl4 O6"
_cell_length_a       7.24581
_cell_length_b       8.14907
_cell_length_c       12.1668
_cell_angle_alpha    82.6822
_cell_angle_beta     72.3122
_cell_angle_gamma    80.0236

_space_group_name_H-M_alt    "P 1"
_space_group_IT_number       1

loop_
  _space_group_symop_operation_xyz
  'x, y, z'

loop_
  _atom_site_type_symbol
  _atom_site_label
  _atom_site_symmetry_multiplicity
  _atom_site_fract_x
  _atom_site_fract_y
  _atom_site_fract_z
  _atom_site_occupancy
  Cd  Cd1       1.0  0.71809  0.97631  0.06465  1.0000
  Cd  Cd2       1.0  0.28192  0.02370  0.93535  1.0000
  H   H1        1.0  0.24175  0.81745  0.56725  1.0000
  H   H2        1.0  0.75825  0.18255  0.43276  1.0000
  H   H3        1.0  0.97608  0.18226  0.69807  1.0000
  H   H4        1.0  0.02391  0.81774  0.30194  1.0000
  H   H5        1.0  0.03341  0.97088  0.72645  1.0000
  H   H6        1.0  0.96659  0.02913  0.27356  1.0000
  H   H7        1.0  0.52814  0.35482  0.13616  1.0000
  H   H8        1.0  0.47187  0.64518  0.86384  1.0000
  H   H9        1.0  0.20680  0.54111  0.41065  1.0000
  H   H10       1.0  0.79322  0.45888  0.58933  1.0000
  H   H11       1.0  0.34102  0.59344  0.26221  1.0000
  H   H12       1.0  0.65899  0.40653  0.73779  1.0000
  H   H13       1.0  0.11929  0.40921  0.15075  1.0000
  H   H14       1.0  0.88071  0.59080  0.84925  1.0000
  H   H15       1.0  0.16316  0.62328  0.12155  1.0000
  H   H16       1.0  0.83685  0.37673  0.87845  1.0000
  H   H17       1.0  0.86011  0.57718  0.07836  1.0000
  H   H18       1.0  0.13989  0.42283  0.92165  1.0000
  H   H19       1.0  0.76139  0.50416  0.22587  1.0000
  H   H20       1.0  0.23862  0.49585  0.77412  1.0000
  H   H21       1.0  0.67335  0.75881  0.26858  1.0000
  H   H22       1.0  0.32665  0.24119  0.73142  1.0000
  C   C1        1.0  0.14406  0.07314  0.55807  1.0000
  C   C2        1.0  0.85594  0.92686  0.44193  1.0000
  C   C3        1.0  0.28276  0.20807  0.38985  1.0000
  C   C4        1.0  0.71723  0.79194  0.61016  1.0000
  C   C5        1.0  0.40383  0.06678  0.33969  1.0000
  C   C6        1.0  0.59616  0.93321  0.66032  1.0000
  C   C7        1.0  0.39300  0.91020  0.40652  1.0000
  C   C8        1.0  0.60699  0.08979  0.59349  1.0000
  C   C9        1.0  0.46841  0.27731  0.21415  1.0000
  C   C10       1.0  0.53159  0.72269  0.78585  1.0000
  C   C11       1.0  0.23645  0.51483  0.32035  1.0000
  C   C12       1.0  0.76356  0.48516  0.67964  1.0000
  C   C13       1.0  0.06487  0.53733  0.17724  1.0000
  C   C14       1.0  0.93512  0.46268  0.82275  1.0000
  C   C15       1.0  0.85958  0.58784  0.16766  1.0000
  C   C16       1.0  0.14042  0.41216  0.83234  1.0000
  N   N1        1.0  0.25699  0.92667  0.51656  1.0000
  N   N2        1.0  0.74302  0.07331  0.48344  1.0000
  N   N3        1.0  0.01939  0.06771  0.66562  1.0000
  N   N4        1.0  0.98061  0.93229  0.33438  1.0000
  N   N5        1.0  0.15165  0.21815  0.49415  1.0000
  N   N6        1.0  0.84834  0.78185  0.50585  1.0000
  N   N7        1.0  0.51747  0.11377  0.22948  1.0000
  N   N8        1.0  0.48253  0.88622  0.77052  1.0000
  N   N9        1.0  0.32767  0.34104  0.30868  1.0000
  N   N10       1.0  0.67232  0.65896  0.69132  1.0000
  Cl  Cl1       1.0  0.98265  0.15836  0.09309  1.0000
  Cl  Cl2       1.0  0.01735  0.84165  0.90691  1.0000
  Cl  Cl3       1.0  0.55786  0.20262  0.93537  1.0000
  Cl  Cl4       1.0  0.44215  0.79738  0.06463  1.0000
  O   O1        1.0  0.48636  0.76873  0.38198  1.0000
  O   O2        1.0  0.51366  0.23125  0.61802  1.0000
  O   O3        1.0  0.05425  0.54587  0.29686  1.0000
  O   O4        1.0  0.94574  0.45413  0.70314  1.0000
  O   O5        1.0  0.78953  0.75699  0.19726  1.0000
  O   O6        1.0  0.21047  0.24302  0.80274  1.0000
