data_image0
_chemical_formula_structural       Rb2H6C8S2N4O4
_chemical_formula_sum              "Rb2 H6 C8 S2 N4 O4"
_cell_length_a       6.99062
_cell_length_b       6.99047
_cell_length_c       7.69111
_cell_angle_alpha    94.377
_cell_angle_beta     94.3704
_cell_angle_gamma    114.67

_space_group_name_H-M_alt    "P 1"
_space_group_IT_number       1

loop_
  _space_group_symop_operation_xyz
  'x, y, z'

loop_
  _atom_site_type_symbol
  _atom_site_label
  _atom_site_symmetry_multiplicity
  _atom_site_fract_x
  _atom_site_fract_y
  _atom_site_fract_z
  _atom_site_occupancy
  Rb  Rb1       1.0  0.74870  0.25129  0.49999  1.0000
  Rb  Rb2       1.0  0.25130  0.74872  0.50000  1.0000
  H   H1        1.0  0.55592  0.90662  0.09998  1.0000
  H   H2        1.0  0.09336  0.44410  0.90000  1.0000
  H   H3        1.0  0.44409  0.09336  0.90001  1.0000
  H   H4        1.0  0.90664  0.55589  0.10001  1.0000
  H   H5        1.0  0.84273  0.84269  0.64697  1.0000
  H   H6        1.0  0.15730  0.15732  0.35304  1.0000
  C   C1        1.0  0.73217  0.73218  0.12467  1.0000
  C   C2        1.0  0.26784  0.26782  0.87534  1.0000
  C   C3        1.0  0.68210  0.88910  0.86289  1.0000
  C   C4        1.0  0.11086  0.31792  0.13710  1.0000
  C   C5        1.0  0.31790  0.11088  0.13711  1.0000
  C   C6        1.0  0.88913  0.68208  0.86289  1.0000
  C   C7        1.0  0.81158  0.81154  0.78057  1.0000
  C   C8        1.0  0.18842  0.18845  0.21943  1.0000
  S   S1        1.0  0.69852  0.69854  0.33760  1.0000
  S   S2        1.0  0.30147  0.30146  0.66240  1.0000
  N   N1        1.0  0.64893  0.84511  0.03545  1.0000
  N   N2        1.0  0.15488  0.35107  0.96459  1.0000
  N   N3        1.0  0.35105  0.15489  0.96456  1.0000
  N   N4        1.0  0.84512  0.64895  0.03540  1.0000
  O   O1        1.0  0.59199  0.99473  0.79240  1.0000
  O   O2        1.0  0.00524  0.40802  0.20760  1.0000
  O   O3        1.0  0.40800  0.00527  0.20759  1.0000
  O   O4        1.0  0.99477  0.59197  0.79241  1.0000
