data_image0
_chemical_formula_structural       Cs2H6C8S2N4O4
_chemical_formula_sum              "Cs2 H6 C8 S2 N4 O4"
_cell_length_a       7.13536
_cell_length_b       7.13535
_cell_length_c       7.84043
_cell_angle_alpha    95.1927
_cell_angle_beta     95.1968
_cell_angle_gamma    111.898

_space_group_name_H-M_alt    "P 1"
_space_group_IT_number       1

loop_
  _space_group_symop_operation_xyz
  'x, y, z'

loop_
  _atom_site_type_symbol
  _atom_site_label
  _atom_site_symmetry_multiplicity
  _atom_site_fract_x
  _atom_site_fract_y
  _atom_site_fract_z
  _atom_site_occupancy
  Cs  Cs1       1.0  0.75335  0.24664  0.50000  1.0000
  Cs  Cs2       1.0  0.24664  0.75335  0.50000  1.0000
  H   H1        1.0  0.55779  0.90704  0.09871  1.0000
  H   H2        1.0  0.09294  0.44222  0.90127  1.0000
  H   H3        1.0  0.44220  0.09295  0.90126  1.0000
  H   H4        1.0  0.90706  0.55778  0.09874  1.0000
  H   H5        1.0  0.83171  0.83171  0.65420  1.0000
  H   H6        1.0  0.16831  0.16827  0.34582  1.0000
  C   C1        1.0  0.73350  0.73355  0.12362  1.0000
  C   C2        1.0  0.26648  0.26647  0.87636  1.0000
  C   C3        1.0  0.68022  0.88661  0.86747  1.0000
  C   C4        1.0  0.11341  0.31976  0.13253  1.0000
  C   C5        1.0  0.31977  0.11339  0.13255  1.0000
  C   C6        1.0  0.88662  0.68022  0.86746  1.0000
  C   C7        1.0  0.80516  0.80517  0.78580  1.0000
  C   C8        1.0  0.19485  0.19480  0.21420  1.0000
  S   S1        1.0  0.69907  0.69906  0.33106  1.0000
  S   S2        1.0  0.30094  0.30094  0.66893  1.0000
  N   N1        1.0  0.65077  0.84599  0.03665  1.0000
  N   N2        1.0  0.15402  0.34921  0.96338  1.0000
  N   N3        1.0  0.34919  0.15402  0.96338  1.0000
  N   N4        1.0  0.84598  0.65082  0.03659  1.0000
  O   O1        1.0  0.59130  0.99278  0.80004  1.0000
  O   O2        1.0  0.00723  0.40871  0.19996  1.0000
  O   O3        1.0  0.40872  0.00723  0.19997  1.0000
  O   O4        1.0  0.99279  0.59127  0.80003  1.0000
