data_image0
_chemical_formula_structural       Zn3H42C54N2O12
_chemical_formula_sum              "Zn3 H42 C54 N2 O12"
_cell_length_a       10.2914
_cell_length_b       10.9153
_cell_length_c       12.9646
_cell_angle_alpha    75.73
_cell_angle_beta     67.275
_cell_angle_gamma    63.9142

_space_group_name_H-M_alt    "P 1"
_space_group_IT_number       1

loop_
  _space_group_symop_operation_xyz
  'x, y, z'

loop_
  _atom_site_type_symbol
  _atom_site_label
  _atom_site_symmetry_multiplicity
  _atom_site_fract_x
  _atom_site_fract_y
  _atom_site_fract_z
  _atom_site_occupancy
  Zn  Zn1       1.0  0.29720  0.03629  0.28166  1.0000
  Zn  Zn2       1.0  0.70280  0.96370  0.71834  1.0000
  Zn  Zn3       1.0  1.00000  1.00000  0.50000  1.0000
  H   H1        1.0  0.48557  0.17960  0.26885  1.0000
  H   H2        1.0  0.51442  0.82040  0.73114  1.0000
  H   H3        1.0  0.73665  0.19225  0.14843  1.0000
  H   H4        1.0  0.26334  0.80776  0.85157  1.0000
  H   H5        1.0  0.79191  0.89602  0.95123  1.0000
  H   H6        1.0  0.20808  0.10398  0.04877  1.0000
  H   H7        1.0  0.54004  0.89187  0.08304  1.0000
  H   H8        1.0  0.45995  0.10813  0.91696  1.0000
  H   H9        1.0  0.93689  0.14944  0.95158  1.0000
  H   H10       1.0  0.06310  0.85057  0.04843  1.0000
  H   H11       1.0  0.97704  0.00462  0.88817  1.0000
  H   H12       1.0  0.02295  0.99538  0.11183  1.0000
  H   H13       1.0  0.05183  0.19357  0.71960  1.0000
  H   H14       1.0  0.94817  0.80643  0.28040  1.0000
  H   H15       1.0  0.10703  0.31549  0.82772  1.0000
  H   H16       1.0  0.89297  0.68451  0.17227  1.0000
  H   H17       1.0  0.35010  0.35255  0.75117  1.0000
  H   H18       1.0  0.64991  0.64745  0.24883  1.0000
  H   H19       1.0  0.53828  0.26737  0.56853  1.0000
  H   H20       1.0  0.46172  0.73262  0.43147  1.0000
  H   H21       1.0  0.47865  0.15080  0.45960  1.0000
  H   H22       1.0  0.52135  0.84920  0.54040  1.0000
  H   H23       1.0  0.69421  0.29593  0.37884  1.0000
  H   H24       1.0  0.30579  0.70409  0.62116  1.0000
  H   H25       1.0  0.49036  0.45031  0.29269  1.0000
  H   H26       1.0  0.50965  0.54969  0.70732  1.0000
  H   H27       1.0  0.56222  0.55052  0.09484  1.0000
  H   H28       1.0  0.43778  0.44948  0.90516  1.0000
  H   H29       1.0  0.83744  0.49468  0.98267  1.0000
  H   H30       1.0  0.16257  0.50532  0.01733  1.0000
  H   H31       1.0  0.03853  0.34021  0.07005  1.0000
  H   H32       1.0  0.96147  0.65979  0.92995  1.0000
  H   H33       1.0  0.28149  0.67962  0.12937  1.0000
  H   H34       1.0  0.71851  0.32038  0.87063  1.0000
  H   H35       1.0  0.24628  0.45841  0.16004  1.0000
  H   H36       1.0  0.75373  0.54159  0.83995  1.0000
  H   H37       1.0  0.17820  0.34572  0.35327  1.0000
  H   H38       1.0  0.82180  0.65427  0.64672  1.0000
  H   H39       1.0  0.14503  0.45151  0.51567  1.0000
  H   H40       1.0  0.85497  0.54848  0.48432  1.0000
  H   H41       1.0  0.17464  0.67377  0.48517  1.0000
  H   H42       1.0  0.82536  0.32622  0.51483  1.0000
  C   C1        1.0  0.55773  0.11851  0.19765  1.0000
  C   C2        1.0  0.44226  0.88149  0.80236  1.0000
  C   C3        1.0  0.69753  0.12451  0.13022  1.0000
  C   C4        1.0  0.30246  0.87550  0.86978  1.0000
  C   C5        1.0  0.78633  0.04375  0.03988  1.0000
  C   C6        1.0  0.21367  0.95625  0.96012  1.0000
  C   C7        1.0  0.72919  0.95878  0.02188  1.0000
  C   C8        1.0  0.27080  0.04122  0.97812  1.0000
  C   C9        1.0  0.58881  0.95708  0.09311  1.0000
  C   C10       1.0  0.41119  0.04292  0.90689  1.0000
  C   C11       1.0  0.94072  0.04419  0.96919  1.0000
  C   C12       1.0  0.05928  0.95582  0.03081  1.0000
  C   C13       1.0  0.22139  0.10424  0.51429  1.0000
  C   C14       1.0  0.77861  0.89576  0.48571  1.0000
  C   C15       1.0  0.26129  0.16580  0.58320  1.0000
  C   C16       1.0  0.73871  0.83419  0.41680  1.0000
  C   C17       1.0  0.15789  0.21013  0.68785  1.0000
  C   C18       1.0  0.84211  0.78987  0.31215  1.0000
  C   C19       1.0  0.18924  0.27831  0.74743  1.0000
  C   C20       1.0  0.81077  0.72169  0.25256  1.0000
  C   C21       1.0  0.32554  0.29971  0.70433  1.0000
  C   C22       1.0  0.67447  0.70028  0.29567  1.0000
  C   C23       1.0  0.43082  0.25270  0.60125  1.0000
  C   C24       1.0  0.56919  0.74730  0.39875  1.0000
  C   C25       1.0  0.39843  0.18675  0.54056  1.0000
  C   C26       1.0  0.60157  0.81324  0.45944  1.0000
  C   C27       1.0  0.99785  0.21527  0.28282  1.0000
  C   C28       1.0  0.00215  0.78474  0.71718  1.0000
  C   C29       1.0  0.87786  0.30980  0.22991  1.0000
  C   C30       1.0  0.12215  0.69021  0.77010  1.0000
  C   C31       1.0  0.72324  0.34096  0.29234  1.0000
  C   C32       1.0  0.27676  0.65905  0.70767  1.0000
  C   C33       1.0  0.61022  0.42651  0.24374  1.0000
  C   C34       1.0  0.38978  0.57350  0.75627  1.0000
  C   C35       1.0  0.65094  0.48220  0.13218  1.0000
  C   C36       1.0  0.34906  0.51780  0.86782  1.0000
  C   C37       1.0  0.80498  0.45141  0.06953  1.0000
  C   C38       1.0  0.19503  0.54859  0.93047  1.0000
  C   C39       1.0  0.91813  0.36529  0.11802  1.0000
  C   C40       1.0  0.08188  0.63472  0.88198  1.0000
  C   C41       1.0  0.25801  0.81688  0.28427  1.0000
  C   C42       1.0  0.74199  0.18312  0.71573  1.0000
  C   C43       1.0  0.23007  0.68921  0.30532  1.0000
  C   C44       1.0  0.76993  0.31079  0.69468  1.0000
  C   C45       1.0  0.25003  0.62880  0.21349  1.0000
  C   C46       1.0  0.74997  0.37120  0.78651  1.0000
  C   C47       1.0  0.23029  0.50608  0.23102  1.0000
  C   C48       1.0  0.76971  0.49392  0.76897  1.0000
  C   C49       1.0  0.19206  0.44239  0.33978  1.0000
  C   C50       1.0  0.80794  0.55760  0.66022  1.0000
  C   C51       1.0  0.17344  0.50187  0.43114  1.0000
  C   C52       1.0  0.82656  0.49813  0.56885  1.0000
  C   C53       1.0  0.19095  0.62561  0.41437  1.0000
  C   C54       1.0  0.80905  0.37439  0.58562  1.0000
  N   N1        1.0  0.50360  0.03598  0.17953  1.0000
  N   N2        1.0  0.49640  0.96402  0.82047  1.0000
  O   O1        1.0  0.29880  0.10396  0.40977  1.0000
  O   O2        1.0  0.70121  0.89604  0.59022  1.0000
  O   O3        1.0  0.11468  0.06028  0.56273  1.0000
  O   O4        1.0  0.88532  0.93972  0.43727  1.0000
  O   O5        1.0  0.13763  0.18038  0.21836  1.0000
  O   O6        1.0  0.86238  0.81962  0.78164  1.0000
  O   O7        1.0  0.95478  0.17638  0.38601  1.0000
  O   O8        1.0  0.04523  0.82361  0.61399  1.0000
  O   O9        1.0  0.32703  0.85538  0.18694  1.0000
  O   O10       1.0  0.67296  0.14462  0.81306  1.0000
  O   O11       1.0  0.21584  0.88640  0.36861  1.0000
  O   O12       1.0  0.78416  0.11359  0.63139  1.0000
