data_image0
_chemical_formula_structural       Zn2H28C36N4O10
_chemical_formula_sum              "Zn2 H28 C36 N4 O10"
_cell_length_a       9.09497
_cell_length_b       10.1793
_cell_length_c       10.4877
_cell_angle_alpha    103.799
_cell_angle_beta     113.484
_cell_angle_gamma    100.868

_space_group_name_H-M_alt    "P 1"
_space_group_IT_number       1

loop_
  _space_group_symop_operation_xyz
  'x, y, z'

loop_
  _atom_site_type_symbol
  _atom_site_label
  _atom_site_symmetry_multiplicity
  _atom_site_fract_x
  _atom_site_fract_y
  _atom_site_fract_z
  _atom_site_occupancy
  Zn  Zn1       1.0  0.41215  0.17757  0.34336  1.0000
  Zn  Zn2       1.0  0.58785  0.82243  0.65664  1.0000
  H   H1        1.0  0.27028  0.43559  0.41791  1.0000
  H   H2        1.0  0.72972  0.56441  0.58209  1.0000
  H   H3        1.0  0.98832  0.46787  0.35366  1.0000
  H   H4        1.0  0.01168  0.53213  0.64634  1.0000
  H   H5        1.0  0.72633  0.24818  0.19744  1.0000
  H   H6        1.0  0.27367  0.75182  0.80256  1.0000
  H   H7        1.0  0.76346  0.01422  0.11018  1.0000
  H   H8        1.0  0.23654  0.98579  0.88982  1.0000
  H   H9        1.0  0.81064  0.82924  0.03338  1.0000
  H   H10       1.0  0.18936  0.17076  0.96662  1.0000
  H   H11       1.0  0.88807  0.61092  0.97087  1.0000
  H   H12       1.0  0.11193  0.38908  0.02913  1.0000
  H   H13       1.0  0.19738  0.62978  0.07381  1.0000
  H   H14       1.0  0.80262  0.37022  0.92619  1.0000
  H   H15       1.0  0.41319  0.87097  0.23905  1.0000
  H   H16       1.0  0.58681  0.12903  0.76095  1.0000
  H   H17       1.0  0.10561  0.26183  0.63689  1.0000
  H   H18       1.0  0.89439  0.73817  0.36311  1.0000
  H   H19       1.0  0.69109  0.87640  0.35609  1.0000
  H   H20       1.0  0.30891  0.12360  0.64391  1.0000
  H   H21       1.0  0.44774  0.23968  0.94766  1.0000
  H   H22       1.0  0.55226  0.76032  0.05234  1.0000
  H   H23       1.0  0.54004  0.65522  0.24100  1.0000
  H   H24       1.0  0.45996  0.34478  0.75900  1.0000
  H   H25       1.0  0.51275  0.38585  0.59647  1.0000
  H   H26       1.0  0.48725  0.61414  0.40353  1.0000
  H   H27       1.0  0.64949  0.30529  0.58499  1.0000
  H   H28       1.0  0.35051  0.69471  0.41501  1.0000
  C   C1        1.0  0.15483  0.34508  0.34885  1.0000
  C   C2        1.0  0.84517  0.65492  0.65115  1.0000
  C   C3        1.0  0.99600  0.36163  0.31337  1.0000
  C   C4        1.0  0.00400  0.63837  0.68663  1.0000
  C   C5        1.0  0.85313  0.24122  0.22623  1.0000
  C   C6        1.0  0.14687  0.75878  0.77377  1.0000
  C   C7        1.0  0.87366  0.10930  0.17766  1.0000
  C   C8        1.0  0.12634  0.89070  0.82234  1.0000
  C   C9        1.0  0.03694  0.10085  0.21722  1.0000
  C   C10       1.0  0.96306  0.89915  0.78278  1.0000
  C   C11       1.0  0.07103  0.96509  0.17184  1.0000
  C   C12       1.0  0.92897  0.03491  0.82816  1.0000
  C   C13       1.0  0.94302  0.83508  0.07946  1.0000
  C   C14       1.0  0.05698  0.16492  0.92054  1.0000
  C   C15       1.0  0.98688  0.71269  0.04339  1.0000
  C   C16       1.0  0.01312  0.28731  0.95661  1.0000
  C   C17       1.0  0.15694  0.72230  0.09949  1.0000
  C   C18       1.0  0.84306  0.27769  0.90051  1.0000
  C   C19       1.0  0.27797  0.85522  0.19016  1.0000
  C   C20       1.0  0.72203  0.14478  0.80984  1.0000
  C   C21       1.0  0.76281  0.15792  0.48673  1.0000
  C   C22       1.0  0.23719  0.84208  0.51327  1.0000
  C   C23       1.0  0.88613  0.07690  0.49430  1.0000
  C   C24       1.0  0.11387  0.92310  0.50570  1.0000
  C   C25       1.0  0.06055  0.14721  0.57736  1.0000
  C   C26       1.0  0.93945  0.85279  0.42264  1.0000
  C   C27       1.0  0.82702  0.92938  0.41768  1.0000
  C   C28       1.0  0.17298  0.07062  0.58232  1.0000
  C   C29       1.0  0.48131  0.37764  0.21905  1.0000
  C   C30       1.0  0.51869  0.62236  0.78095  1.0000
  C   C31       1.0  0.49302  0.44073  0.10643  1.0000
  C   C32       1.0  0.50698  0.55927  0.89357  1.0000
  C   C33       1.0  0.47047  0.35376  0.97004  1.0000
  C   C34       1.0  0.52953  0.64624  0.02997  1.0000
  C   C35       1.0  0.52305  0.58766  0.13539  1.0000
  C   C36       1.0  0.47695  0.41234  0.86461  1.0000
  N   N1        1.0  0.17459  0.21825  0.30165  1.0000
  N   N2        1.0  0.82542  0.78175  0.69835  1.0000
  N   N3        1.0  0.23568  0.97303  0.22492  1.0000
  N   N4        1.0  0.76432  0.02697  0.77508  1.0000
  O   O1        1.0  0.52735  0.29008  0.56584  1.0000
  O   O2        1.0  0.47265  0.70992  0.43416  1.0000
  O   O3        1.0  0.60913  0.09080  0.38721  1.0000
  O   O4        1.0  0.39087  0.90920  0.61279  1.0000
  O   O5        1.0  0.81594  0.28422  0.57784  1.0000
  O   O6        1.0  0.18406  0.71578  0.42216  1.0000
  O   O7        1.0  0.44479  0.24100  0.18179  1.0000
  O   O8        1.0  0.55521  0.75900  0.81821  1.0000
  O   O9        1.0  0.50470  0.45685  0.34258  1.0000
  O   O10       1.0  0.49530  0.54315  0.65743  1.0000
