data_image0
_chemical_formula_structural       Ag2H8C8N6O4
_chemical_formula_sum              "Ag2 H8 C8 N6 O4"
_cell_length_a       5.70134
_cell_length_b       7.32882
_cell_length_c       7.28681
_cell_angle_alpha    90.0097
_cell_angle_beta     89.9863
_cell_angle_gamma    101.964

_space_group_name_H-M_alt    "P 1"
_space_group_IT_number       1

loop_
  _space_group_symop_operation_xyz
  'x, y, z'

loop_
  _atom_site_type_symbol
  _atom_site_label
  _atom_site_symmetry_multiplicity
  _atom_site_fract_x
  _atom_site_fract_y
  _atom_site_fract_z
  _atom_site_occupancy
  Ag  Ag1       1.0  0.43717  0.73400  0.75001  1.0000
  Ag  Ag2       1.0  0.56286  0.26598  0.24996  1.0000
  H   H1        1.0  0.18409  0.89868  0.07812  1.0000
  H   H2        1.0  0.81571  0.10144  0.57798  1.0000
  H   H3        1.0  0.81591  0.10135  0.92183  1.0000
  H   H4        1.0  0.18421  0.89857  0.42200  1.0000
  H   H5        1.0  0.76555  0.63553  0.07786  1.0000
  H   H6        1.0  0.23433  0.36454  0.57785  1.0000
  H   H7        1.0  0.23450  0.36446  0.92216  1.0000
  H   H8        1.0  0.76565  0.63542  0.42217  1.0000
  C   C1        1.0  0.31403  0.83870  0.15438  1.0000
  C   C2        1.0  0.68596  0.16133  0.65447  1.0000
  C   C3        1.0  0.68592  0.16131  0.84566  1.0000
  C   C4        1.0  0.31404  0.83869  0.34555  1.0000
  C   C5        1.0  0.63369  0.69312  0.15459  1.0000
  C   C6        1.0  0.36637  0.30691  0.65433  1.0000
  C   C7        1.0  0.36636  0.30692  0.84540  1.0000
  C   C8        1.0  0.63368  0.69310  0.34566  1.0000
  N   N1        1.0  0.47372  0.76582  0.05835  1.0000
  N   N2        1.0  0.52648  0.23418  0.55824  1.0000
  N   N3        1.0  0.52629  0.23424  0.94168  1.0000
  N   N4        1.0  0.47353  0.76582  0.44173  1.0000
  N   N5        1.0  0.89742  0.71375  0.75007  1.0000
  N   N6        1.0  0.10258  0.28622  0.24993  1.0000
  O   O1        1.0  0.03902  0.87159  0.75006  1.0000
  O   O2        1.0  0.96095  0.12838  0.25003  1.0000
  O   O3        1.0  0.99220  0.57199  0.74997  1.0000
  O   O4        1.0  0.00780  0.42797  0.24996  1.0000
