data_image0
_chemical_formula_structural       Ag2H8C8N6O4
_chemical_formula_sum              "Ag2 H8 C8 N6 O4"
_cell_length_a       6.01521
_cell_length_b       7.60576
_cell_length_c       7.6056
_cell_angle_alpha    61.8659
_cell_angle_beta     79.4262
_cell_angle_gamma    79.428

_space_group_name_H-M_alt    "P 1"
_space_group_IT_number       1

loop_
  _space_group_symop_operation_xyz
  'x, y, z'

loop_
  _atom_site_type_symbol
  _atom_site_label
  _atom_site_symmetry_multiplicity
  _atom_site_fract_x
  _atom_site_fract_y
  _atom_site_fract_z
  _atom_site_occupancy
  Ag  Ag1       1.0  0.25000  0.04391  0.95610  1.0000
  Ag  Ag2       1.0  0.75000  0.95609  0.04390  1.0000
  H   H1        1.0  0.49318  0.70571  0.82552  1.0000
  H   H2        1.0  0.00681  0.17449  0.29430  1.0000
  H   H3        1.0  0.50682  0.29428  0.17448  1.0000
  H   H4        1.0  0.99319  0.82551  0.70570  1.0000
  H   H5        1.0  0.66278  0.67785  0.51117  1.0000
  H   H6        1.0  0.83720  0.48884  0.32215  1.0000
  H   H7        1.0  0.33722  0.32215  0.48883  1.0000
  H   H8        1.0  0.16279  0.51116  0.67785  1.0000
  C   C1        1.0  0.49628  0.83758  0.67959  1.0000
  C   C2        1.0  0.00371  0.32042  0.16242  1.0000
  C   C3        1.0  0.50373  0.16241  0.32041  1.0000
  C   C4        1.0  0.99629  0.67959  0.83757  1.0000
  C   C5        1.0  0.59051  0.82268  0.50500  1.0000
  C   C6        1.0  0.90948  0.49502  0.17730  1.0000
  C   C7        1.0  0.40949  0.17730  0.49501  1.0000
  C   C8        1.0  0.09052  0.50499  0.82269  1.0000
  N   N1        1.0  0.40562  0.01452  0.67479  1.0000
  N   N2        1.0  0.09440  0.32521  0.98547  1.0000
  N   N3        1.0  0.59439  0.98546  0.32522  1.0000
  N   N4        1.0  0.90561  0.67480  0.01451  1.0000
  N   N5        1.0  0.25000  0.66163  0.33838  1.0000
  N   N6        1.0  0.74999  0.33839  0.66163  1.0000
  O   O1        1.0  0.12445  0.81967  0.32519  1.0000
  O   O2        1.0  0.37556  0.67481  0.18034  1.0000
  O   O3        1.0  0.87555  0.18035  0.67482  1.0000
  O   O4        1.0  0.62443  0.32521  0.81967  1.0000
