data_image0
_chemical_formula_structural       H30Pb2C40N6O10
_chemical_formula_sum              "H30 Pb2 C40 N6 O10"
_cell_length_a       8.22418
_cell_length_b       9.91015
_cell_length_c       11.6603
_cell_angle_alpha    95.8407
_cell_angle_beta     101.937
_cell_angle_gamma    96.4858

_space_group_name_H-M_alt    "P 1"
_space_group_IT_number       1

loop_
  _space_group_symop_operation_xyz
  'x, y, z'

loop_
  _atom_site_type_symbol
  _atom_site_label
  _atom_site_symmetry_multiplicity
  _atom_site_fract_x
  _atom_site_fract_y
  _atom_site_fract_z
  _atom_site_occupancy
  H   H1        1.0  0.98457  0.85007  0.65109  1.0000
  H   H2        1.0  0.01543  0.14993  0.34891  1.0000
  H   H3        1.0  0.97458  0.09401  0.72465  1.0000
  H   H4        1.0  0.02542  0.90599  0.27535  1.0000
  H   H5        1.0  0.18838  0.27798  0.69148  1.0000
  H   H6        1.0  0.81162  0.72202  0.30851  1.0000
  H   H7        1.0  0.40634  0.21636  0.58326  1.0000
  H   H8        1.0  0.59367  0.78364  0.41674  1.0000
  H   H9        1.0  0.63777  0.78173  0.68552  1.0000
  H   H10       1.0  0.36223  0.21827  0.31448  1.0000
  H   H11       1.0  0.85821  0.93051  0.83954  1.0000
  H   H12       1.0  0.14178  0.06950  0.16046  1.0000
  H   H13       1.0  0.91105  0.88095  0.04805  1.0000
  H   H14       1.0  0.08894  0.11905  0.95195  1.0000
  H   H15       1.0  0.74201  0.68014  0.10196  1.0000
  H   H16       1.0  0.25799  0.31986  0.89803  1.0000
  H   H17       1.0  0.92134  0.48551  0.26572  1.0000
  H   H18       1.0  0.07866  0.51449  0.73428  1.0000
  H   H19       1.0  0.07487  0.55153  0.20864  1.0000
  H   H20       1.0  0.92513  0.44847  0.79135  1.0000
  H   H21       1.0  0.29970  0.75982  0.29567  1.0000
  H   H22       1.0  0.70029  0.24018  0.70432  1.0000
  H   H23       1.0  0.46487  0.93238  0.21324  1.0000
  H   H24       1.0  0.53513  0.06762  0.78677  1.0000
  H   H25       1.0  0.20240  0.73815  0.86387  1.0000
  H   H26       1.0  0.79760  0.26185  0.13613  1.0000
  H   H27       1.0  0.04158  0.57832  0.96057  1.0000
  H   H28       1.0  0.95843  0.42168  0.03943  1.0000
  H   H29       1.0  0.40336  0.93407  0.87546  1.0000
  H   H30       1.0  0.59664  0.06594  0.12455  1.0000
  Pb  Pb1       1.0  0.23133  0.46175  0.45400  1.0000
  Pb  Pb2       1.0  0.76868  0.53825  0.54600  1.0000
  C   C1        1.0  0.19739  0.74929  0.53001  1.0000
  C   C2        1.0  0.80261  0.25071  0.46999  1.0000
  C   C3        1.0  0.19556  0.89601  0.57372  1.0000
  C   C4        1.0  0.80445  0.10399  0.42628  1.0000
  C   C5        1.0  0.07561  0.93166  0.63649  1.0000
  C   C6        1.0  0.92440  0.06834  0.36351  1.0000
  C   C7        1.0  0.07191  0.06776  0.67887  1.0000
  C   C8        1.0  0.92809  0.93224  0.32113  1.0000
  C   C9        1.0  0.19068  0.17085  0.66015  1.0000
  C   C10       1.0  0.80932  0.82915  0.33985  1.0000
  C   C11       1.0  0.31258  0.13757  0.59919  1.0000
  C   C12       1.0  0.68742  0.86243  0.40082  1.0000
  C   C13       1.0  0.31503  0.00080  0.55526  1.0000
  C   C14       1.0  0.68497  0.99919  0.44474  1.0000
  C   C15       1.0  0.44818  0.54774  0.71163  1.0000
  C   C16       1.0  0.55182  0.45226  0.28837  1.0000
  C   C17       1.0  0.57188  0.64429  0.80594  1.0000
  C   C18       1.0  0.42811  0.35571  0.19406  1.0000
  C   C19       1.0  0.66402  0.75839  0.77657  1.0000
  C   C20       1.0  0.33599  0.24162  0.22343  1.0000
  C   C21       1.0  0.78559  0.84295  0.86335  1.0000
  C   C22       1.0  0.21440  0.15704  0.13664  1.0000
  C   C23       1.0  0.81472  0.81550  0.98067  1.0000
  C   C24       1.0  0.18528  0.18450  0.01934  1.0000
  C   C25       1.0  0.72166  0.70453  0.01156  1.0000
  C   C26       1.0  0.27834  0.29547  0.98845  1.0000
  C   C27       1.0  0.59955  0.61881  0.92443  1.0000
  C   C28       1.0  0.40044  0.38119  0.07557  1.0000
  C   C29       1.0  0.27984  0.75885  0.20003  1.0000
  C   C30       1.0  0.72016  0.24114  0.79996  1.0000
  C   C31       1.0  0.37325  0.85554  0.15305  1.0000
  C   C32       1.0  0.62674  0.14446  0.84695  1.0000
  C   C33       1.0  0.34828  0.85198  0.02954  1.0000
  C   C34       1.0  0.65171  0.14802  0.97046  1.0000
  C   C35       1.0  0.22701  0.74827  0.96012  1.0000
  C   C36       1.0  0.77299  0.25173  0.03988  1.0000
  C   C37       1.0  0.13784  0.65665  0.01469  1.0000
  C   C38       1.0  0.86216  0.34334  0.98531  1.0000
  C   C39       1.0  0.43935  0.94877  0.97199  1.0000
  C   C40       1.0  0.56065  0.05124  0.02801  1.0000
  N   N1        1.0  0.42574  0.97112  0.48067  1.0000
  N   N2        1.0  0.57427  0.02888  0.51933  1.0000
  N   N3        1.0  0.50599  0.49980  0.94686  1.0000
  N   N4        1.0  0.49401  0.50020  0.05314  1.0000
  N   N5        1.0  0.16219  0.66059  0.13260  1.0000
  N   N6        1.0  0.83781  0.33941  0.86740  1.0000
  O   O1        1.0  0.06521  0.66354  0.51809  1.0000
  O   O2        1.0  0.93480  0.33646  0.48192  1.0000
  O   O3        1.0  0.33193  0.71321  0.50522  1.0000
  O   O4        1.0  0.66807  0.28679  0.49478  1.0000
  O   O5        1.0  0.29360  0.53321  0.71054  1.0000
  O   O6        1.0  0.70640  0.46679  0.28945  1.0000
  O   O7        1.0  0.50976  0.48549  0.63175  1.0000
  O   O8        1.0  0.49023  0.51451  0.36825  1.0000
  O   O9        1.0  0.03861  0.48128  0.26026  1.0000
  O   O10       1.0  0.96139  0.51872  0.73975  1.0000
