data_image0
_chemical_formula_structural       Cd4H12C28N4O16
_chemical_formula_sum              "Cd4 H12 C28 N4 O16"
_cell_length_a       6.71726
_cell_length_b       9.56326
_cell_length_c       11.2133
_cell_angle_alpha    89.9996
_cell_angle_beta     103.444
_cell_angle_gamma    90.0003

_space_group_name_H-M_alt    "P 1"
_space_group_IT_number       1

loop_
  _space_group_symop_operation_xyz
  'x, y, z'

loop_
  _atom_site_type_symbol
  _atom_site_label
  _atom_site_symmetry_multiplicity
  _atom_site_fract_x
  _atom_site_fract_y
  _atom_site_fract_z
  _atom_site_occupancy
  Cd  Cd1       1.0  0.18810  0.85535  0.97777  1.0000
  Cd  Cd2       1.0  0.31189  0.35535  0.52223  1.0000
  Cd  Cd3       1.0  0.81190  0.14465  0.02223  1.0000
  Cd  Cd4       1.0  0.68811  0.64465  0.47777  1.0000
  H   H1        1.0  0.44919  0.38134  0.19157  1.0000
  H   H2        1.0  0.05078  0.88134  0.30844  1.0000
  H   H3        1.0  0.55081  0.61866  0.80843  1.0000
  H   H4        1.0  0.94920  0.11866  0.69157  1.0000
  H   H5        1.0  0.10651  0.31078  0.81905  1.0000
  H   H6        1.0  0.39352  0.81077  0.68095  1.0000
  H   H7        1.0  0.89349  0.68923  0.18095  1.0000
  H   H8        1.0  0.60649  0.18923  0.31905  1.0000
  H   H9        1.0  0.05456  0.56946  0.79894  1.0000
  H   H10       1.0  0.44544  0.06946  0.70107  1.0000
  H   H11       1.0  0.94544  0.43054  0.20106  1.0000
  H   H12       1.0  0.55456  0.93054  0.29893  1.0000
  C   C1        1.0  0.40039  0.66186  0.18850  1.0000
  C   C2        1.0  0.09962  0.16186  0.31149  1.0000
  C   C3        1.0  0.59961  0.33814  0.81150  1.0000
  C   C4        1.0  0.90038  0.83814  0.68851  1.0000
  C   C5        1.0  0.32049  0.55951  0.08530  1.0000
  C   C6        1.0  0.17951  0.05951  0.41471  1.0000
  C   C7        1.0  0.67951  0.44049  0.91470  1.0000
  C   C8        1.0  0.82049  0.94049  0.58529  1.0000
  C   C9        1.0  0.36040  0.41738  0.10323  1.0000
  C   C10       1.0  0.13958  0.91738  0.39677  1.0000
  C   C11       1.0  0.63959  0.58262  0.89676  1.0000
  C   C12       1.0  0.86041  0.08262  0.60323  1.0000
  C   C13       1.0  0.28125  0.32457  0.00792  1.0000
  C   C14       1.0  0.21875  0.82457  0.49208  1.0000
  C   C15       1.0  0.71875  0.67543  0.99208  1.0000
  C   C16       1.0  0.78125  0.17543  0.50792  1.0000
  C   C17       1.0  0.16967  0.37855  0.89659  1.0000
  C   C18       1.0  0.33034  0.87854  0.60340  1.0000
  C   C19       1.0  0.83034  0.62145  0.10340  1.0000
  C   C20       1.0  0.66966  0.12146  0.39660  1.0000
  C   C21       1.0  0.14053  0.52276  0.88439  1.0000
  C   C22       1.0  0.35947  0.02276  0.61562  1.0000
  C   C23       1.0  0.85947  0.47724  0.11561  1.0000
  C   C24       1.0  0.64053  0.97724  0.38439  1.0000
  C   C25       1.0  0.31606  0.17005  0.02767  1.0000
  C   C26       1.0  0.18394  0.67005  0.47233  1.0000
  C   C27       1.0  0.68394  0.82995  0.97233  1.0000
  C   C28       1.0  0.81606  0.32995  0.52767  1.0000
  N   N1        1.0  0.21179  0.61077  0.97778  1.0000
  N   N2        1.0  0.28821  0.11078  0.52222  1.0000
  N   N3        1.0  0.78821  0.38923  0.02222  1.0000
  N   N4        1.0  0.71179  0.88923  0.47777  1.0000
  O   O1        1.0  0.34920  0.78992  0.17406  1.0000
  O   O2        1.0  0.15084  0.28992  0.32593  1.0000
  O   O3        1.0  0.65080  0.21008  0.82594  1.0000
  O   O4        1.0  0.84916  0.71008  0.67407  1.0000
  O   O5        1.0  0.51585  0.60837  0.28253  1.0000
  O   O6        1.0  0.98417  0.10837  0.21747  1.0000
  O   O7        1.0  0.48416  0.39163  0.71747  1.0000
  O   O8        1.0  0.01582  0.89163  0.78253  1.0000
  O   O9        1.0  0.48946  0.12605  0.08248  1.0000
  O   O10       1.0  0.01056  0.62605  0.41752  1.0000
  O   O11       1.0  0.51055  0.87395  0.91751  1.0000
  O   O12       1.0  0.98945  0.37394  0.58249  1.0000
  O   O13       1.0  0.15788  0.09297  0.98696  1.0000
  O   O14       1.0  0.34214  0.59297  0.51304  1.0000
  O   O15       1.0  0.84212  0.90703  0.01304  1.0000
  O   O16       1.0  0.65787  0.40704  0.48696  1.0000
