data_image0
_chemical_formula_structural       Cu2H8C6N14
_chemical_formula_sum              "Cu2 H8 C6 N14"
_cell_length_a       5.86913
_cell_length_b       7.50142
_cell_length_c       8.07005
_cell_angle_alpha    77.4309
_cell_angle_beta     78.4694
_cell_angle_gamma    82.5271

_space_group_name_H-M_alt    "P 1"
_space_group_IT_number       1

loop_
  _space_group_symop_operation_xyz
  'x, y, z'

loop_
  _atom_site_type_symbol
  _atom_site_label
  _atom_site_symmetry_multiplicity
  _atom_site_fract_x
  _atom_site_fract_y
  _atom_site_fract_z
  _atom_site_occupancy
  Cu  Cu1       1.0  0.23623  0.46573  0.08613  1.0000
  Cu  Cu2       1.0  0.76376  0.53427  0.91386  1.0000
  H   H1        1.0  0.35931  0.15048  0.35286  1.0000
  H   H2        1.0  0.64071  0.84953  0.64714  1.0000
  H   H3        1.0  0.46402  0.17699  0.53719  1.0000
  H   H4        1.0  0.53598  0.82304  0.46281  1.0000
  H   H5        1.0  0.53958  0.32792  0.33365  1.0000
  H   H6        1.0  0.46041  0.67209  0.66637  1.0000
  H   H7        1.0  0.83943  0.69060  0.25859  1.0000
  H   H8        1.0  0.16057  0.30941  0.74141  1.0000
  C   C1        1.0  0.40006  0.25138  0.42058  1.0000
  C   C2        1.0  0.59998  0.74864  0.57942  1.0000
  C   C3        1.0  0.19122  0.37945  0.46258  1.0000
  C   C4        1.0  0.80879  0.62055  0.53744  1.0000
  C   C5        1.0  0.90778  0.60442  0.36799  1.0000
  C   C6        1.0  0.09223  0.39559  0.63201  1.0000
  N   N1        1.0  0.01051  0.30677  0.05476  1.0000
  N   N2        1.0  0.98948  0.69322  0.94523  1.0000
  N   N3        1.0  0.95446  0.17052  0.16029  1.0000
  N   N4        1.0  0.04552  0.82945  0.83972  1.0000
  N   N5        1.0  0.89619  0.03958  0.25874  1.0000
  N   N6        1.0  0.10379  0.96042  0.74126  1.0000
  N   N7        1.0  0.48497  0.63546  0.07207  1.0000
  N   N8        1.0  0.51503  0.36452  0.92793  1.0000
  N   N9        1.0  0.45347  0.77489  0.13053  1.0000
  N   N10       1.0  0.54653  0.22508  0.86947  1.0000
  N   N11       1.0  0.42272  0.90669  0.18786  1.0000
  N   N12       1.0  0.57726  0.09329  0.81214  1.0000
  N   N13       1.0  0.09372  0.48623  0.33223  1.0000
  N   N14       1.0  0.90626  0.51379  0.66777  1.0000
