data_image0
_chemical_formula_structural       Na4Gd4H24C20O40
_chemical_formula_sum              "Na4 Gd4 H24 C20 O40"
_cell_length_a       6.20687
_cell_length_b       9.5278
_cell_length_c       15.6683
_cell_angle_alpha    90.0001
_cell_angle_beta     92.714
_cell_angle_gamma    90.0004

_space_group_name_H-M_alt    "P 1"
_space_group_IT_number       1

loop_
  _space_group_symop_operation_xyz
  'x, y, z'

loop_
  _atom_site_type_symbol
  _atom_site_label
  _atom_site_symmetry_multiplicity
  _atom_site_fract_x
  _atom_site_fract_y
  _atom_site_fract_z
  _atom_site_occupancy
  Na  Na1       1.0  0.98094  0.96876  0.27318  1.0000
  Na  Na2       1.0  0.01905  0.46876  0.22682  1.0000
  Na  Na3       1.0  0.01906  0.03124  0.72682  1.0000
  Na  Na4       1.0  0.98095  0.53124  0.77318  1.0000
  Gd  Gd1       1.0  0.43412  0.97450  0.12141  1.0000
  Gd  Gd2       1.0  0.56588  0.47450  0.37859  1.0000
  Gd  Gd3       1.0  0.56590  0.02550  0.87859  1.0000
  Gd  Gd4       1.0  0.43411  0.52549  0.62141  1.0000
  H   H1        1.0  0.66379  0.47097  0.07466  1.0000
  H   H2        1.0  0.33621  0.97097  0.42534  1.0000
  H   H3        1.0  0.33622  0.52903  0.92534  1.0000
  H   H4        1.0  0.66378  0.02903  0.57467  1.0000
  H   H5        1.0  0.38003  0.47526  0.08273  1.0000
  H   H6        1.0  0.61996  0.97525  0.41727  1.0000
  H   H7        1.0  0.61996  0.52474  0.91727  1.0000
  H   H8        1.0  0.38002  0.02474  0.58273  1.0000
  H   H9        1.0  0.06063  0.71793  0.35359  1.0000
  H   H10       1.0  0.93937  0.21793  0.14641  1.0000
  H   H11       1.0  0.93936  0.28207  0.64640  1.0000
  H   H12       1.0  0.06064  0.78207  0.85360  1.0000
  H   H13       1.0  0.85936  0.77169  0.40026  1.0000
  H   H14       1.0  0.14064  0.27169  0.09974  1.0000
  H   H15       1.0  0.14064  0.22831  0.59974  1.0000
  H   H16       1.0  0.85937  0.72831  0.90026  1.0000
  H   H17       1.0  0.06086  0.21599  0.36772  1.0000
  H   H18       1.0  0.93914  0.71599  0.13228  1.0000
  H   H19       1.0  0.93914  0.78401  0.63228  1.0000
  H   H20       1.0  0.06086  0.28402  0.86772  1.0000
  H   H21       1.0  0.87180  0.16585  0.42193  1.0000
  H   H22       1.0  0.12820  0.66585  0.07807  1.0000
  H   H23       1.0  0.12821  0.83415  0.57807  1.0000
  H   H24       1.0  0.87179  0.33415  0.92193  1.0000
  C   C1        1.0  0.62184  0.21756  0.24753  1.0000
  C   C2        1.0  0.37815  0.71758  0.25247  1.0000
  C   C3        1.0  0.37816  0.78244  0.75247  1.0000
  C   C4        1.0  0.62185  0.28242  0.74753  1.0000
  C   C5        1.0  0.38022  0.21305  0.26499  1.0000
  C   C6        1.0  0.61977  0.71307  0.23500  1.0000
  C   C7        1.0  0.61978  0.78695  0.73501  1.0000
  C   C8        1.0  0.38023  0.28694  0.76500  1.0000
  C   C9        1.0  0.93634  0.99081  0.04046  1.0000
  C   C10       1.0  0.06367  0.49081  0.45954  1.0000
  C   C11       1.0  0.06368  0.00920  0.95954  1.0000
  C   C12       1.0  0.93633  0.50919  0.54045  1.0000
  C   C13       1.0  0.50279  0.29620  0.01958  1.0000
  C   C14       1.0  0.49721  0.79620  0.48042  1.0000
  C   C15       1.0  0.49722  0.70380  0.98042  1.0000
  C   C16       1.0  0.50277  0.20379  0.51958  1.0000
  C   C17       1.0  0.50865  0.45229  0.03914  1.0000
  C   C18       1.0  0.49134  0.95228  0.46086  1.0000
  C   C19       1.0  0.49134  0.54771  0.96085  1.0000
  C   C20       1.0  0.50864  0.04771  0.53914  1.0000
  O   O1        1.0  0.69778  0.11495  0.20678  1.0000
  O   O2        1.0  0.30221  0.61493  0.29323  1.0000
  O   O3        1.0  0.30222  0.88506  0.79322  1.0000
  O   O4        1.0  0.69780  0.38506  0.70677  1.0000
  O   O5        1.0  0.72534  0.32309  0.27518  1.0000
  O   O6        1.0  0.27467  0.82308  0.22483  1.0000
  O   O7        1.0  0.27466  0.67691  0.72482  1.0000
  O   O8        1.0  0.72534  0.17692  0.77517  1.0000
  O   O9        1.0  0.27601  0.10880  0.23560  1.0000
  O   O10       1.0  0.72400  0.60879  0.26440  1.0000
  O   O11       1.0  0.72400  0.89120  0.76440  1.0000
  O   O12       1.0  0.27601  0.39121  0.73560  1.0000
  O   O13       1.0  0.30517  0.31474  0.30677  1.0000
  O   O14       1.0  0.69482  0.81473  0.19324  1.0000
  O   O15       1.0  0.69483  0.68526  0.69323  1.0000
  O   O16       1.0  0.30519  0.18527  0.80677  1.0000
  O   O17       1.0  0.73159  0.99550  0.02995  1.0000
  O   O18       1.0  0.26841  0.49550  0.47005  1.0000
  O   O19       1.0  0.26843  0.00450  0.97005  1.0000
  O   O20       1.0  0.73157  0.50450  0.52995  1.0000
  O   O21       1.0  0.04320  0.97282  0.10960  1.0000
  O   O22       1.0  0.95680  0.47282  0.39040  1.0000
  O   O23       1.0  0.95682  0.02718  0.89041  1.0000
  O   O24       1.0  0.04318  0.52718  0.60959  1.0000
  O   O25       1.0  0.41560  0.21724  0.07454  1.0000
  O   O26       1.0  0.58440  0.71724  0.42546  1.0000
  O   O27       1.0  0.58442  0.78276  0.92546  1.0000
  O   O28       1.0  0.41558  0.28276  0.57454  1.0000
  O   O29       1.0  0.58754  0.25022  0.95247  1.0000
  O   O30       1.0  0.41246  0.75021  0.54753  1.0000
  O   O31       1.0  0.41247  0.74979  0.04753  1.0000
  O   O32       1.0  0.58753  0.24978  0.45247  1.0000
  O   O33       1.0  0.00354  0.79974  0.38281  1.0000
  O   O34       1.0  0.99646  0.29974  0.11719  1.0000
  O   O35       1.0  0.99646  0.20026  0.61719  1.0000
  O   O36       1.0  0.00355  0.70026  0.88281  1.0000
  O   O37       1.0  0.99793  0.13191  0.39256  1.0000
  O   O38       1.0  0.00207  0.63191  0.10744  1.0000
  O   O39       1.0  0.00207  0.86809  0.60743  1.0000
  O   O40       1.0  0.99792  0.36809  0.89256  1.0000
