data_image0
_chemical_formula_structural       Mg4H32C52N4O20
_chemical_formula_sum              "Mg4 H32 C52 N4 O20"
_cell_length_a       12.5225
_cell_length_b       12.5225
_cell_length_c       13.4245
_cell_angle_alpha    63.1684
_cell_angle_beta     63.1682
_cell_angle_gamma    88.1042

_space_group_name_H-M_alt    "P 1"
_space_group_IT_number       1

loop_
  _space_group_symop_operation_xyz
  'x, y, z'

loop_
  _atom_site_type_symbol
  _atom_site_label
  _atom_site_symmetry_multiplicity
  _atom_site_fract_x
  _atom_site_fract_y
  _atom_site_fract_z
  _atom_site_occupancy
  Mg  Mg1       1.0  0.30779  0.69221  0.75000  1.0000
  Mg  Mg2       1.0  0.69221  0.30779  0.25000  1.0000
  Mg  Mg3       1.0  0.50000  1.00000  0.50000  1.0000
  Mg  Mg4       1.0  0.00000  0.50000  1.00000  1.0000
  H   H1        1.0  0.39763  0.65409  0.00800  1.0000
  H   H2        1.0  0.34591  0.60237  0.49200  1.0000
  H   H3        1.0  0.60237  0.34592  0.99200  1.0000
  H   H4        1.0  0.65409  0.39763  0.50800  1.0000
  H   H5        1.0  0.51889  0.54104  0.11363  1.0000
  H   H6        1.0  0.45896  0.48111  0.38637  1.0000
  H   H7        1.0  0.48111  0.45896  0.88637  1.0000
  H   H8        1.0  0.54104  0.51889  0.61363  1.0000
  H   H9        1.0  0.85248  0.74460  0.75963  1.0000
  H   H10       1.0  0.25540  0.14752  0.74037  1.0000
  H   H11       1.0  0.14752  0.25540  0.24037  1.0000
  H   H12       1.0  0.74460  0.85248  0.25963  1.0000
  H   H13       1.0  0.73043  0.86231  0.65638  1.0000
  H   H14       1.0  0.13769  0.26957  0.84362  1.0000
  H   H15       1.0  0.26957  0.13769  0.34362  1.0000
  H   H16       1.0  0.86231  0.73043  0.15638  1.0000
  H   H17       1.0  0.25531  0.79338  0.50757  1.0000
  H   H18       1.0  0.20662  0.74469  0.99243  1.0000
  H   H19       1.0  0.74469  0.20662  0.49243  1.0000
  H   H20       1.0  0.79338  0.25531  0.00757  1.0000
  H   H21       1.0  0.09228  0.85002  0.44691  1.0000
  H   H22       1.0  0.14998  0.90772  0.05309  1.0000
  H   H23       1.0  0.90772  0.14998  0.55309  1.0000
  H   H24       1.0  0.85002  0.09228  0.94691  1.0000
  H   H25       1.0  0.04471  0.10561  0.59176  1.0000
  H   H26       1.0  0.89439  0.95529  0.90824  1.0000
  H   H27       1.0  0.95529  0.89439  0.40824  1.0000
  H   H28       1.0  0.10561  0.04471  0.09176  1.0000
  H   H29       1.0  0.21502  0.04020  0.63956  1.0000
  H   H30       1.0  0.95980  0.78498  0.86044  1.0000
  H   H31       1.0  0.78498  0.95980  0.36044  1.0000
  H   H32       1.0  0.04020  0.21502  0.13956  1.0000
  C   C1        1.0  0.55751  0.76743  0.82621  1.0000
  C   C2        1.0  0.23258  0.44249  0.67379  1.0000
  C   C3        1.0  0.44249  0.23258  0.17379  1.0000
  C   C4        1.0  0.76743  0.55751  0.32621  1.0000
  C   C5        1.0  0.49745  0.67681  0.95547  1.0000
  C   C6        1.0  0.32319  0.50255  0.54453  1.0000
  C   C7        1.0  0.50255  0.32319  0.04453  1.0000
  C   C8        1.0  0.67681  0.49745  0.45547  1.0000
  C   C9        1.0  0.56436  0.61336  0.01392  1.0000
  C   C10       1.0  0.38664  0.43564  0.48608  1.0000
  C   C11       1.0  0.43564  0.38664  0.98608  1.0000
  C   C12       1.0  0.61336  0.56436  0.51392  1.0000
  C   C13       1.0  0.69266  0.63746  0.94353  1.0000
  C   C14       1.0  0.36254  0.30734  0.55647  1.0000
  C   C15       1.0  0.30734  0.36254  0.05647  1.0000
  C   C16       1.0  0.63746  0.69266  0.44353  1.0000
  C   C17       1.0  0.75294  0.72864  0.81444  1.0000
  C   C18       1.0  0.27136  0.24706  0.68556  1.0000
  C   C19       1.0  0.24706  0.27136  0.18556  1.0000
  C   C20       1.0  0.72864  0.75294  0.31444  1.0000
  C   C21       1.0  0.68571  0.79347  0.75702  1.0000
  C   C22       1.0  0.20653  0.31429  0.74298  1.0000
  C   C23       1.0  0.31429  0.20653  0.24298  1.0000
  C   C24       1.0  0.79348  0.68571  0.25702  1.0000
  C   C25       1.0  0.48607  0.82751  0.75863  1.0000
  C   C26       1.0  0.17249  0.51393  0.74137  1.0000
  C   C27       1.0  0.51393  0.17249  0.24137  1.0000
  C   C28       1.0  0.82751  0.48607  0.25863  1.0000
  C   C29       1.0  0.76246  0.56060  0.00569  1.0000
  C   C30       1.0  0.43940  0.23754  0.49431  1.0000
  C   C31       1.0  0.23754  0.43940  0.99431  1.0000
  C   C32       1.0  0.56060  0.76246  0.50569  1.0000
  C   C33       1.0  0.20454  0.86188  0.52178  1.0000
  C   C34       1.0  0.13812  0.79546  0.97821  1.0000
  C   C35       1.0  0.79546  0.13812  0.47822  1.0000
  C   C36       1.0  0.86188  0.20454  0.02178  1.0000
  C   C37       1.0  0.11263  0.89473  0.49134  1.0000
  C   C38       1.0  0.10527  0.88737  0.00867  1.0000
  C   C39       1.0  0.88737  0.10527  0.50867  1.0000
  C   C40       1.0  0.89473  0.11263  0.99133  1.0000
  C   C41       1.0  0.04886  0.98209  0.51628  1.0000
  C   C42       1.0  0.01791  0.95114  0.98373  1.0000
  C   C43       1.0  0.95114  0.01791  0.48373  1.0000
  C   C44       1.0  0.98209  0.04886  0.01627  1.0000
  C   C45       1.0  0.08594  0.03486  0.57175  1.0000
  C   C46       1.0  0.96514  0.91406  0.92826  1.0000
  C   C47       1.0  0.91406  0.96514  0.42826  1.0000
  C   C48       1.0  0.03486  0.08594  0.07174  1.0000
  C   C49       1.0  0.17830  0.00046  0.60117  1.0000
  C   C50       1.0  0.99954  0.82170  0.89883  1.0000
  C   C51       1.0  0.82170  0.99954  0.39883  1.0000
  C   C52       1.0  0.00046  0.17830  0.10117  1.0000
  N   N1        1.0  0.23469  0.91301  0.57836  1.0000
  N   N2        1.0  0.08699  0.76531  0.92164  1.0000
  N   N3        1.0  0.76531  0.08699  0.42164  1.0000
  N   N4        1.0  0.91301  0.23469  0.07836  1.0000
  O   O1        1.0  0.37278  0.77717  0.81682  1.0000
  O   O2        1.0  0.22283  0.62722  0.68318  1.0000
  O   O3        1.0  0.62722  0.22283  0.18318  1.0000
  O   O4        1.0  0.77717  0.37278  0.31682  1.0000
  O   O5        1.0  0.54207  0.92010  0.64757  1.0000
  O   O6        1.0  0.07990  0.45793  0.85243  1.0000
  O   O7        1.0  0.45793  0.07990  0.35243  1.0000
  O   O8        1.0  0.92010  0.54207  0.14757  1.0000
  O   O9        1.0  0.69943  0.47601  0.12041  1.0000
  O   O10       1.0  0.52399  0.30057  0.37959  1.0000
  O   O11       1.0  0.30057  0.52399  0.87959  1.0000
  O   O12       1.0  0.47601  0.69943  0.62041  1.0000
  O   O13       1.0  0.87911  0.58470  0.93910  1.0000
  O   O14       1.0  0.41530  0.12088  0.56090  1.0000
  O   O15       1.0  0.12088  0.41530  0.06090  1.0000
  O   O16       1.0  0.58470  0.87912  0.43910  1.0000
  O   O17       1.0  0.31993  0.87852  0.61101  1.0000
  O   O18       1.0  0.12148  0.68007  0.88899  1.0000
  O   O19       1.0  0.68007  0.12148  0.38899  1.0000
  O   O20       1.0  0.87852  0.31993  0.11101  1.0000
