data_image0
_chemical_formula_structural       Cd2H38C30S4N6O14
_chemical_formula_sum              "Cd2 H38 C30 S4 N6 O14"
_cell_length_a       4.96243
_cell_length_b       10.5391
_cell_length_c       18.407
_cell_angle_alpha    95.9858
_cell_angle_beta     90
_cell_angle_gamma    90

_space_group_name_H-M_alt    "P 1"
_space_group_IT_number       1

loop_
  _space_group_symop_operation_xyz
  'x, y, z'

loop_
  _atom_site_type_symbol
  _atom_site_label
  _atom_site_symmetry_multiplicity
  _atom_site_fract_x
  _atom_site_fract_y
  _atom_site_fract_z
  _atom_site_occupancy
  Cd  Cd1       1.0  0.54785  0.29367  0.85937  1.0000
  Cd  Cd2       1.0  0.04784  0.70633  0.14063  1.0000
  H   H1        1.0  0.74800  0.56614  0.79734  1.0000
  H   H2        1.0  0.24800  0.43386  0.20266  1.0000
  H   H3        1.0  0.49904  0.68473  0.70245  1.0000
  H   H4        1.0  0.99903  0.31527  0.29755  1.0000
  H   H5        1.0  0.09423  0.55938  0.64943  1.0000
  H   H6        1.0  0.59423  0.44062  0.35057  1.0000
  H   H7        1.0  0.08735  0.33799  0.72151  1.0000
  H   H8        1.0  0.58735  0.66201  0.27849  1.0000
  H   H9        1.0  0.72357  0.01343  0.78609  1.0000
  H   H10       1.0  0.22356  0.98657  0.21391  1.0000
  H   H11       1.0  0.84154  0.01507  0.91441  1.0000
  H   H12       1.0  0.34153  0.98494  0.08559  1.0000
  H   H13       1.0  0.14345  0.92627  0.89188  1.0000
  H   H14       1.0  0.64345  0.07373  0.10812  1.0000
  H   H15       1.0  0.52322  0.91186  0.97421  1.0000
  H   H16       1.0  0.02322  0.08814  0.02579  1.0000
  H   H17       1.0  0.40021  0.75233  0.95358  1.0000
  H   H18       1.0  0.90022  0.24767  0.04642  1.0000
  H   H19       1.0  0.24846  0.90368  0.73706  1.0000
  H   H20       1.0  0.74846  0.09632  0.26293  1.0000
  H   H21       1.0  0.56221  0.10742  0.68231  1.0000
  H   H22       1.0  0.06221  0.89257  0.31769  1.0000
  H   H23       1.0  0.59475  0.30659  0.62287  1.0000
  H   H24       1.0  0.09475  0.69341  0.37713  1.0000
  H   H25       1.0  0.28173  0.15719  0.49918  1.0000
  H   H26       1.0  0.78173  0.84281  0.50082  1.0000
  H   H27       1.0  0.25247  0.95654  0.55866  1.0000
  H   H28       1.0  0.75247  0.04346  0.44134  1.0000
  H   H29       1.0  0.15689  0.40338  0.51959  1.0000
  H   H30       1.0  0.65689  0.59662  0.48041  1.0000
  H   H31       1.0  0.81188  0.43639  0.54074  1.0000
  H   H32       1.0  0.31188  0.56361  0.45926  1.0000
  H   H33       1.0  0.90119  0.34031  0.45910  1.0000
  H   H34       1.0  0.40119  0.65969  0.54090  1.0000
  H   H35       1.0  0.98280  0.41880  0.93383  1.0000
  H   H36       1.0  0.48280  0.58120  0.06617  1.0000
  H   H37       1.0  0.76338  0.52433  0.95361  1.0000
  H   H38       1.0  0.26338  0.47567  0.04639  1.0000
  C   C1        1.0  0.57092  0.53256  0.76677  1.0000
  C   C2        1.0  0.07092  0.46744  0.23323  1.0000
  C   C3        1.0  0.22799  0.52491  0.68943  1.0000
  C   C4        1.0  0.72799  0.47509  0.31057  1.0000
  C   C5        1.0  0.22729  0.41720  0.72565  1.0000
  C   C6        1.0  0.72729  0.58280  0.27435  1.0000
  C   C7        1.0  0.09410  0.11895  0.80573  1.0000
  C   C8        1.0  0.59410  0.88105  0.19427  1.0000
  C   C9        1.0  0.93394  0.99407  0.79953  1.0000
  C   C10       1.0  0.43393  0.00593  0.20047  1.0000
  C   C11       1.0  0.93611  0.94377  0.87481  1.0000
  C   C12       1.0  0.43612  0.05623  0.12519  1.0000
  C   C13       1.0  0.58160  0.81213  0.95923  1.0000
  C   C14       1.0  0.08161  0.18787  0.04077  1.0000
  C   C15       1.0  0.76800  0.76522  0.01595  1.0000
  C   C16       1.0  0.26800  0.23478  0.98405  1.0000
  C   C17       1.0  0.90482  0.01999  0.62334  1.0000
  C   C18       1.0  0.40482  0.98001  0.37666  1.0000
  C   C19       1.0  0.72073  0.11825  0.64246  1.0000
  C   C20       1.0  0.22073  0.88175  0.35754  1.0000
  C   C21       1.0  0.74016  0.23032  0.60861  1.0000
  C   C22       1.0  0.24016  0.76968  0.39139  1.0000
  C   C23       1.0  0.93848  0.24531  0.55603  1.0000
  C   C24       1.0  0.43848  0.75469  0.44398  1.0000
  C   C25       1.0  0.12365  0.14590  0.53909  1.0000
  C   C26       1.0  0.62366  0.85410  0.46091  1.0000
  C   C27       1.0  0.10919  0.03357  0.57235  1.0000
  C   C28       1.0  0.60918  0.96643  0.42765  1.0000
  C   C29       1.0  0.95258  0.36322  0.51709  1.0000
  C   C30       1.0  0.45258  0.63678  0.48291  1.0000
  S   S1        1.0  0.73538  0.79930  0.86937  1.0000
  S   S2        1.0  0.23539  0.20070  0.13063  1.0000
  S   S3        1.0  0.88730  0.87621  0.66484  1.0000
  S   S4        1.0  0.38729  0.12379  0.33516  1.0000
  N   N1        1.0  0.44195  0.42352  0.77376  1.0000
  N   N2        1.0  0.94194  0.57648  0.22624  1.0000
  N   N3        1.0  0.44621  0.59617  0.71622  1.0000
  N   N4        1.0  0.94621  0.40383  0.28378  1.0000
  N   N5        1.0  0.04296  0.89752  0.74381  1.0000
  N   N6        1.0  0.54295  0.10248  0.25619  1.0000
  O   O1        1.0  0.33920  0.11452  0.78611  1.0000
  O   O2        1.0  0.83919  0.88548  0.21389  1.0000
  O   O3        1.0  0.97959  0.21958  0.83480  1.0000
  O   O4        1.0  0.47959  0.78042  0.16520  1.0000
  O   O5        1.0  0.93191  0.84270  0.04984  1.0000
  O   O6        1.0  0.43191  0.15730  0.95016  1.0000
  O   O7        1.0  0.75460  0.64751  0.02841  1.0000
  O   O8        1.0  0.25460  0.35249  0.97159  1.0000
  O   O9        1.0  0.03440  0.77851  0.62027  1.0000
  O   O10       1.0  0.53440  0.22149  0.37973  1.0000
  O   O11       1.0  0.60486  0.85357  0.68091  1.0000
  O   O12       1.0  0.10486  0.14643  0.31909  1.0000
  O   O13       1.0  0.81989  0.45827  0.91432  1.0000
  O   O14       1.0  0.31989  0.54173  0.08568  1.0000
