data_image0
_chemical_formula_structural       Cu2P2H26C36S2N4O12
_chemical_formula_sum              "Cu2 P2 H26 C36 S2 N4 O12"
_cell_length_a       8.35874
_cell_length_b       9.93981
_cell_length_c       11.1087
_cell_angle_alpha    79.4984
_cell_angle_beta     84.6797
_cell_angle_gamma    83.4032

_space_group_name_H-M_alt    "P 1"
_space_group_IT_number       1

loop_
  _space_group_symop_operation_xyz
  'x, y, z'

loop_
  _atom_site_type_symbol
  _atom_site_label
  _atom_site_symmetry_multiplicity
  _atom_site_fract_x
  _atom_site_fract_y
  _atom_site_fract_z
  _atom_site_occupancy
  Cu  Cu1       1.0  0.61048  0.54603  0.77624  1.0000
  Cu  Cu2       1.0  0.38953  0.45397  0.22375  1.0000
  P   P1        1.0  0.38242  0.68726  0.98587  1.0000
  P   P2        1.0  0.61758  0.31275  0.01413  1.0000
  H   H1        1.0  0.07553  0.67038  0.89112  1.0000
  H   H2        1.0  0.92447  0.32962  0.10888  1.0000
  H   H3        1.0  0.89972  0.09303  0.77808  1.0000
  H   H4        1.0  0.10028  0.90697  0.22192  1.0000
  H   H5        1.0  0.14048  0.16772  0.85700  1.0000
  H   H6        1.0  0.85952  0.83228  0.14300  1.0000
  H   H7        1.0  0.35064  0.99263  0.94980  1.0000
  H   H8        1.0  0.64936  0.00737  0.05020  1.0000
  H   H9        1.0  0.37183  0.81574  0.71648  1.0000
  H   H10       1.0  0.62816  0.18425  0.28352  1.0000
  H   H11       1.0  0.28941  0.96452  0.51825  1.0000
  H   H12       1.0  0.71058  0.03546  0.48176  1.0000
  H   H13       1.0  0.41042  0.90546  0.31981  1.0000
  H   H14       1.0  0.58958  0.09454  0.68019  1.0000
  H   H15       1.0  0.59304  0.73079  0.20879  1.0000
  H   H16       1.0  0.40696  0.26922  0.79122  1.0000
  H   H17       1.0  0.78961  0.52469  0.22188  1.0000
  H   H18       1.0  0.21039  0.47532  0.77812  1.0000
  H   H19       1.0  0.96317  0.33348  0.35678  1.0000
  H   H20       1.0  0.03683  0.66652  0.64321  1.0000
  H   H21       1.0  0.02695  0.21753  0.56662  1.0000
  H   H22       1.0  0.97305  0.78247  0.43338  1.0000
  H   H23       1.0  0.88014  0.31138  0.75051  1.0000
  H   H24       1.0  0.11986  0.68862  0.24949  1.0000
  H   H25       1.0  0.58707  0.81401  0.93950  1.0000
  H   H26       1.0  0.41293  0.18600  0.06050  1.0000
  C   C1        1.0  0.22862  0.81990  0.92648  1.0000
  C   C2        1.0  0.77138  0.18010  0.07351  1.0000
  C   C3        1.0  0.09235  0.77882  0.88309  1.0000
  C   C4        1.0  0.90765  0.22118  0.11690  1.0000
  C   C5        1.0  0.97731  0.87788  0.82864  1.0000
  C   C6        1.0  0.02269  0.12212  0.17137  1.0000
  C   C7        1.0  0.99365  0.01808  0.81873  1.0000
  C   C8        1.0  0.00634  0.98192  0.18128  1.0000
  C   C9        1.0  0.12749  0.05878  0.86290  1.0000
  C   C10       1.0  0.87250  0.94122  0.13710  1.0000
  C   C11       1.0  0.24554  0.96013  0.91618  1.0000
  C   C12       1.0  0.75445  0.03987  0.08383  1.0000
  C   C13       1.0  0.42278  0.79273  0.62795  1.0000
  C   C14       1.0  0.57722  0.20726  0.37205  1.0000
  C   C15       1.0  0.37744  0.87504  0.51727  1.0000
  C   C16       1.0  0.62256  0.12496  0.48274  1.0000
  C   C17       1.0  0.44374  0.84147  0.40636  1.0000
  C   C18       1.0  0.55626  0.15853  0.59364  1.0000
  C   C19       1.0  0.55638  0.72410  0.40653  1.0000
  C   C20       1.0  0.44363  0.27590  0.59347  1.0000
  C   C21       1.0  0.62915  0.67604  0.29800  1.0000
  C   C22       1.0  0.37086  0.32397  0.70200  1.0000
  C   C23       1.0  0.73860  0.56168  0.30518  1.0000
  C   C24       1.0  0.26141  0.43833  0.69482  1.0000
  C   C25       1.0  0.78548  0.48650  0.42142  1.0000
  C   C26       1.0  0.21452  0.51351  0.57858  1.0000
  C   C27       1.0  0.90092  0.37052  0.43670  1.0000
  C   C28       1.0  0.09908  0.62949  0.56329  1.0000
  C   C29       1.0  0.93743  0.30666  0.55381  1.0000
  C   C30       1.0  0.06257  0.69334  0.44619  1.0000
  C   C31       1.0  0.85742  0.35692  0.65603  1.0000
  C   C32       1.0  0.14258  0.64308  0.34397  1.0000
  C   C33       1.0  0.71194  0.53036  0.52948  1.0000
  C   C34       1.0  0.28806  0.46964  0.47052  1.0000
  C   C35       1.0  0.59649  0.64849  0.52234  1.0000
  C   C36       1.0  0.40352  0.35151  0.47767  1.0000
  S   S1        1.0  0.80879  0.82841  0.76578  1.0000
  S   S2        1.0  0.19121  0.17159  0.23422  1.0000
  N   N1        1.0  0.52982  0.68229  0.63030  1.0000
  N   N2        1.0  0.47018  0.31770  0.36970  1.0000
  N   N3        1.0  0.74684  0.46513  0.64355  1.0000
  N   N4        1.0  0.25317  0.53487  0.35645  1.0000
  O   O1        1.0  0.42896  0.60249  0.88442  1.0000
  O   O2        1.0  0.57104  0.39752  0.11558  1.0000
  O   O3        1.0  0.30751  0.61146  0.10572  1.0000
  O   O4        1.0  0.69249  0.38853  0.89428  1.0000
  O   O5        1.0  0.52694  0.76282  0.01584  1.0000
  O   O6        1.0  0.47307  0.23718  0.98415  1.0000
  O   O7        1.0  0.82862  0.87622  0.63347  1.0000
  O   O8        1.0  0.17138  0.12377  0.36654  1.0000
  O   O9        1.0  0.66315  0.90048  0.82307  1.0000
  O   O10       1.0  0.33685  0.09953  0.17692  1.0000
  O   O11       1.0  0.81614  0.67812  0.80318  1.0000
  O   O12       1.0  0.18385  0.32188  0.19682  1.0000
