data_image0
_chemical_formula_structural       Cu3H12C14N26
_chemical_formula_sum              "Cu3 H12 C14 N26"
_cell_length_a       7.57074
_cell_length_b       8.04497
_cell_length_c       10.255
_cell_angle_alpha    98.186
_cell_angle_beta     98.6811
_cell_angle_gamma    91.8695

_space_group_name_H-M_alt    "P 1"
_space_group_IT_number       1

loop_
  _space_group_symop_operation_xyz
  'x, y, z'

loop_
  _atom_site_type_symbol
  _atom_site_label
  _atom_site_symmetry_multiplicity
  _atom_site_fract_x
  _atom_site_fract_y
  _atom_site_fract_z
  _atom_site_occupancy
  Cu  Cu1       1.0  0.50001  0.00001  0.50000  1.0000
  Cu  Cu2       1.0  0.54776  0.37548  0.36319  1.0000
  Cu  Cu3       1.0  0.45224  0.62453  0.63681  1.0000
  H   H1        1.0  0.96507  0.62711  0.64778  1.0000
  H   H2        1.0  0.03492  0.37288  0.35222  1.0000
  H   H3        1.0  0.06665  0.93080  0.64714  1.0000
  H   H4        1.0  0.93335  0.06919  0.35286  1.0000
  H   H5        1.0  0.21923  0.09943  0.85816  1.0000
  H   H6        1.0  0.78077  0.90056  0.14184  1.0000
  H   H7        1.0  0.29369  0.77026  0.21117  1.0000
  H   H8        1.0  0.70632  0.22973  0.78883  1.0000
  H   H9        1.0  0.33041  0.23703  0.06607  1.0000
  H   H10       1.0  0.66958  0.76297  0.93393  1.0000
  H   H11       1.0  0.01852  0.51087  0.86233  1.0000
  H   H12       1.0  0.98148  0.48913  0.13767  1.0000
  C   C1        1.0  0.03111  0.70641  0.73803  1.0000
  C   C2        1.0  0.96888  0.29357  0.26197  1.0000
  C   C3        1.0  0.08673  0.87351  0.73795  1.0000
  C   C4        1.0  0.91327  0.12647  0.26205  1.0000
  C   C5        1.0  0.17184  0.96953  0.85642  1.0000
  C   C6        1.0  0.82816  0.03046  0.14357  1.0000
  C   C7        1.0  0.19468  0.88950  0.96929  1.0000
  C   C8        1.0  0.80533  0.11050  0.03071  1.0000
  C   C9        1.0  0.32332  0.90222  0.20826  1.0000
  C   C10       1.0  0.67668  0.09778  0.79174  1.0000
  C   C11       1.0  0.33926  0.14158  0.13163  1.0000
  C   C12       1.0  0.66074  0.85841  0.86837  1.0000
  C   C13       1.0  0.06093  0.64063  0.85805  1.0000
  C   C14       1.0  0.93907  0.35936  0.14195  1.0000
  N   N1        1.0  0.14139  0.73109  0.97296  1.0000
  N   N2        1.0  0.85862  0.26891  0.02704  1.0000
  N   N3        1.0  0.28189  0.97614  0.09619  1.0000
  N   N4        1.0  0.71811  0.02385  0.90381  1.0000
  N   N5        1.0  0.41193  0.16610  0.25880  1.0000
  N   N6        1.0  0.58807  0.83390  0.74120  1.0000
  N   N7        1.0  0.40150  0.01648  0.30677  1.0000
  N   N8        1.0  0.59850  0.98351  0.69323  1.0000
  N   N9        1.0  0.36371  0.77939  0.50535  1.0000
  N   N10       1.0  0.63630  0.22063  0.49465  1.0000
  N   N11       1.0  0.22084  0.73817  0.43409  1.0000
  N   N12       1.0  0.77918  0.26184  0.56593  1.0000
  N   N13       1.0  0.08561  0.69719  0.36614  1.0000
  N   N14       1.0  0.91442  0.30282  0.63388  1.0000
  N   N15       1.0  0.28803  0.44481  0.53611  1.0000
  N   N16       1.0  0.71196  0.55521  0.46387  1.0000
  N   N17       1.0  0.27685  0.30313  0.56024  1.0000
  N   N18       1.0  0.72314  0.69691  0.43974  1.0000
  N   N19       1.0  0.26054  0.16225  0.57483  1.0000
  N   N20       1.0  0.73946  0.83778  0.42517  1.0000
  N   N21       1.0  0.44592  0.50378  0.22400  1.0000
  N   N22       1.0  0.55404  0.49620  0.77599  1.0000
  N   N23       1.0  0.53939  0.57792  0.16368  1.0000
  N   N24       1.0  0.46059  0.42206  0.83631  1.0000
  N   N25       1.0  0.62125  0.65408  0.10191  1.0000
  N   N26       1.0  0.37875  0.34591  0.89810  1.0000
