data_image0
_chemical_formula_structural       Cd2H44C44N16Cl4
_chemical_formula_sum              "Cd2 H44 C44 N16 Cl4"
_cell_length_a       8.89171
_cell_length_b       10.9091
_cell_length_c       13.5129
_cell_angle_alpha    108.277
_cell_angle_beta     89.9999
_cell_angle_gamma    90.0001

_space_group_name_H-M_alt    "P 1"
_space_group_IT_number       1

loop_
  _space_group_symop_operation_xyz
  'x, y, z'

loop_
  _atom_site_type_symbol
  _atom_site_label
  _atom_site_symmetry_multiplicity
  _atom_site_fract_x
  _atom_site_fract_y
  _atom_site_fract_z
  _atom_site_occupancy
  Cd  Cd1       1.0  1.00000  0.50000  0.00000  1.0000
  Cd  Cd2       1.0  0.50000  0.50000  0.50000  1.0000
  H   H1        1.0  0.66366  0.13785  0.93230  1.0000
  H   H2        1.0  0.16366  0.86215  0.56771  1.0000
  H   H3        1.0  0.33634  0.86215  0.06770  1.0000
  H   H4        1.0  0.83634  0.13785  0.43229  1.0000
  H   H5        1.0  0.32306  0.29633  0.03160  1.0000
  H   H6        1.0  0.82307  0.70367  0.46840  1.0000
  H   H7        1.0  0.67694  0.70367  0.96839  1.0000
  H   H8        1.0  0.17694  0.29633  0.53160  1.0000
  H   H9        1.0  0.44786  0.32512  0.13784  1.0000
  H   H10       1.0  0.94787  0.67488  0.36216  1.0000
  H   H11       1.0  0.55213  0.67488  0.86216  1.0000
  H   H12       1.0  0.05214  0.32512  0.63783  1.0000
  H   H13       1.0  0.71842  0.39006  0.12106  1.0000
  H   H14       1.0  0.21842  0.60994  0.37894  1.0000
  H   H15       1.0  0.28158  0.60995  0.87894  1.0000
  H   H16       1.0  0.78158  0.39006  0.62106  1.0000
  H   H17       1.0  0.71220  0.41532  0.81604  1.0000
  H   H18       1.0  0.21221  0.58467  0.68395  1.0000
  H   H19       1.0  0.28780  0.58468  0.18396  1.0000
  H   H20       1.0  0.78779  0.41532  0.31604  1.0000
  H   H21       1.0  0.43928  0.31373  0.85401  1.0000
  H   H22       1.0  0.93930  0.68626  0.64598  1.0000
  H   H23       1.0  0.56072  0.68626  0.14598  1.0000
  H   H24       1.0  0.06072  0.31374  0.35402  1.0000
  H   H25       1.0  0.18833  0.18782  0.12299  1.0000
  H   H26       1.0  0.68834  0.81218  0.37701  1.0000
  H   H27       1.0  0.81166  0.81218  0.87701  1.0000
  H   H28       1.0  0.31167  0.18783  0.62299  1.0000
  H   H29       1.0  0.16685  0.03211  0.13724  1.0000
  H   H30       1.0  0.66685  0.96789  0.36277  1.0000
  H   H31       1.0  0.83315  0.96789  0.86276  1.0000
  H   H32       1.0  0.33315  0.03211  0.63723  1.0000
  H   H33       1.0  0.36065  0.98369  0.27992  1.0000
  H   H34       1.0  0.86064  0.01631  0.22008  1.0000
  H   H35       1.0  0.63935  0.01631  0.72008  1.0000
  H   H36       1.0  0.13935  0.98369  0.77992  1.0000
  H   H37       1.0  0.47834  0.16245  0.46091  1.0000
  H   H38       1.0  0.97834  0.83755  0.03909  1.0000
  H   H39       1.0  0.52166  0.83755  0.53908  1.0000
  H   H40       1.0  0.02166  0.16245  0.96092  1.0000
  H   H41       1.0  0.29367  0.36404  0.26990  1.0000
  H   H42       1.0  0.79367  0.63596  0.23010  1.0000
  H   H43       1.0  0.70633  0.63596  0.73010  1.0000
  H   H44       1.0  0.20633  0.36404  0.76990  1.0000
  C   C1        1.0  0.46858  0.13366  0.02572  1.0000
  C   C2        1.0  0.96859  0.86634  0.47429  1.0000
  C   C3        1.0  0.53141  0.86634  0.97429  1.0000
  C   C4        1.0  0.03141  0.13366  0.52571  1.0000
  C   C5        1.0  0.37610  0.05399  0.06367  1.0000
  C   C6        1.0  0.87611  0.94601  0.43633  1.0000
  C   C7        1.0  0.62389  0.94601  0.93633  1.0000
  C   C8        1.0  0.12390  0.05399  0.56367  1.0000
  C   C9        1.0  0.59094  0.07762  0.96281  1.0000
  C   C10       1.0  0.09094  0.92237  0.53719  1.0000
  C   C11       1.0  0.40906  0.92238  0.03719  1.0000
  C   C12       1.0  0.90906  0.07763  0.46281  1.0000
  C   C13       1.0  0.43788  0.27723  0.05338  1.0000
  C   C14       1.0  0.93788  0.72277  0.44663  1.0000
  C   C15       1.0  0.56212  0.72277  0.94663  1.0000
  C   C16       1.0  0.06212  0.27723  0.55337  1.0000
  C   C17       1.0  0.68116  0.38402  0.04318  1.0000
  C   C18       1.0  0.18117  0.61597  0.45682  1.0000
  C   C19       1.0  0.31883  0.61598  0.95682  1.0000
  C   C20       1.0  0.81883  0.38402  0.54318  1.0000
  C   C21       1.0  0.67377  0.39274  0.88439  1.0000
  C   C22       1.0  0.17378  0.60724  0.61561  1.0000
  C   C23       1.0  0.32623  0.60725  0.11561  1.0000
  C   C24       1.0  0.82623  0.39275  0.38439  1.0000
  C   C25       1.0  0.53807  0.34324  0.90237  1.0000
  C   C26       1.0  0.03807  0.65675  0.59764  1.0000
  C   C27       1.0  0.46193  0.65676  0.09763  1.0000
  C   C28       1.0  0.96193  0.34325  0.40237  1.0000
  C   C29       1.0  0.24893  0.10810  0.13913  1.0000
  C   C30       1.0  0.74893  0.89190  0.36088  1.0000
  C   C31       1.0  0.75106  0.89190  0.86088  1.0000
  C   C32       1.0  0.25107  0.10810  0.63913  1.0000
  C   C33       1.0  0.36582  0.08827  0.30553  1.0000
  C   C34       1.0  0.86582  0.91174  0.19447  1.0000
  C   C35       1.0  0.63418  0.91173  0.69447  1.0000
  C   C36       1.0  0.13418  0.08827  0.80553  1.0000
  C   C37       1.0  0.42375  0.17703  0.39363  1.0000
  C   C38       1.0  0.92374  0.82297  0.10638  1.0000
  C   C39       1.0  0.57626  0.82296  0.60637  1.0000
  C   C40       1.0  0.07626  0.17703  0.89363  1.0000
  C   C41       1.0  0.33126  0.28664  0.29864  1.0000
  C   C42       1.0  0.83127  0.71336  0.20137  1.0000
  C   C43       1.0  0.66874  0.71336  0.70137  1.0000
  C   C44       1.0  0.16873  0.28664  0.79863  1.0000
  N   N1        1.0  0.54403  0.33979  0.00366  1.0000
  N   N2        1.0  0.04404  0.66021  0.49634  1.0000
  N   N3        1.0  0.45596  0.66021  0.99634  1.0000
  N   N4        1.0  0.95597  0.33979  0.50366  1.0000
  N   N5        1.0  0.76141  0.41720  0.97271  1.0000
  N   N6        1.0  0.26141  0.58280  0.52728  1.0000
  N   N7        1.0  0.23859  0.58281  0.02729  1.0000
  N   N8        1.0  0.73859  0.41720  0.47271  1.0000
  N   N9        1.0  0.30699  0.15951  0.24603  1.0000
  N   N10       1.0  0.80698  0.84049  0.25397  1.0000
  N   N11       1.0  0.69301  0.84049  0.75397  1.0000
  N   N12       1.0  0.19301  0.15951  0.74603  1.0000
  N   N13       1.0  0.40142  0.29985  0.38809  1.0000
  N   N14       1.0  0.90142  0.70015  0.11191  1.0000
  N   N15       1.0  0.59858  0.70015  0.61191  1.0000
  N   N16       1.0  0.09858  0.29985  0.88809  1.0000
  Cl  Cl1       1.0  0.03460  0.41093  0.16463  1.0000
  Cl  Cl2       1.0  0.53460  0.58906  0.33536  1.0000
  Cl  Cl3       1.0  0.96540  0.58907  0.83537  1.0000
  Cl  Cl4       1.0  0.46540  0.41093  0.66463  1.0000
