data_image0
_chemical_formula_structural       Ag4H24C24S4N4O12
_chemical_formula_sum              "Ag4 H24 C24 S4 N4 O12"
_cell_length_a       8.76826
_cell_length_b       9.22519
_cell_length_c       9.42626
_cell_angle_alpha    99.8355
_cell_angle_beta     90.0003
_cell_angle_gamma    90.0001

_space_group_name_H-M_alt    "P 1"
_space_group_IT_number       1

loop_
  _space_group_symop_operation_xyz
  'x, y, z'

loop_
  _atom_site_type_symbol
  _atom_site_label
  _atom_site_symmetry_multiplicity
  _atom_site_fract_x
  _atom_site_fract_y
  _atom_site_fract_z
  _atom_site_occupancy
  Ag  Ag1       1.0  0.28724  0.03674  0.60553  1.0000
  Ag  Ag2       1.0  0.78724  0.96326  0.89446  1.0000
  Ag  Ag3       1.0  0.71276  0.96326  0.39446  1.0000
  Ag  Ag4       1.0  0.21276  0.03674  0.10554  1.0000
  H   H1        1.0  0.99518  0.57279  0.92240  1.0000
  H   H2        1.0  0.49518  0.42721  0.57760  1.0000
  H   H3        1.0  0.00482  0.42721  0.07760  1.0000
  H   H4        1.0  0.50482  0.57279  0.42240  1.0000
  H   H5        1.0  0.98206  0.30392  0.82505  1.0000
  H   H6        1.0  0.48206  0.69608  0.67495  1.0000
  H   H7        1.0  0.01793  0.69608  0.17495  1.0000
  H   H8        1.0  0.51794  0.30392  0.32505  1.0000
  H   H9        1.0  0.21396  0.37974  0.44091  1.0000
  H   H10       1.0  0.71396  0.62025  0.05909  1.0000
  H   H11       1.0  0.78604  0.62025  0.55909  1.0000
  H   H12       1.0  0.28604  0.37974  0.94091  1.0000
  H   H13       1.0  0.23231  0.64589  0.54113  1.0000
  H   H14       1.0  0.73231  0.35411  0.95887  1.0000
  H   H15       1.0  0.76769  0.35411  0.45887  1.0000
  H   H16       1.0  0.26769  0.64588  0.04113  1.0000
  H   H17       1.0  0.06390  0.15528  0.46074  1.0000
  H   H18       1.0  0.56391  0.84472  0.03926  1.0000
  H   H19       1.0  0.93610  0.84472  0.53926  1.0000
  H   H20       1.0  0.43610  0.15528  0.96074  1.0000
  H   H21       1.0  0.99561  0.12800  0.61944  1.0000
  H   H22       1.0  0.49561  0.87200  0.88056  1.0000
  H   H23       1.0  0.00439  0.87200  0.38056  1.0000
  H   H24       1.0  0.50439  0.12800  0.11944  1.0000
  C   C1        1.0  0.11556  0.62430  0.73890  1.0000
  C   C2        1.0  0.61556  0.37570  0.76111  1.0000
  C   C3        1.0  0.88444  0.37570  0.26110  1.0000
  C   C4        1.0  0.38444  0.62430  0.23890  1.0000
  C   C5        1.0  0.04489  0.52874  0.81831  1.0000
  C   C6        1.0  0.54489  0.47126  0.68169  1.0000
  C   C7        1.0  0.95511  0.47126  0.18169  1.0000
  C   C8        1.0  0.45511  0.52874  0.31831  1.0000
  C   C9        1.0  0.03718  0.37915  0.76365  1.0000
  C   C10       1.0  0.53718  0.62085  0.73635  1.0000
  C   C11       1.0  0.96282  0.62085  0.23635  1.0000
  C   C12       1.0  0.46282  0.37915  0.26365  1.0000
  C   C13       1.0  0.09688  0.32501  0.62701  1.0000
  C   C14       1.0  0.59688  0.67499  0.87299  1.0000
  C   C15       1.0  0.90312  0.67499  0.37298  1.0000
  C   C16       1.0  0.40312  0.32501  0.12702  1.0000
  C   C17       1.0  0.16756  0.42161  0.54737  1.0000
  C   C18       1.0  0.66756  0.57840  0.95263  1.0000
  C   C19       1.0  0.83244  0.57840  0.45263  1.0000
  C   C20       1.0  0.33244  0.42160  0.04737  1.0000
  C   C21       1.0  0.17714  0.57095  0.60291  1.0000
  C   C22       1.0  0.67713  0.42905  0.89709  1.0000
  C   C23       1.0  0.82287  0.42905  0.39709  1.0000
  C   C24       1.0  0.32287  0.57095  0.10291  1.0000
  S   S1        1.0  0.12042  0.81436  0.81008  1.0000
  S   S2        1.0  0.62042  0.18564  0.68992  1.0000
  S   S3        1.0  0.87958  0.18564  0.18992  1.0000
  S   S4        1.0  0.37958  0.81437  0.31008  1.0000
  N   N1        1.0  0.08412  0.17271  0.57015  1.0000
  N   N2        1.0  0.58412  0.82729  0.92985  1.0000
  N   N3        1.0  0.91588  0.82730  0.42985  1.0000
  N   N4        1.0  0.41588  0.17270  0.07015  1.0000
  O   O1        1.0  0.00340  0.88587  0.73097  1.0000
  O   O2        1.0  0.50340  0.11413  0.76903  1.0000
  O   O3        1.0  0.99660  0.11413  0.26902  1.0000
  O   O4        1.0  0.49659  0.88587  0.23098  1.0000
  O   O5        1.0  0.27501  0.86806  0.78558  1.0000
  O   O6        1.0  0.77501  0.13194  0.71441  1.0000
  O   O7        1.0  0.72499  0.13194  0.21442  1.0000
  O   O8        1.0  0.22499  0.86806  0.28559  1.0000
  O   O9        1.0  0.08146  0.82792  0.96446  1.0000
  O   O10       1.0  0.58145  0.17208  0.53554  1.0000
  O   O11       1.0  0.91854  0.17208  0.03553  1.0000
  O   O12       1.0  0.41854  0.82792  0.46447  1.0000
