data_image0
_chemical_formula_structural       Cu2H16C14O14
_chemical_formula_sum              "Cu2 H16 C14 O14"
_cell_length_a       6.71789
_cell_length_b       7.84346
_cell_length_c       11.1208
_cell_angle_alpha    69.929
_cell_angle_beta     71.3971
_cell_angle_gamma    67.309

_space_group_name_H-M_alt    "P 1"
_space_group_IT_number       1

loop_
  _space_group_symop_operation_xyz
  'x, y, z'

loop_
  _atom_site_type_symbol
  _atom_site_label
  _atom_site_symmetry_multiplicity
  _atom_site_fract_x
  _atom_site_fract_y
  _atom_site_fract_z
  _atom_site_occupancy
  Cu  Cu1       1.0  0.46614  0.23543  0.44664  1.0000
  Cu  Cu2       1.0  0.53386  0.76456  0.55336  1.0000
  H   H1        1.0  0.22111  0.87568  0.82940  1.0000
  H   H2        1.0  0.77888  0.12434  0.17059  1.0000
  H   H3        1.0  0.10992  0.74860  0.07015  1.0000
  H   H4        1.0  0.89008  0.25141  0.92984  1.0000
  H   H5        1.0  0.56996  0.51168  0.28192  1.0000
  H   H6        1.0  0.43003  0.48833  0.71808  1.0000
  H   H7        1.0  0.35133  0.51039  0.26517  1.0000
  H   H8        1.0  0.64864  0.48963  0.73485  1.0000
  H   H9        1.0  0.81056  0.13265  0.53245  1.0000
  H   H10       1.0  0.18944  0.86736  0.46755  1.0000
  H   H11       1.0  0.89313  0.11030  0.38710  1.0000
  H   H12       1.0  0.10688  0.88970  0.61290  1.0000
  H   H13       1.0  0.05159  0.29640  0.55015  1.0000
  H   H14       1.0  0.94841  0.70358  0.44986  1.0000
  H   H15       1.0  0.07861  0.41592  0.39899  1.0000
  H   H16       1.0  0.92138  0.58402  0.60101  1.0000
  C   C1        1.0  0.42504  0.13623  0.70853  1.0000
  C   C2        1.0  0.57497  0.86378  0.29147  1.0000
  C   C3        1.0  0.42506  0.01573  0.84598  1.0000
  C   C4        1.0  0.57495  0.98428  0.15401  1.0000
  C   C5        1.0  0.29207  0.89875  0.89557  1.0000
  C   C6        1.0  0.70794  0.10126  0.10442  1.0000
  C   C7        1.0  0.23125  0.82515  0.03127  1.0000
  C   C8        1.0  0.76876  0.17486  0.96873  1.0000
  C   C9        1.0  0.30256  0.86848  0.11793  1.0000
  C   C10       1.0  0.69745  0.13152  0.88207  1.0000
  C   C11       1.0  0.53155  0.03759  0.93031  1.0000
  C   C12       1.0  0.46846  0.96241  0.06968  1.0000
  C   C13       1.0  0.17370  0.84077  0.25702  1.0000
  C   C14       1.0  0.82631  0.15923  0.74298  1.0000
  O   O1        1.0  0.43468  0.05527  0.62193  1.0000
  O   O2        1.0  0.56534  0.94473  0.37807  1.0000
  O   O3        1.0  0.40434  0.31086  0.68034  1.0000
  O   O4        1.0  0.59566  0.68915  0.31966  1.0000
  O   O5        1.0  0.13113  0.96875  0.31537  1.0000
  O   O6        1.0  0.86888  0.03126  0.68462  1.0000
  O   O7        1.0  0.10409  0.69498  0.30757  1.0000
  O   O8        1.0  0.89592  0.30503  0.69243  1.0000
  O   O9        1.0  0.50255  0.42303  0.27370  1.0000
  O   O10       1.0  0.49744  0.57698  0.72631  1.0000
  O   O11       1.0  0.77663  0.19332  0.44303  1.0000
  O   O12       1.0  0.22337  0.80669  0.55697  1.0000
  O   O13       1.0  0.14807  0.29741  0.45801  1.0000
  O   O14       1.0  0.85193  0.70256  0.54200  1.0000
