data_image0
_chemical_formula_structural       Cu2H16C14O14
_chemical_formula_sum              "Cu2 H16 C14 O14"
_cell_length_a       6.4795
_cell_length_b       8.60701
_cell_length_c       9.63973
_cell_angle_alpha    68.7361
_cell_angle_beta     77.3829
_cell_angle_gamma    85.5035

_space_group_name_H-M_alt    "P 1"
_space_group_IT_number       1

loop_
  _space_group_symop_operation_xyz
  'x, y, z'

loop_
  _atom_site_type_symbol
  _atom_site_label
  _atom_site_symmetry_multiplicity
  _atom_site_fract_x
  _atom_site_fract_y
  _atom_site_fract_z
  _atom_site_occupancy
  Cu  Cu1       1.0  0.58968  0.80978  0.34888  1.0000
  Cu  Cu2       1.0  0.41031  0.19022  0.65112  1.0000
  H   H1        1.0  0.77564  0.86285  0.97199  1.0000
  H   H2        1.0  0.22436  0.13716  0.02800  1.0000
  H   H3        1.0  0.65024  0.91312  0.73389  1.0000
  H   H4        1.0  0.34974  0.08690  0.26611  1.0000
  H   H5        1.0  0.04258  0.65404  0.62163  1.0000
  H   H6        1.0  0.95743  0.34596  0.37836  1.0000
  H   H7        1.0  0.89966  0.64326  0.51096  1.0000
  H   H8        1.0  0.10036  0.35674  0.48902  1.0000
  H   H9        1.0  0.36614  0.62055  0.31684  1.0000
  H   H10       1.0  0.63386  0.37945  0.68316  1.0000
  H   H11       1.0  0.21128  0.73554  0.38743  1.0000
  H   H12       1.0  0.78872  0.26446  0.61256  1.0000
  H   H13       1.0  0.89615  0.89696  0.40987  1.0000
  H   H14       1.0  0.10385  0.10304  0.59012  1.0000
  H   H15       1.0  0.72808  0.04930  0.37675  1.0000
  H   H16       1.0  0.27192  0.95070  0.62325  1.0000
  C   C1        1.0  0.79048  0.57366  0.19655  1.0000
  C   C2        1.0  0.20951  0.42634  0.80346  1.0000
  C   C3        1.0  0.66039  0.61172  0.07709  1.0000
  C   C4        1.0  0.33959  0.38829  0.92292  1.0000
  C   C5        1.0  0.53883  0.48498  0.06793  1.0000
  C   C6        1.0  0.46116  0.51502  0.93208  1.0000
  C   C7        1.0  0.68397  0.76717  0.96313  1.0000
  C   C8        1.0  0.31602  0.23284  0.03687  1.0000
  C   C9        1.0  0.61046  0.79614  0.82915  1.0000
  C   C10       1.0  0.38953  0.20388  0.17085  1.0000
  C   C11       1.0  0.48905  0.32914  0.19013  1.0000
  C   C12       1.0  0.51096  0.67086  0.80988  1.0000
  C   C13       1.0  0.49261  0.31020  0.34944  1.0000
  C   C14       1.0  0.50741  0.68980  0.65057  1.0000
  O   O1        1.0  0.80599  0.68178  0.25761  1.0000
  O   O2        1.0  0.19402  0.31822  0.74241  1.0000
  O   O3        1.0  0.89060  0.43768  0.22616  1.0000
  O   O4        1.0  0.10939  0.56233  0.77384  1.0000
  O   O5        1.0  0.40731  0.42290  0.39836  1.0000
  O   O6        1.0  0.59271  0.57710  0.60164  1.0000
  O   O7        1.0  0.55637  0.17326  0.44107  1.0000
  O   O8        1.0  0.44363  0.82672  0.55893  1.0000
  O   O9        1.0  0.00682  0.71436  0.51609  1.0000
  O   O10       1.0  0.99319  0.28564  0.48390  1.0000
  O   O11       1.0  0.34251  0.74139  0.30490  1.0000
  O   O12       1.0  0.65749  0.25860  0.69510  1.0000
  O   O13       1.0  0.80854  0.96508  0.33596  1.0000
  O   O14       1.0  0.19147  0.03492  0.66404  1.0000
