data_image0
_chemical_formula_structural       Cu12H12C12I12N12
_chemical_formula_sum              "Cu12 H12 C12 I12 N12"
_cell_length_a       6.82561
_cell_length_b       9.80186
_cell_length_c       15.6376
_cell_angle_alpha    90
_cell_angle_beta     90.0013
_cell_angle_gamma    90.0015

_space_group_name_H-M_alt    "P 1"
_space_group_IT_number       1

loop_
  _space_group_symop_operation_xyz
  'x, y, z'

loop_
  _atom_site_type_symbol
  _atom_site_label
  _atom_site_symmetry_multiplicity
  _atom_site_fract_x
  _atom_site_fract_y
  _atom_site_fract_z
  _atom_site_occupancy
  Cu  Cu1       1.0  0.97036  0.25001  0.40673  1.0000
  Cu  Cu2       1.0  0.47036  0.25000  0.09327  1.0000
  Cu  Cu3       1.0  0.52964  0.74999  0.90673  1.0000
  Cu  Cu4       1.0  0.02962  0.75000  0.59327  1.0000
  Cu  Cu5       1.0  0.47278  0.04512  0.32933  1.0000
  Cu  Cu6       1.0  0.97278  0.04512  0.17067  1.0000
  Cu  Cu7       1.0  0.47280  0.45488  0.32933  1.0000
  Cu  Cu8       1.0  0.02721  0.54513  0.82933  1.0000
  Cu  Cu9       1.0  0.52720  0.95487  0.67067  1.0000
  Cu  Cu10      1.0  0.02723  0.95488  0.82933  1.0000
  Cu  Cu11      1.0  0.52722  0.54511  0.67067  1.0000
  Cu  Cu12      1.0  0.97280  0.45488  0.17067  1.0000
  H   H1        1.0  0.52882  0.74999  0.29596  1.0000
  H   H2        1.0  0.02886  0.75000  0.20405  1.0000
  H   H3        1.0  0.97119  0.25001  0.79595  1.0000
  H   H4        1.0  0.47116  0.24999  0.70403  1.0000
  H   H5        1.0  0.19308  0.96294  0.47402  1.0000
  H   H6        1.0  0.69306  0.96294  0.02599  1.0000
  H   H7        1.0  0.19308  0.53704  0.47403  1.0000
  H   H8        1.0  0.30690  0.46297  0.97403  1.0000
  H   H9        1.0  0.80692  0.03705  0.52598  1.0000
  H   H10       1.0  0.30696  0.03706  0.97401  1.0000
  H   H11       1.0  0.80692  0.46295  0.52598  1.0000
  H   H12       1.0  0.69308  0.53704  0.02599  1.0000
  C   C1        1.0  0.42582  0.75000  0.34931  1.0000
  C   C2        1.0  0.92583  0.75001  0.15070  1.0000
  C   C3        1.0  0.07419  0.25001  0.84930  1.0000
  C   C4        1.0  0.57417  0.25000  0.65069  1.0000
  C   C5        1.0  0.24094  0.86645  0.44639  1.0000
  C   C6        1.0  0.74094  0.86644  0.05362  1.0000
  C   C7        1.0  0.24096  0.63355  0.44638  1.0000
  C   C8        1.0  0.25905  0.36646  0.94638  1.0000
  C   C9        1.0  0.75905  0.13354  0.55361  1.0000
  C   C10       1.0  0.25907  0.13355  0.94639  1.0000
  C   C11       1.0  0.75905  0.36645  0.55361  1.0000
  C   C12       1.0  0.74096  0.63354  0.05362  1.0000
  I   I1        1.0  0.85327  0.02845  0.32909  1.0000
  I   I2        1.0  0.35327  0.02844  0.17091  1.0000
  I   I3        1.0  0.85329  0.47158  0.32909  1.0000
  I   I4        1.0  0.64672  0.52842  0.82909  1.0000
  I   I5        1.0  0.14671  0.97157  0.67091  1.0000
  I   I6        1.0  0.64673  0.97155  0.82908  1.0000
  I   I7        1.0  0.14672  0.52843  0.67091  1.0000
  I   I8        1.0  0.35329  0.47157  0.17091  1.0000
  I   I9        1.0  0.34653  0.25000  0.41707  1.0000
  I   I10       1.0  0.84653  0.25000  0.08293  1.0000
  I   I11       1.0  0.15347  0.75001  0.91707  1.0000
  I   I12       1.0  0.65346  0.75000  0.58293  1.0000
  N   N1        1.0  0.36653  0.87077  0.38035  1.0000
  N   N2        1.0  0.86653  0.87078  0.11966  1.0000
  N   N3        1.0  0.36652  0.62921  0.38036  1.0000
  N   N4        1.0  0.13347  0.37080  0.88035  1.0000
  N   N5        1.0  0.63346  0.12921  0.61964  1.0000
  N   N6        1.0  0.13348  0.12923  0.88034  1.0000
  N   N7        1.0  0.63346  0.37077  0.61964  1.0000
  N   N8        1.0  0.86653  0.62922  0.11965  1.0000
  N   N9        1.0  0.17589  0.75000  0.48194  1.0000
  N   N10       1.0  0.67588  0.75000  0.01808  1.0000
  N   N11       1.0  0.32410  0.25002  0.98193  1.0000
  N   N12       1.0  0.82409  0.25000  0.51806  1.0000
