data_image0
_chemical_formula_structural       Cu4H6C6I4N6
_chemical_formula_sum              "Cu4 H6 C6 I4 N6"
_cell_length_a       6.81606
_cell_length_b       7.61316
_cell_length_c       8.58144
_cell_angle_alpha    116.284
_cell_angle_beta     89.9994
_cell_angle_gamma    90.0004

_space_group_name_H-M_alt    "P 1"
_space_group_IT_number       1

loop_
  _space_group_symop_operation_xyz
  'x, y, z'

loop_
  _atom_site_type_symbol
  _atom_site_label
  _atom_site_symmetry_multiplicity
  _atom_site_fract_x
  _atom_site_fract_y
  _atom_site_fract_z
  _atom_site_occupancy
  Cu  Cu1       1.0  0.78521  0.02854  0.37547  1.0000
  Cu  Cu2       1.0  0.28521  0.97145  0.62454  1.0000
  Cu  Cu3       1.0  0.28507  0.34720  0.37579  1.0000
  Cu  Cu4       1.0  0.78507  0.65279  0.62421  1.0000
  H   H1        1.0  0.06408  0.40946  0.72928  1.0000
  H   H2        1.0  0.56409  0.59054  0.27072  1.0000
  H   H3        1.0  0.56449  0.31948  0.72920  1.0000
  H   H4        1.0  0.06450  0.68054  0.27080  1.0000
  H   H5        1.0  0.73174  0.91253  0.99974  1.0000
  H   H6        1.0  0.23177  0.08746  0.00025  1.0000
  C   C1        1.0  0.01580  0.52669  0.85297  1.0000
  C   C2        1.0  0.51582  0.47333  0.14701  1.0000
  C   C3        1.0  0.51603  0.32610  0.85294  1.0000
  C   C4        1.0  0.01604  0.67390  0.14705  1.0000
  C   C5        1.0  0.83362  0.80201  0.99982  1.0000
  C   C6        1.0  0.33364  0.19799  0.00021  1.0000
  I   I1        1.0  0.40259  0.00980  0.35575  1.0000
  I   I2        1.0  0.90259  0.99020  0.64426  1.0000
  I   I3        1.0  0.90252  0.34610  0.35560  1.0000
  I   I4        1.0  0.40251  0.65390  0.64439  1.0000
  N   N1        1.0  0.89206  0.66159  0.84590  1.0000
  N   N2        1.0  0.39207  0.33840  0.15409  1.0000
  N   N3        1.0  0.39212  0.18429  0.84615  1.0000
  N   N4        1.0  0.89210  0.81571  0.15384  1.0000
  N   N5        1.0  0.07954  0.52732  0.00012  1.0000
  N   N6        1.0  0.57953  0.47270  0.99989  1.0000
