data_image0
_chemical_formula_structural       Na4B4H48C36N24O4
_chemical_formula_sum              "Na4 B4 H48 C36 N24 O4"
_cell_length_a       7.02965
_cell_length_b       8.31314
_cell_length_c       20.4268
_cell_angle_alpha    89.9999
_cell_angle_beta     90.0002
_cell_angle_gamma    89.9995

_space_group_name_H-M_alt    "P 1"
_space_group_IT_number       1

loop_
  _space_group_symop_operation_xyz
  'x, y, z'

loop_
  _atom_site_type_symbol
  _atom_site_label
  _atom_site_symmetry_multiplicity
  _atom_site_fract_x
  _atom_site_fract_y
  _atom_site_fract_z
  _atom_site_occupancy
  Na  Na1       1.0  0.08311  0.74933  0.99723  1.0000
  Na  Na2       1.0  0.58311  0.75066  0.00277  1.0000
  Na  Na3       1.0  0.91689  0.24934  0.50277  1.0000
  Na  Na4       1.0  0.41689  0.25067  0.49723  1.0000
  B   B1        1.0  0.31906  0.02105  0.11584  1.0000
  B   B2        1.0  0.81907  0.47894  0.88416  1.0000
  B   B3        1.0  0.68093  0.52106  0.38416  1.0000
  B   B4        1.0  0.18094  0.97894  0.61584  1.0000
  H   H1        1.0  0.46200  0.08863  0.13481  1.0000
  H   H2        1.0  0.96200  0.41136  0.86519  1.0000
  H   H3        1.0  0.53800  0.58864  0.36518  1.0000
  H   H4        1.0  0.03800  0.91137  0.63482  1.0000
  H   H5        1.0  0.60378  0.84965  0.18430  1.0000
  H   H6        1.0  0.10378  0.65034  0.81570  1.0000
  H   H7        1.0  0.39622  0.34965  0.31570  1.0000
  H   H8        1.0  0.89622  0.15035  0.68430  1.0000
  H   H9        1.0  0.54575  0.52203  0.19459  1.0000
  H   H10       1.0  0.04575  0.97797  0.80542  1.0000
  H   H11       1.0  0.45425  0.02203  0.30542  1.0000
  H   H12       1.0  0.95424  0.47797  0.69458  1.0000
  H   H13       1.0  0.21966  0.47250  0.12184  1.0000
  H   H14       1.0  0.71966  0.02750  0.87816  1.0000
  H   H15       1.0  0.78034  0.97250  0.37816  1.0000
  H   H16       1.0  0.28033  0.52750  0.62184  1.0000
  H   H17       1.0  0.35734  0.99439  0.89075  1.0000
  H   H18       1.0  0.85733  0.50561  0.10925  1.0000
  H   H19       1.0  0.64267  0.49439  0.60925  1.0000
  H   H20       1.0  0.14267  0.00561  0.39075  1.0000
  H   H21       1.0  0.12222  0.25514  0.91486  1.0000
  H   H22       1.0  0.62221  0.24487  0.08514  1.0000
  H   H23       1.0  0.87778  0.75514  0.58514  1.0000
  H   H24       1.0  0.37779  0.74487  0.41486  1.0000
  H   H25       1.0  0.09321  0.25982  0.04899  1.0000
  H   H26       1.0  0.59321  0.24018  0.95101  1.0000
  H   H27       1.0  0.90678  0.75982  0.45100  1.0000
  H   H28       1.0  0.40679  0.74018  0.54900  1.0000
  H   H29       1.0  0.30504  0.24754  0.21929  1.0000
  H   H30       1.0  0.80504  0.25246  0.78071  1.0000
  H   H31       1.0  0.69496  0.74754  0.28071  1.0000
  H   H32       1.0  0.19497  0.75246  0.71929  1.0000
  H   H33       1.0  0.94897  0.30247  0.27232  1.0000
  H   H34       1.0  0.44897  0.19754  0.72768  1.0000
  H   H35       1.0  0.05102  0.80247  0.22768  1.0000
  H   H36       1.0  0.55103  0.69753  0.77232  1.0000
  H   H37       1.0  0.71553  0.10779  0.19786  1.0000
  H   H38       1.0  0.21553  0.39221  0.80214  1.0000
  H   H39       1.0  0.28447  0.60779  0.30213  1.0000
  H   H40       1.0  0.78447  0.89221  0.69786  1.0000
  H   H41       1.0  0.81321  0.01886  0.01380  1.0000
  H   H42       1.0  0.31321  0.48113  0.98620  1.0000
  H   H43       1.0  0.18679  0.51887  0.48620  1.0000
  H   H44       1.0  0.68679  0.98114  0.51380  1.0000
  H   H45       1.0  0.88563  0.95594  0.08151  1.0000
  H   H46       1.0  0.38563  0.54405  0.91849  1.0000
  H   H47       1.0  0.11437  0.45595  0.41849  1.0000
  H   H48       1.0  0.61437  0.04405  0.58151  1.0000
  C   C1        1.0  0.49125  0.77468  0.16472  1.0000
  C   C2        1.0  0.99125  0.72531  0.83528  1.0000
  C   C3        1.0  0.50875  0.27469  0.33528  1.0000
  C   C4        1.0  0.00875  0.22532  0.66472  1.0000
  C   C5        1.0  0.45970  0.61010  0.16893  1.0000
  C   C6        1.0  0.95970  0.88989  0.83108  1.0000
  C   C7        1.0  0.54030  0.11011  0.33107  1.0000
  C   C8        1.0  0.04030  0.38989  0.66892  1.0000
  C   C9        1.0  0.29407  0.58459  0.13147  1.0000
  C   C10       1.0  0.79407  0.91540  0.86853  1.0000
  C   C11       1.0  0.70594  0.08460  0.36853  1.0000
  C   C12       1.0  0.20593  0.41540  0.63147  1.0000
  C   C13       1.0  0.30909  0.04320  0.93728  1.0000
  C   C14       1.0  0.80909  0.45681  0.06272  1.0000
  C   C15       1.0  0.69091  0.54320  0.56272  1.0000
  C   C16       1.0  0.19091  0.95680  0.43728  1.0000
  C   C17       1.0  0.19018  0.17568  0.94977  1.0000
  C   C18       1.0  0.69018  0.32433  0.05023  1.0000
  C   C19       1.0  0.80982  0.67568  0.55023  1.0000
  C   C20       1.0  0.30983  0.82432  0.44977  1.0000
  C   C21       1.0  0.17537  0.18088  0.01761  1.0000
  C   C22       1.0  0.67537  0.31912  0.98239  1.0000
  C   C23       1.0  0.82463  0.68088  0.48239  1.0000
  C   C24       1.0  0.32463  0.81912  0.51761  1.0000
  C   C25       1.0  0.16763  0.19751  0.20649  1.0000
  C   C26       1.0  0.66763  0.30249  0.79351  1.0000
  C   C27       1.0  0.83237  0.69751  0.29351  1.0000
  C   C28       1.0  0.33237  0.80249  0.70649  1.0000
  C   C29       1.0  0.98730  0.22390  0.23211  1.0000
  C   C30       1.0  0.48730  0.27610  0.76788  1.0000
  C   C31       1.0  0.01269  0.72390  0.26788  1.0000
  C   C32       1.0  0.51270  0.77609  0.73212  1.0000
  C   C33       1.0  0.86855  0.12373  0.19461  1.0000
  C   C34       1.0  0.36856  0.37627  0.80539  1.0000
  C   C35       1.0  0.13144  0.62373  0.30539  1.0000
  C   C36       1.0  0.63145  0.87627  0.69461  1.0000
  N   N1        1.0  0.35139  0.83978  0.12692  1.0000
  N   N2        1.0  0.85140  0.66021  0.87308  1.0000
  N   N3        1.0  0.64861  0.33979  0.37308  1.0000
  N   N4        1.0  0.14861  0.16021  0.62692  1.0000
  N   N5        1.0  0.22875  0.72315  0.10610  1.0000
  N   N6        1.0  0.72876  0.77685  0.89390  1.0000
  N   N7        1.0  0.77125  0.22315  0.39390  1.0000
  N   N8        1.0  0.27124  0.27685  0.60610  1.0000
  N   N9        1.0  0.27902  0.05754  0.04271  1.0000
  N   N10       1.0  0.77903  0.44246  0.95729  1.0000
  N   N11       1.0  0.72097  0.55754  0.45729  1.0000
  N   N12       1.0  0.22098  0.94246  0.54271  1.0000
  N   N13       1.0  0.36287  0.97197  0.99366  1.0000
  N   N14       1.0  0.86287  0.52802  0.00634  1.0000
  N   N15       1.0  0.63713  0.47198  0.50634  1.0000
  N   N16       1.0  0.13713  0.02802  0.49366  1.0000
  N   N17       1.0  0.15339  0.08828  0.15715  1.0000
  N   N18       1.0  0.65339  0.41172  0.84285  1.0000
  N   N19       1.0  0.84661  0.58828  0.34284  1.0000
  N   N20       1.0  0.34661  0.91172  0.65715  1.0000
  N   N21       1.0  0.96870  0.04213  0.14954  1.0000
  N   N22       1.0  0.46871  0.45788  0.85046  1.0000
  N   N23       1.0  0.03130  0.54212  0.35046  1.0000
  N   N24       1.0  0.53130  0.95788  0.64954  1.0000
  O   O1        1.0  0.83592  0.91836  0.03711  1.0000
  O   O2        1.0  0.33592  0.58164  0.96289  1.0000
  O   O3        1.0  0.16408  0.41836  0.46289  1.0000
  O   O4        1.0  0.66408  0.08164  0.53711  1.0000
