data_image0
_chemical_formula_structural       Cu4H8C12N10Cl2
_chemical_formula_sum              "Cu4 H8 C12 N10 Cl2"
_cell_length_a       3.56415
_cell_length_b       9.97625
_cell_length_c       11.5386
_cell_angle_alpha    103.197
_cell_angle_beta     90.0892
_cell_angle_gamma    100.205

_space_group_name_H-M_alt    "P 1"
_space_group_IT_number       1

loop_
  _space_group_symop_operation_xyz
  'x, y, z'

loop_
  _atom_site_type_symbol
  _atom_site_label
  _atom_site_symmetry_multiplicity
  _atom_site_fract_x
  _atom_site_fract_y
  _atom_site_fract_z
  _atom_site_occupancy
  Cu  Cu1       1.0  0.82750  0.65358  0.83700  1.0000
  Cu  Cu2       1.0  0.82255  0.65367  0.33716  1.0000
  Cu  Cu3       1.0  0.74873  0.84154  0.65307  1.0000
  Cu  Cu4       1.0  0.09204  0.84178  0.15214  1.0000
  H   H1        1.0  0.06592  0.98767  0.48134  1.0000
  H   H2        1.0  0.92421  0.98843  0.97997  1.0000
  H   H3        1.0  0.10518  0.22797  0.44813  1.0000
  H   H4        1.0  0.12292  0.22926  0.94784  1.0000
  H   H5        1.0  0.61209  0.10169  0.81261  1.0000
  H   H6        1.0  0.49354  0.10090  0.31139  1.0000
  H   H7        1.0  0.65743  0.34821  0.79748  1.0000
  H   H8        1.0  0.69301  0.34776  0.29717  1.0000
  C   C1        1.0  0.97376  0.07022  0.54810  1.0000
  C   C2        1.0  0.09861  0.07073  0.04703  1.0000
  C   C3        1.0  0.99706  0.20399  0.53054  1.0000
  C   C4        1.0  0.20758  0.20472  0.03006  1.0000
  C   C5        1.0  0.72886  0.13555  0.73453  1.0000
  C   C6        1.0  0.40985  0.13523  0.23350  1.0000
  C   C7        1.0  0.75198  0.27291  0.72457  1.0000
  C   C8        1.0  0.52288  0.27275  0.22411  1.0000
  C   C9        1.0  0.87826  0.30843  0.61868  1.0000
  C   C10       1.0  0.43044  0.30886  0.11850  1.0000
  C   C11       1.0  0.86412  0.44284  0.59116  1.0000
  C   C12       1.0  0.57768  0.44336  0.09120  1.0000
  N   N1        1.0  0.80551  0.56336  0.66473  1.0000
  N   N2        1.0  0.75670  0.56382  0.16476  1.0000
  N   N3        1.0  0.78653  0.65158  0.59307  1.0000
  N   N4        1.0  0.86270  0.65204  0.09309  1.0000
  N   N5        1.0  0.83048  0.58561  0.48042  1.0000
  N   N6        1.0  0.75216  0.58606  0.98044  1.0000
  N   N7        1.0  0.88161  0.45640  0.47755  1.0000
  N   N8        1.0  0.57252  0.45692  0.97756  1.0000
  N   N9        1.0  0.83268  0.03407  0.64797  1.0000
  N   N10       1.0  0.20459  0.03404  0.14668  1.0000
  Cl  Cl1       1.0  0.41053  0.82456  0.83897  1.0000
  Cl  Cl2       1.0  0.41034  0.82454  0.33927  1.0000
