data_image0
_chemical_formula_structural       Hg4H20C24I8N8O2
_chemical_formula_sum              "Hg4 H20 C24 I8 N8 O2"
_cell_length_a       8.01454
_cell_length_b       9.3757
_cell_length_c       14.327
_cell_angle_alpha    90.0003
_cell_angle_beta     88.904
_cell_angle_gamma    90.0002

_space_group_name_H-M_alt    "P 1"
_space_group_IT_number       1

loop_
  _space_group_symop_operation_xyz
  'x, y, z'

loop_
  _atom_site_type_symbol
  _atom_site_label
  _atom_site_symmetry_multiplicity
  _atom_site_fract_x
  _atom_site_fract_y
  _atom_site_fract_z
  _atom_site_occupancy
  Hg  Hg1       1.0  0.56419  0.74415  0.84613  1.0000
  Hg  Hg2       1.0  0.56419  0.25585  0.34612  1.0000
  Hg  Hg3       1.0  0.44454  0.90275  0.15655  1.0000
  Hg  Hg4       1.0  0.44454  0.09725  0.65655  1.0000
  H   H1        1.0  0.79045  0.41112  0.01529  1.0000
  H   H2        1.0  0.79045  0.58887  0.51529  1.0000
  H   H3        1.0  0.15609  0.69775  0.79170  1.0000
  H   H4        1.0  0.15610  0.30225  0.29170  1.0000
  H   H5        1.0  0.95034  0.50234  0.76659  1.0000
  H   H6        1.0  0.95035  0.49766  0.26659  1.0000
  H   H7        1.0  0.03519  0.24852  0.80402  1.0000
  H   H8        1.0  0.03520  0.75149  0.30402  1.0000
  H   H9        1.0  0.31711  0.20674  0.87090  1.0000
  H   H10       1.0  0.31712  0.79326  0.37090  1.0000
  H   H11       1.0  0.57258  0.30047  0.93567  1.0000
  H   H12       1.0  0.57259  0.69953  0.43567  1.0000
  H   H13       1.0  0.04035  0.34453  0.03212  1.0000
  H   H14       1.0  0.04035  0.65546  0.53212  1.0000
  H   H15       1.0  0.31605  0.32261  0.10647  1.0000
  H   H16       1.0  0.31605  0.67739  0.60647  1.0000
  H   H17       1.0  0.47813  0.54482  0.14187  1.0000
  H   H18       1.0  0.47814  0.45518  0.64187  1.0000
  H   H19       1.0  0.10287  0.80338  0.04017  1.0000
  H   H20       1.0  0.10286  0.19661  0.54018  1.0000
  C   C1        1.0  0.18704  0.58741  0.80858  1.0000
  C   C2        1.0  0.18705  0.41260  0.30858  1.0000
  C   C3        1.0  0.07257  0.47724  0.79452  1.0000
  C   C4        1.0  0.07258  0.52277  0.29452  1.0000
  C   C5        1.0  0.11916  0.33805  0.81575  1.0000
  C   C6        1.0  0.11917  0.66196  0.31575  1.0000
  C   C7        1.0  0.27645  0.31403  0.85233  1.0000
  C   C8        1.0  0.27646  0.68598  0.35234  1.0000
  C   C9        1.0  0.38309  0.43001  0.86624  1.0000
  C   C10       1.0  0.38309  0.56999  0.36624  1.0000
  C   C11       1.0  0.54289  0.40816  0.91103  1.0000
  C   C12       1.0  0.54289  0.59185  0.41103  1.0000
  C   C13       1.0  0.89574  0.60808  0.97590  1.0000
  C   C14       1.0  0.89575  0.39192  0.47590  1.0000
  C   C15       1.0  0.04978  0.57753  0.02873  1.0000
  C   C16       1.0  0.04979  0.42246  0.52873  1.0000
  C   C17       1.0  0.10963  0.44080  0.04932  1.0000
  C   C18       1.0  0.10963  0.55919  0.54932  1.0000
  C   C19       1.0  0.26499  0.42732  0.09044  1.0000
  C   C20       1.0  0.26499  0.57268  0.59044  1.0000
  C   C21       1.0  0.35482  0.55016  0.11059  1.0000
  C   C22       1.0  0.35482  0.44984  0.61059  1.0000
  C   C23       1.0  0.14736  0.69531  0.05348  1.0000
  C   C24       1.0  0.14737  0.30468  0.55348  1.0000
  I   I1        1.0  0.70694  0.74534  0.66904  1.0000
  I   I2        1.0  0.70693  0.25466  0.16904  1.0000
  I   I3        1.0  0.51933  0.98353  0.95050  1.0000
  I   I4        1.0  0.51934  0.01648  0.45051  1.0000
  I   I5        1.0  0.72314  0.76779  0.20824  1.0000
  I   I6        1.0  0.72314  0.23221  0.70824  1.0000
  I   I7        1.0  0.15967  0.04692  0.18924  1.0000
  I   I8        1.0  0.15968  0.95307  0.68924  1.0000
  N   N1        1.0  0.33872  0.56448  0.84298  1.0000
  N   N2        1.0  0.33873  0.43553  0.34298  1.0000
  N   N3        1.0  0.64125  0.51519  0.92316  1.0000
  N   N4        1.0  0.64125  0.48480  0.42316  1.0000
  N   N5        1.0  0.78290  0.49677  0.97069  1.0000
  N   N6        1.0  0.78290  0.50323  0.47069  1.0000
  N   N7        1.0  0.29539  0.68134  0.09367  1.0000
  N   N8        1.0  0.29538  0.31865  0.59367  1.0000
  O   O1        1.0  0.87409  0.72257  0.93524  1.0000
  O   O2        1.0  0.87409  0.27743  0.43524  1.0000
