data_image0
_chemical_formula_structural       La2H10C14S2O14
_chemical_formula_sum              "La2 H10 C14 S2 O14"
_cell_length_a       6.02439
_cell_length_b       8.37725
_cell_length_c       10.0659
_cell_angle_alpha    111.761
_cell_angle_beta     95.3244
_cell_angle_gamma    92.3224

_space_group_name_H-M_alt    "P 1"
_space_group_IT_number       1

loop_
  _space_group_symop_operation_xyz
  'x, y, z'

loop_
  _atom_site_type_symbol
  _atom_site_label
  _atom_site_symmetry_multiplicity
  _atom_site_fract_x
  _atom_site_fract_y
  _atom_site_fract_z
  _atom_site_occupancy
  La  La1       1.0  0.76130  0.65101  0.46644  1.0000
  La  La2       1.0  0.23870  0.34899  0.53356  1.0000
  H   H1        1.0  0.29792  0.79505  0.42107  1.0000
  H   H2        1.0  0.70208  0.20496  0.57892  1.0000
  H   H3        1.0  0.39130  0.91173  0.57982  1.0000
  H   H4        1.0  0.60870  0.08827  0.42017  1.0000
  H   H5        1.0  0.33131  0.33115  0.95737  1.0000
  H   H6        1.0  0.66869  0.66885  0.04263  1.0000
  H   H7        1.0  0.67853  0.06249  0.89334  1.0000
  H   H8        1.0  0.32148  0.93751  0.10666  1.0000
  H   H9        1.0  0.66214  0.18634  0.15927  1.0000
  H   H10       1.0  0.33786  0.81366  0.84073  1.0000
  C   C1        1.0  0.38314  0.45599  0.24263  1.0000
  C   C2        1.0  0.61685  0.54402  0.75737  1.0000
  C   C3        1.0  0.17706  0.36421  0.14915  1.0000
  C   C4        1.0  0.82294  0.63579  0.85086  1.0000
  C   C5        1.0  0.18345  0.29946  0.00050  1.0000
  C   C6        1.0  0.81656  0.70054  0.99950  1.0000
  C   C7        1.0  0.00479  0.19048  0.91002  1.0000
  C   C8        1.0  0.99521  0.80952  0.08998  1.0000
  C   C9        1.0  0.81560  0.14918  0.96564  1.0000
  C   C10       1.0  0.18441  0.85082  0.03436  1.0000
  C   C11       1.0  0.80592  0.21851  0.11324  1.0000
  C   C12       1.0  0.19408  0.78149  0.88676  1.0000
  C   C13       1.0  0.98437  0.32780  0.20843  1.0000
  C   C14       1.0  0.01563  0.67219  0.79157  1.0000
  S   S1        1.0  0.03110  0.10039  0.72523  1.0000
  S   S2        1.0  0.96891  0.89961  0.27477  1.0000
  O   O1        1.0  0.51617  0.55381  0.21212  1.0000
  O   O2        1.0  0.48383  0.44618  0.78788  1.0000
  O   O3        1.0  0.43140  0.42526  0.35958  1.0000
  O   O4        1.0  0.56860  0.57474  0.64042  1.0000
  O   O5        1.0  0.96964  0.39751  0.35054  1.0000
  O   O6        1.0  0.03036  0.60250  0.64946  1.0000
  O   O7        1.0  0.97046  0.23357  0.66381  1.0000
  O   O8        1.0  0.02954  0.76643  0.33619  1.0000
  O   O9        1.0  0.26523  0.06589  0.71021  1.0000
  O   O10       1.0  0.73477  0.93411  0.28979  1.0000
  O   O11       1.0  0.86910  0.94797  0.66053  1.0000
  O   O12       1.0  0.13090  0.05203  0.33947  1.0000
  O   O13       1.0  0.42944  0.81660  0.49373  1.0000
  O   O14       1.0  0.57056  0.18340  0.50627  1.0000
