data_image0
_chemical_formula_structural       Cu2H18C20N8O8
_chemical_formula_sum              "Cu2 H18 C20 N8 O8"
_cell_length_a       8.12066
_cell_length_b       7.92753
_cell_length_c       11.9316
_cell_angle_alpha    76.5546
_cell_angle_beta     85.6049
_cell_angle_gamma    61.5294

_space_group_name_H-M_alt    "P 1"
_space_group_IT_number       1

loop_
  _space_group_symop_operation_xyz
  'x, y, z'

loop_
  _atom_site_type_symbol
  _atom_site_label
  _atom_site_symmetry_multiplicity
  _atom_site_fract_x
  _atom_site_fract_y
  _atom_site_fract_z
  _atom_site_occupancy
  Cu  Cu1       1.0  0.94424  0.98997  0.22995  1.0000
  Cu  Cu2       1.0  0.05577  0.01001  0.77004  1.0000
  H   H1        1.0  0.32635  0.77624  0.59561  1.0000
  H   H2        1.0  0.67365  0.22375  0.40439  1.0000
  H   H3        1.0  0.30353  0.33944  0.27885  1.0000
  H   H4        1.0  0.69644  0.66057  0.72116  1.0000
  H   H5        1.0  0.56279  0.73252  0.39210  1.0000
  H   H6        1.0  0.43722  0.26749  0.60790  1.0000
  H   H7        1.0  0.47336  0.83291  0.24823  1.0000
  H   H8        1.0  0.52663  0.16712  0.75177  1.0000
  H   H9        1.0  0.31859  0.05253  0.44323  1.0000
  H   H10       1.0  0.68140  0.94749  0.55678  1.0000
  H   H11       1.0  0.17226  0.54743  0.63941  1.0000
  H   H12       1.0  0.82775  0.45256  0.36059  1.0000
  H   H13       1.0  0.96198  0.64593  0.43717  1.0000
  H   H14       1.0  0.03803  0.35406  0.56283  1.0000
  H   H15       1.0  0.83226  0.43384  0.09272  1.0000
  H   H16       1.0  0.16772  0.56614  0.90729  1.0000
  H   H17       1.0  0.04607  0.61022  0.13016  1.0000
  H   H18       1.0  0.95389  0.38978  0.86986  1.0000
  C   C1        1.0  0.61413  0.96951  0.30885  1.0000
  C   C2        1.0  0.38588  0.03049  0.69115  1.0000
  C   C3        1.0  0.48792  0.87190  0.32814  1.0000
  C   C4        1.0  0.51208  0.12812  0.67187  1.0000
  C   C5        1.0  0.29346  0.99603  0.37389  1.0000
  C   C6        1.0  0.70654  0.00397  0.62611  1.0000
  C   C7        1.0  0.20620  0.86905  0.42717  1.0000
  C   C8        1.0  0.79380  0.13095  0.57284  1.0000
  C   C9        1.0  0.16083  0.64551  0.55666  1.0000
  C   C10       1.0  0.83918  0.35448  0.44334  1.0000
  C   C11       1.0  0.05691  0.69546  0.45743  1.0000
  C   C12       1.0  0.94311  0.30453  0.54257  1.0000
  C   C13       1.0  0.16932  0.16985  0.28334  1.0000
  C   C14       1.0  0.83067  0.83016  0.71667  1.0000
  C   C15       1.0  0.95218  0.37937  0.15038  1.0000
  C   C16       1.0  0.04780  0.62062  0.84963  1.0000
  C   C17       1.0  0.05545  0.46768  0.16720  1.0000
  C   C18       1.0  0.94452  0.53232  0.83280  1.0000
  C   C19       1.0  0.89908  0.08906  0.98993  1.0000
  C   C20       1.0  0.10092  0.91093  0.01004  1.0000
  N   N1        1.0  0.25388  0.75591  0.53593  1.0000
  N   N2        1.0  0.74613  0.24409  0.46407  1.0000
  N   N3        1.0  0.08595  0.83519  0.37763  1.0000
  N   N4        1.0  0.91406  0.16482  0.62237  1.0000
  N   N5        1.0  0.02535  0.19359  0.22283  1.0000
  N   N6        1.0  0.97464  0.80640  0.77718  1.0000
  N   N7        1.0  0.19065  0.33385  0.25092  1.0000
  N   N8        1.0  0.80933  0.66616  0.74909  1.0000
  O   O1        1.0  0.77049  0.87123  0.26556  1.0000
  O   O2        1.0  0.22952  0.12877  0.73445  1.0000
  O   O3        1.0  0.56181  0.13034  0.33911  1.0000
  O   O4        1.0  0.43821  0.86968  0.66087  1.0000
  O   O5        1.0  0.80660  0.13543  0.07934  1.0000
  O   O6        1.0  0.19342  0.86454  0.92063  1.0000
  O   O7        1.0  0.16100  0.82187  0.11206  1.0000
  O   O8        1.0  0.83901  0.17815  0.88791  1.0000
