data_image0
_chemical_formula_structural       Hg6H40C56Br12N16O4
_chemical_formula_sum              "Hg6 H40 C56 Br12 N16 O4"
_cell_length_a       7.31193
_cell_length_b       7.9753
_cell_length_c       29.1351
_cell_angle_alpha    92.2216
_cell_angle_beta     90.0005
_cell_angle_gamma    90.0005

_space_group_name_H-M_alt    "P 1"
_space_group_IT_number       1

loop_
  _space_group_symop_operation_xyz
  'x, y, z'

loop_
  _atom_site_type_symbol
  _atom_site_label
  _atom_site_symmetry_multiplicity
  _atom_site_fract_x
  _atom_site_fract_y
  _atom_site_fract_z
  _atom_site_occupancy
  Hg  Hg1       1.0  0.50001  0.99999  1.00000  1.0000
  Hg  Hg2       1.0  0.00000  0.99999  0.50000  1.0000
  Hg  Hg3       1.0  0.81281  0.32553  0.25087  1.0000
  Hg  Hg4       1.0  0.31279  0.67447  0.24913  1.0000
  Hg  Hg5       1.0  0.18719  0.67446  0.74913  1.0000
  Hg  Hg6       1.0  0.68719  0.32553  0.75087  1.0000
  H   H1        1.0  0.40081  0.33837  0.17532  1.0000
  H   H2        1.0  0.90080  0.66163  0.32468  1.0000
  H   H3        1.0  0.59920  0.66163  0.82468  1.0000
  H   H4        1.0  0.09918  0.33839  0.67533  1.0000
  H   H5        1.0  0.37552  0.11432  0.11157  1.0000
  H   H6        1.0  0.87551  0.88567  0.38843  1.0000
  H   H7        1.0  0.62451  0.88567  0.88842  1.0000
  H   H8        1.0  0.12447  0.11432  0.61158  1.0000
  H   H9        1.0  0.63128  0.43027  0.02156  1.0000
  H   H10       1.0  0.13129  0.56972  0.47844  1.0000
  H   H11       1.0  0.36872  0.56973  0.97844  1.0000
  H   H12       1.0  0.86873  0.43026  0.52156  1.0000
  H   H13       1.0  0.71567  0.98500  0.19783  1.0000
  H   H14       1.0  0.21568  0.01501  0.30217  1.0000
  H   H15       1.0  0.28434  0.01500  0.80217  1.0000
  H   H16       1.0  0.78433  0.98500  0.69783  1.0000
  H   H17       1.0  0.98141  0.50650  0.18022  1.0000
  H   H18       1.0  0.48141  0.49351  0.31978  1.0000
  H   H19       1.0  0.01858  0.49350  0.81978  1.0000
  H   H20       1.0  0.51859  0.50649  0.68022  1.0000
  H   H21       1.0  0.11847  0.65389  0.11597  1.0000
  H   H22       1.0  0.61846  0.34611  0.38403  1.0000
  H   H23       1.0  0.88153  0.34611  0.88403  1.0000
  H   H24       1.0  0.38154  0.65389  0.61597  1.0000
  H   H25       1.0  0.13802  0.51446  0.03789  1.0000
  H   H26       1.0  0.63802  0.48553  0.46211  1.0000
  H   H27       1.0  0.86198  0.48554  0.96211  1.0000
  H   H28       1.0  0.36198  0.51446  0.53789  1.0000
  H   H29       1.0  0.02849  0.22224  0.02505  1.0000
  H   H30       1.0  0.52851  0.77776  0.47495  1.0000
  H   H31       1.0  0.97151  0.77776  0.97495  1.0000
  H   H32       1.0  0.47148  0.22223  0.52505  1.0000
  H   H33       1.0  0.87321  0.97181  0.05478  1.0000
  H   H34       1.0  0.37322  0.02820  0.44522  1.0000
  H   H35       1.0  0.12680  0.02820  0.94522  1.0000
  H   H36       1.0  0.62678  0.97180  0.55478  1.0000
  H   H37       1.0  0.64384  0.74969  0.14977  1.0000
  H   H38       1.0  0.14385  0.25029  0.35023  1.0000
  H   H39       1.0  0.35617  0.25030  0.85023  1.0000
  H   H40       1.0  0.85617  0.74970  0.64976  1.0000
  C   C1        1.0  0.45275  0.35996  0.14092  1.0000
  C   C2        1.0  0.95275  0.64004  0.35908  1.0000
  C   C3        1.0  0.54725  0.64004  0.85908  1.0000
  C   C4        1.0  0.04725  0.35997  0.64092  1.0000
  C   C5        1.0  0.43848  0.23599  0.10583  1.0000
  C   C6        1.0  0.93848  0.76401  0.39417  1.0000
  C   C7        1.0  0.56153  0.76401  0.89417  1.0000
  C   C8        1.0  0.06151  0.23599  0.60584  1.0000
  C   C9        1.0  0.57831  0.40995  0.05586  1.0000
  C   C10       1.0  0.07832  0.59005  0.44414  1.0000
  C   C11       1.0  0.42169  0.59006  0.94414  1.0000
  C   C12       1.0  0.92169  0.40994  0.55586  1.0000
  C   C13       1.0  0.59221  0.53359  0.09113  1.0000
  C   C14       1.0  0.09222  0.46640  0.40886  1.0000
  C   C15       1.0  0.40779  0.46641  0.90886  1.0000
  C   C16       1.0  0.90779  0.53359  0.59113  1.0000
  C   C17       1.0  0.68354  0.69750  0.08235  1.0000
  C   C18       1.0  0.18354  0.30251  0.41765  1.0000
  C   C19       1.0  0.31645  0.30252  0.91765  1.0000
  C   C20       1.0  0.81647  0.69750  0.58234  1.0000
  C   C21       1.0  0.78187  0.95672  0.12472  1.0000
  C   C22       1.0  0.28188  0.04329  0.37528  1.0000
  C   C23       1.0  0.21813  0.04328  0.87528  1.0000
  C   C24       1.0  0.71813  0.95672  0.62472  1.0000
  C   C25       1.0  0.77754  0.04369  0.16830  1.0000
  C   C26       1.0  0.27755  0.95631  0.33170  1.0000
  C   C27       1.0  0.22247  0.95631  0.83170  1.0000
  C   C28       1.0  0.72246  0.04369  0.66829  1.0000
  C   C29       1.0  0.92445  0.27875  0.13983  1.0000
  C   C30       1.0  0.42446  0.72125  0.36017  1.0000
  C   C31       1.0  0.07555  0.72125  0.86017  1.0000
  C   C32       1.0  0.57555  0.27875  0.63983  1.0000
  C   C33       1.0  0.99166  0.44397  0.14647  1.0000
  C   C34       1.0  0.49165  0.55603  0.35353  1.0000
  C   C35       1.0  0.00834  0.55603  0.85353  1.0000
  C   C36       1.0  0.50834  0.44396  0.64647  1.0000
  C   C37       1.0  0.06699  0.52644  0.11022  1.0000
  C   C38       1.0  0.56698  0.47356  0.38978  1.0000
  C   C39       1.0  0.93302  0.47356  0.88978  1.0000
  C   C40       1.0  0.43302  0.52643  0.61022  1.0000
  C   C41       1.0  0.07905  0.44696  0.06612  1.0000
  C   C42       1.0  0.57905  0.55304  0.43388  1.0000
  C   C43       1.0  0.92095  0.55304  0.93388  1.0000
  C   C44       1.0  0.42095  0.44696  0.56612  1.0000
  C   C45       1.0  0.01766  0.28482  0.05884  1.0000
  C   C46       1.0  0.51766  0.71518  0.44117  1.0000
  C   C47       1.0  0.98235  0.71518  0.94117  1.0000
  C   C48       1.0  0.48233  0.28481  0.55884  1.0000
  C   C49       1.0  0.93755  0.19737  0.09529  1.0000
  C   C50       1.0  0.43756  0.80264  0.40471  1.0000
  C   C51       1.0  0.06246  0.80263  0.90471  1.0000
  C   C52       1.0  0.56244  0.19736  0.59529  1.0000
  C   C53       1.0  0.86514  0.03458  0.08843  1.0000
  C   C54       1.0  0.36514  0.96542  0.41158  1.0000
  C   C55       1.0  0.13487  0.96542  0.91158  1.0000
  C   C56       1.0  0.63486  0.03458  0.58842  1.0000
  Br  Br1       1.0  0.73729  0.14108  0.95401  1.0000
  Br  Br2       1.0  0.23730  0.85891  0.54598  1.0000
  Br  Br3       1.0  0.26271  0.85892  0.04599  1.0000
  Br  Br4       1.0  0.76271  0.14109  0.45402  1.0000
  Br  Br5       1.0  0.76490  0.09022  0.30505  1.0000
  Br  Br6       1.0  0.26484  0.90981  0.19497  1.0000
  Br  Br7       1.0  0.23510  0.90976  0.69495  1.0000
  Br  Br8       1.0  0.73511  0.09024  0.80505  1.0000
  Br  Br9       1.0  0.72346  0.63678  0.24356  1.0000
  Br  Br10      1.0  0.22347  0.36320  0.25643  1.0000
  Br  Br11      1.0  0.27650  0.36321  0.75644  1.0000
  Br  Br12      1.0  0.77649  0.63679  0.74356  1.0000
  N   N1        1.0  0.53012  0.50825  0.13364  1.0000
  N   N2        1.0  0.03012  0.49175  0.36636  1.0000
  N   N3        1.0  0.46988  0.49175  0.86635  1.0000
  N   N4        1.0  0.96988  0.50825  0.63364  1.0000
  N   N5        1.0  0.50202  0.26141  0.06363  1.0000
  N   N6        1.0  0.00202  0.73859  0.43637  1.0000
  N   N7        1.0  0.49799  0.73859  0.93636  1.0000
  N   N8        1.0  0.99797  0.26140  0.56364  1.0000
  N   N9        1.0  0.70052  0.79891  0.12103  1.0000
  N   N10       1.0  0.20052  0.20109  0.37897  1.0000
  N   N11       1.0  0.29948  0.20109  0.87897  1.0000
  N   N12       1.0  0.79949  0.79891  0.62103  1.0000
  N   N13       1.0  0.84451  0.19672  0.17523  1.0000
  N   N14       1.0  0.34451  0.80329  0.32477  1.0000
  N   N15       1.0  0.15549  0.80328  0.82477  1.0000
  N   N16       1.0  0.65549  0.19671  0.67523  1.0000
  O   O1        1.0  0.73785  0.73123  0.04342  1.0000
  O   O2        1.0  0.23785  0.26878  0.45658  1.0000
  O   O3        1.0  0.26213  0.26880  0.95658  1.0000
  O   O4        1.0  0.76217  0.73122  0.54342  1.0000
