data_image0
_chemical_formula_structural       HgH20C28Br2N8O2
_chemical_formula_sum              "Hg1 H20 C28 Br2 N8 O2"
_cell_length_a       3.95324
_cell_length_b       11.855
_cell_length_c       14.2007
_cell_angle_alpha    97.1604
_cell_angle_beta     92.7293
_cell_angle_gamma    90.1399

_space_group_name_H-M_alt    "P 1"
_space_group_IT_number       1

loop_
  _space_group_symop_operation_xyz
  'x, y, z'

loop_
  _atom_site_type_symbol
  _atom_site_label
  _atom_site_symmetry_multiplicity
  _atom_site_fract_x
  _atom_site_fract_y
  _atom_site_fract_z
  _atom_site_occupancy
  Hg  Hg1       1.0  0.50000  0.50000  0.50000  1.0000
  H   H1        1.0  0.93991  0.62536  0.15270  1.0000
  H   H2        1.0  0.06008  0.37464  0.84729  1.0000
  H   H3        1.0  0.78443  0.64732  0.32479  1.0000
  H   H4        1.0  0.21557  0.35269  0.67521  1.0000
  H   H5        1.0  0.28079  0.33681  0.28086  1.0000
  H   H6        1.0  0.71921  0.66319  0.71914  1.0000
  H   H7        1.0  0.17878  0.07971  0.00119  1.0000
  H   H8        1.0  0.82120  0.92029  0.99881  1.0000
  H   H9        1.0  0.17896  0.92413  0.86416  1.0000
  H   H10       1.0  0.82105  0.07587  0.13584  1.0000
  H   H11       1.0  0.36602  0.85750  0.70021  1.0000
  H   H12       1.0  0.63400  0.14249  0.29979  1.0000
  H   H13       1.0  0.64609  0.89948  0.55568  1.0000
  H   H14       1.0  0.35391  0.10052  0.44432  1.0000
  H   H15       1.0  0.87963  0.09410  0.54748  1.0000
  H   H16       1.0  0.12035  0.90590  0.45252  1.0000
  H   H17       1.0  0.84758  0.24368  0.68445  1.0000
  H   H18       1.0  0.15241  0.75632  0.31555  1.0000
  H   H19       1.0  0.62659  0.35287  0.99021  1.0000
  H   H20       1.0  0.37340  0.64713  0.00978  1.0000
  C   C1        1.0  0.78577  0.56098  0.17974  1.0000
  C   C2        1.0  0.21423  0.43902  0.82026  1.0000
  C   C3        1.0  0.70505  0.57318  0.27539  1.0000
  C   C4        1.0  0.29495  0.42682  0.72460  1.0000
  C   C5        1.0  0.42386  0.40218  0.25180  1.0000
  C   C6        1.0  0.57614  0.59782  0.74820  1.0000
  C   C7        1.0  0.49742  0.39174  0.15577  1.0000
  C   C8        1.0  0.50257  0.60826  0.84423  1.0000
  C   C9        1.0  0.37086  0.28888  0.09121  1.0000
  C   C10       1.0  0.62915  0.71112  0.90878  1.0000
  C   C11       1.0  0.45738  0.19572  0.92638  1.0000
  C   C12       1.0  0.54262  0.80428  0.07362  1.0000
  C   C13       1.0  0.29501  0.09090  0.93534  1.0000
  C   C14       1.0  0.70499  0.90911  0.06466  1.0000
  C   C15       1.0  0.29857  0.00621  0.85997  1.0000
  C   C16       1.0  0.70144  0.99379  0.14004  1.0000
  C   C17       1.0  0.45589  0.02552  0.77590  1.0000
  C   C18       1.0  0.54411  0.97448  0.22410  1.0000
  C   C19       1.0  0.47570  0.94125  0.69655  1.0000
  C   C20       1.0  0.52432  0.05875  0.30345  1.0000
  C   C21       1.0  0.62875  0.96526  0.61601  1.0000
  C   C22       1.0  0.37126  0.03474  0.38400  1.0000
  C   C23       1.0  0.76144  0.07525  0.61156  1.0000
  C   C24       1.0  0.23857  0.92475  0.38844  1.0000
  C   C25       1.0  0.74609  0.15903  0.68785  1.0000
  C   C26       1.0  0.25391  0.84097  0.31215  1.0000
  C   C27       1.0  0.59940  0.13607  0.77256  1.0000
  C   C28       1.0  0.40060  0.86393  0.22744  1.0000
  Br  Br1       1.0  0.93054  0.66933  0.52449  1.0000
  Br  Br2       1.0  0.06946  0.33068  0.47551  1.0000
  N   N1        1.0  0.68269  0.47010  0.11987  1.0000
  N   N2        1.0  0.31731  0.52990  0.88013  1.0000
  N   N3        1.0  0.52895  0.49349  0.31115  1.0000
  N   N4        1.0  0.47106  0.50651  0.68885  1.0000
  N   N5        1.0  0.48378  0.28419  0.00157  1.0000
  N   N6        1.0  0.51620  0.71581  0.99842  1.0000
  N   N7        1.0  0.60164  0.21899  0.84847  1.0000
  N   N8        1.0  0.39836  0.78101  0.15153  1.0000
  O   O1        1.0  0.18434  0.21834  0.12087  1.0000
  O   O2        1.0  0.81564  0.78165  0.87913  1.0000
