data_image0
_chemical_formula_structural       Cu2H24C24N16
_chemical_formula_sum              "Cu2 H24 C24 N16"
_cell_length_a       7.8657
_cell_length_b       9.07067
_cell_length_c       10.85
_cell_angle_alpha    113.839
_cell_angle_beta     102.926
_cell_angle_gamma    99.5232

_space_group_name_H-M_alt    "P 1"
_space_group_IT_number       1

loop_
  _space_group_symop_operation_xyz
  'x, y, z'

loop_
  _atom_site_type_symbol
  _atom_site_label
  _atom_site_symmetry_multiplicity
  _atom_site_fract_x
  _atom_site_fract_y
  _atom_site_fract_z
  _atom_site_occupancy
  Cu  Cu1       1.0  0.71286  0.99425  0.09108  1.0000
  Cu  Cu2       1.0  0.28715  0.00575  0.90893  1.0000
  H   H1        1.0  0.03090  0.30236  0.30126  1.0000
  H   H2        1.0  0.96911  0.69765  0.69874  1.0000
  H   H3        1.0  0.17978  0.45308  0.56634  1.0000
  H   H4        1.0  0.82022  0.54693  0.43366  1.0000
  H   H5        1.0  0.79343  0.07910  0.59256  1.0000
  H   H6        1.0  0.20658  0.92091  0.40745  1.0000
  H   H7        1.0  0.60092  0.84047  0.46984  1.0000
  H   H8        1.0  0.39908  0.15953  0.53016  1.0000
  H   H9        1.0  0.26796  0.47335  0.04463  1.0000
  H   H10       1.0  0.73205  0.52665  0.95537  1.0000
  H   H11       1.0  0.40991  0.66541  0.95582  1.0000
  H   H12       1.0  0.59010  0.33458  0.04418  1.0000
  H   H13       1.0  0.09565  0.50895  0.79899  1.0000
  H   H14       1.0  0.90436  0.49106  0.20100  1.0000
  H   H15       1.0  0.20493  0.35226  0.79477  1.0000
  H   H16       1.0  0.79506  0.64775  0.20524  1.0000
  H   H17       1.0  0.98525  0.32741  0.81087  1.0000
  H   H18       1.0  0.01474  0.67262  0.18914  1.0000
  H   H19       1.0  0.32617  0.60226  0.42184  1.0000
  H   H20       1.0  0.67382  0.39774  0.57816  1.0000
  H   H21       1.0  0.45557  0.46854  0.34953  1.0000
  H   H22       1.0  0.54443  0.53145  0.65047  1.0000
  H   H23       1.0  0.23071  0.43051  0.24492  1.0000
  H   H24       1.0  0.76929  0.56948  0.75507  1.0000
  C   C1        1.0  0.98467  0.25774  0.37070  1.0000
  C   C2        1.0  0.01533  0.74226  0.62931  1.0000
  C   C3        1.0  0.06472  0.34030  0.51742  1.0000
  C   C4        1.0  0.93529  0.65971  0.48259  1.0000
  C   C5        1.0  0.99427  0.28034  0.60152  1.0000
  C   C6        1.0  0.00573  0.71966  0.39848  1.0000
  C   C7        1.0  0.84949  0.13216  0.53114  1.0000
  C   C8        1.0  0.15052  0.86785  0.46886  1.0000
  C   C9        1.0  0.77719  0.05383  0.38273  1.0000
  C   C10       1.0  0.22281  0.94617  0.61728  1.0000
  C   C11       1.0  0.62973  0.89496  0.29762  1.0000
  C   C12       1.0  0.37027  0.10504  0.70238  1.0000
  C   C13       1.0  0.55546  0.79827  0.35537  1.0000
  C   C14       1.0  0.44454  0.20173  0.64462  1.0000
  C   C15       1.0  0.42506  0.64249  0.26501  1.0000
  C   C16       1.0  0.57494  0.35752  0.73499  1.0000
  C   C17       1.0  0.36919  0.59371  0.11886  1.0000
  C   C18       1.0  0.63081  0.40629  0.88113  1.0000
  C   C19       1.0  0.44726  0.69760  0.06839  1.0000
  C   C20       1.0  0.55273  0.30240  0.93161  1.0000
  C   C21       1.0  0.07226  0.37258  0.76012  1.0000
  C   C22       1.0  0.92774  0.62743  0.23988  1.0000
  C   C23       1.0  0.35386  0.53018  0.32328  1.0000
  C   C24       1.0  0.64614  0.46982  0.67672  1.0000
  N   N1        1.0  0.84251  0.11944  0.30482  1.0000
  N   N2        1.0  0.15751  0.88056  0.69519  1.0000
  N   N3        1.0  0.57645  0.84340  0.15530  1.0000
  N   N4        1.0  0.42355  0.15660  0.84469  1.0000
  N   N5        1.0  0.84609  0.17883  0.06505  1.0000
  N   N6        1.0  0.15392  0.82117  0.93496  1.0000
  N   N7        1.0  0.95111  0.16471  0.99879  1.0000
  N   N8        1.0  0.04890  0.83527  0.00119  1.0000
  N   N9        1.0  0.05589  0.16137  0.93648  1.0000
  N   N10       1.0  0.94408  0.83860  0.06349  1.0000
  N   N11       1.0  0.56334  0.85359  0.88723  1.0000
  N   N12       1.0  0.43666  0.14642  0.11277  1.0000
  N   N13       1.0  0.61051  0.86366  0.79201  1.0000
  N   N14       1.0  0.38948  0.13634  0.20799  1.0000
  N   N15       1.0  0.64908  0.86789  0.69501  1.0000
  N   N16       1.0  0.35090  0.13209  0.30498  1.0000
