data_image0
_chemical_formula_structural       Sm4H32C24O28
_chemical_formula_sum              "Sm4 H32 C24 O28"
_cell_length_a       7.70691
_cell_length_b       8.07827
_cell_length_c       14.2013
_cell_angle_alpha    96.8817
_cell_angle_beta     96.0326
_cell_angle_gamma    103.822

_space_group_name_H-M_alt    "P 1"
_space_group_IT_number       1

loop_
  _space_group_symop_operation_xyz
  'x, y, z'

loop_
  _atom_site_type_symbol
  _atom_site_label
  _atom_site_symmetry_multiplicity
  _atom_site_fract_x
  _atom_site_fract_y
  _atom_site_fract_z
  _atom_site_occupancy
  Sm  Sm1       1.0  0.41145  0.51103  0.29897  1.0000
  Sm  Sm2       1.0  0.58855  0.48897  0.70103  1.0000
  Sm  Sm3       1.0  0.87120  0.42410  0.20793  1.0000
  Sm  Sm4       1.0  0.12880  0.57591  0.79207  1.0000
  H   H1        1.0  0.07727  0.87772  0.14298  1.0000
  H   H2        1.0  0.92273  0.12228  0.85702  1.0000
  H   H3        1.0  0.28718  0.02778  0.19280  1.0000
  H   H4        1.0  0.71282  0.97222  0.80720  1.0000
  H   H5        1.0  0.97580  0.89752  0.30609  1.0000
  H   H6        1.0  0.02420  0.10248  0.69390  1.0000
  H   H7        1.0  0.18946  0.04594  0.35370  1.0000
  H   H8        1.0  0.81053  0.95406  0.64630  1.0000
  H   H9        1.0  0.67474  0.03781  0.37360  1.0000
  H   H10       1.0  0.32526  0.96219  0.62640  1.0000
  H   H11       1.0  0.59722  0.09279  0.48328  1.0000
  H   H12       1.0  0.40278  0.90721  0.51672  1.0000
  H   H13       1.0  0.93858  0.12459  0.49495  1.0000
  H   H14       1.0  0.06142  0.87541  0.50505  1.0000
  H   H15       1.0  0.95506  0.29571  0.42808  1.0000
  H   H16       1.0  0.04494  0.70429  0.57192  1.0000
  H   H17       1.0  0.61902  0.90410  0.15309  1.0000
  H   H18       1.0  0.38098  0.09590  0.84691  1.0000
  H   H19       1.0  0.45542  0.73205  0.08133  1.0000
  H   H20       1.0  0.54458  0.26794  0.91867  1.0000
  H   H21       1.0  0.63810  0.99126  0.00261  1.0000
  H   H22       1.0  0.36190  0.00874  0.99739  1.0000
  H   H23       1.0  0.80974  0.88060  0.00643  1.0000
  H   H24       1.0  0.19026  0.11940  0.99357  1.0000
  H   H25       1.0  0.77519  0.66215  0.41260  1.0000
  H   H26       1.0  0.22481  0.33785  0.58740  1.0000
  H   H27       1.0  0.63172  0.69781  0.48529  1.0000
  H   H28       1.0  0.36828  0.30219  0.51472  1.0000
  H   H29       1.0  0.01888  0.34563  0.00975  1.0000
  H   H30       1.0  0.98112  0.65437  0.99026  1.0000
  H   H31       1.0  0.13747  0.31645  0.09805  1.0000
  H   H32       1.0  0.86253  0.68355  0.90195  1.0000
  C   C1        1.0  0.25497  0.78185  0.23677  1.0000
  C   C2        1.0  0.74503  0.21815  0.76323  1.0000
  C   C3        1.0  0.17630  0.92523  0.20762  1.0000
  C   C4        1.0  0.82370  0.07477  0.79238  1.0000
  C   C5        1.0  0.08755  0.99813  0.29014  1.0000
  C   C6        1.0  0.91244  0.00187  0.70986  1.0000
  C   C7        1.0  0.01383  0.14475  0.26207  1.0000
  C   C8        1.0  0.98617  0.85525  0.73793  1.0000
  C   C9        1.0  0.58694  0.26550  0.38290  1.0000
  C   C10       1.0  0.41306  0.73450  0.61711  1.0000
  C   C11       1.0  0.67854  0.14525  0.42985  1.0000
  C   C12       1.0  0.32147  0.85475  0.57015  1.0000
  C   C13       1.0  0.87336  0.22609  0.47694  1.0000
  C   C14       1.0  0.12664  0.77391  0.52306  1.0000
  C   C15       1.0  0.88690  0.35210  0.56760  1.0000
  C   C16       1.0  0.11310  0.64790  0.43240  1.0000
  C   C17       1.0  0.69926  0.67419  0.13320  1.0000
  C   C18       1.0  0.30074  0.32581  0.86680  1.0000
  C   C19       1.0  0.60065  0.79693  0.09460  1.0000
  C   C20       1.0  0.39936  0.20307  0.90540  1.0000
  C   C21       1.0  0.66404  0.86359  0.00435  1.0000
  C   C22       1.0  0.33596  0.13641  0.99565  1.0000
  C   C23       1.0  0.56132  0.74576  0.91441  1.0000
  C   C24       1.0  0.43868  0.25425  0.08559  1.0000
  O   O1        1.0  0.40497  0.81748  0.28959  1.0000
  O   O2        1.0  0.59503  0.18252  0.71041  1.0000
  O   O3        1.0  0.16795  0.62218  0.20817  1.0000
  O   O4        1.0  0.83205  0.37781  0.79183  1.0000
  O   O5        1.0  0.11727  0.29971  0.27575  1.0000
  O   O6        1.0  0.88273  0.70029  0.72425  1.0000
  O   O7        1.0  0.85163  0.11775  0.22464  1.0000
  O   O8        1.0  0.14837  0.88225  0.77536  1.0000
  O   O9        1.0  0.43868  0.29072  0.40606  1.0000
  O   O10       1.0  0.56132  0.70928  0.59394  1.0000
  O   O11       1.0  0.65311  0.34103  0.31524  1.0000
  O   O12       1.0  0.34689  0.65897  0.68477  1.0000
  O   O13       1.0  0.75203  0.41252  0.57869  1.0000
  O   O14       1.0  0.24797  0.58748  0.42131  1.0000
  O   O15       1.0  0.03284  0.39102  0.62701  1.0000
  O   O16       1.0  0.96716  0.60898  0.37299  1.0000
  O   O17       1.0  0.66163  0.62059  0.21262  1.0000
  O   O18       1.0  0.33837  0.37941  0.78738  1.0000
  O   O19       1.0  0.82029  0.62425  0.09198  1.0000
  O   O20       1.0  0.17971  0.37575  0.90802  1.0000
  O   O21       1.0  0.39302  0.72975  0.89903  1.0000
  O   O22       1.0  0.60698  0.27025  0.10097  1.0000
  O   O23       1.0  0.64852  0.66849  0.85902  1.0000
  O   O24       1.0  0.35149  0.33151  0.14098  1.0000
  O   O25       1.0  0.65459  0.68404  0.41741  1.0000
  O   O26       1.0  0.34541  0.31596  0.58259  1.0000
  O   O27       1.0  0.00914  0.31356  0.07367  1.0000
  O   O28       1.0  0.99086  0.68644  0.92633  1.0000
