data_image0
_chemical_formula_structural       Cu2H36C32N4O10
_chemical_formula_sum              "Cu2 H36 C32 N4 O10"
_cell_length_a       6.75673
_cell_length_b       9.82397
_cell_length_c       12.5614
_cell_angle_alpha    86.0551
_cell_angle_beta     83.6876
_cell_angle_gamma    76.16

_space_group_name_H-M_alt    "P 1"
_space_group_IT_number       1

loop_
  _space_group_symop_operation_xyz
  'x, y, z'

loop_
  _atom_site_type_symbol
  _atom_site_label
  _atom_site_symmetry_multiplicity
  _atom_site_fract_x
  _atom_site_fract_y
  _atom_site_fract_z
  _atom_site_occupancy
  Cu  Cu1       1.0  0.73346  0.27145  0.20682  1.0000
  Cu  Cu2       1.0  0.26657  0.72854  0.79317  1.0000
  H   H1        1.0  0.55499  0.84903  0.54602  1.0000
  H   H2        1.0  0.44500  0.15096  0.45399  1.0000
  H   H3        1.0  0.71144  0.97005  0.54419  1.0000
  H   H4        1.0  0.28855  0.02993  0.45582  1.0000
  H   H5        1.0  0.81234  0.79851  0.39554  1.0000
  H   H6        1.0  0.18766  0.20149  0.60446  1.0000
  H   H7        1.0  0.57282  0.87631  0.34246  1.0000
  H   H8        1.0  0.42717  0.12369  0.65755  1.0000
  H   H9        1.0  0.72026  0.56092  0.28380  1.0000
  H   H10       1.0  0.27976  0.43909  0.71619  1.0000
  H   H11       1.0  0.71663  0.79879  0.19311  1.0000
  H   H12       1.0  0.28332  0.20122  0.80687  1.0000
  H   H13       1.0  0.32528  0.55046  0.45972  1.0000
  H   H14       1.0  0.67479  0.44955  0.54028  1.0000
  H   H15       1.0  0.34803  0.38208  0.51856  1.0000
  H   H16       1.0  0.65201  0.61793  0.48144  1.0000
  H   H17       1.0  0.80148  0.98067  0.86976  1.0000
  H   H18       1.0  0.19851  0.01932  0.13025  1.0000
  H   H19       1.0  0.72521  0.82093  0.99099  1.0000
  H   H20       1.0  0.27473  0.17907  0.00899  1.0000
  H   H21       1.0  0.76032  0.02014  0.07039  1.0000
  H   H22       1.0  0.23969  0.97986  0.92960  1.0000
  H   H23       1.0  0.02355  0.36448  0.44031  1.0000
  H   H24       1.0  0.97647  0.63557  0.55970  1.0000
  H   H25       1.0  0.00806  0.53159  0.37816  1.0000
  H   H26       1.0  0.99198  0.46845  0.62185  1.0000
  H   H27       1.0  0.80892  0.18637  0.74320  1.0000
  H   H28       1.0  0.19105  0.81362  0.25680  1.0000
  H   H29       1.0  0.73608  0.61158  0.89076  1.0000
  H   H30       1.0  0.26390  0.38841  0.10923  1.0000
  H   H31       1.0  0.77487  0.42345  0.81696  1.0000
  H   H32       1.0  0.22512  0.57654  0.18304  1.0000
  H   H33       1.0  0.05131  0.13542  0.28410  1.0000
  H   H34       1.0  0.94869  0.86458  0.71593  1.0000
  H   H35       1.0  0.15276  0.26830  0.25263  1.0000
  H   H36       1.0  0.84726  0.73169  0.74738  1.0000
  C   C1        1.0  0.41300  0.38691  0.34822  1.0000
  C   C2        1.0  0.58701  0.61311  0.65177  1.0000
  C   C3        1.0  0.75631  0.34270  0.98143  1.0000
  C   C4        1.0  0.24369  0.65729  0.01857  1.0000
  C   C5        1.0  0.59574  0.94009  0.50130  1.0000
  C   C6        1.0  0.40425  0.05990  0.49871  1.0000
  C   C7        1.0  0.69191  0.89553  0.38859  1.0000
  C   C8        1.0  0.30808  0.10446  0.61142  1.0000
  C   C9        1.0  0.72697  0.57768  0.19691  1.0000
  C   C10       1.0  0.27305  0.42232  0.80308  1.0000
  C   C11       1.0  0.74282  0.47459  0.03354  1.0000
  C   C12       1.0  0.25719  0.52540  0.96645  1.0000
  C   C13       1.0  0.72423  0.70855  0.14595  1.0000
  C   C14       1.0  0.27575  0.29146  0.85404  1.0000
  C   C15       1.0  0.28955  0.44864  0.44944  1.0000
  C   C16       1.0  0.71049  0.55138  0.55057  1.0000
  C   C17       1.0  0.78630  0.08458  0.90024  1.0000
  C   C18       1.0  0.21369  0.91541  0.09976  1.0000
  C   C19       1.0  0.79183  0.00691  0.33017  1.0000
  C   C20       1.0  0.20815  0.99309  0.66984  1.0000
  C   C21       1.0  0.72880  0.72090  0.03457  1.0000
  C   C22       1.0  0.27116  0.27910  0.96542  1.0000
  C   C23       1.0  0.76595  0.10473  0.01008  1.0000
  C   C24       1.0  0.23405  0.89526  0.98992  1.0000
  C   C25       1.0  0.05922  0.46655  0.44944  1.0000
  C   C26       1.0  0.94082  0.53349  0.55058  1.0000
  C   C27       1.0  0.79065  0.20012  0.82949  1.0000
  C   C28       1.0  0.20933  0.79986  0.17051  1.0000
  C   C29       1.0  0.73769  0.60301  0.97746  1.0000
  C   C30       1.0  0.26231  0.39698  0.02253  1.0000
  C   C31       1.0  0.77417  0.33108  0.87027  1.0000
  C   C32       1.0  0.22582  0.66891  0.12973  1.0000
  N   N1        1.0  0.73579  0.46380  0.14190  1.0000
  N   N2        1.0  0.26423  0.53620  0.85809  1.0000
  N   N3        1.0  0.75320  0.23012  0.04963  1.0000
  N   N4        1.0  0.24681  0.76988  0.95037  1.0000
  O   O1        1.0  0.07503  0.20690  0.22524  1.0000
  O   O2        1.0  0.92498  0.79308  0.77478  1.0000
  O   O3        1.0  0.60920  0.35099  0.34955  1.0000
  O   O4        1.0  0.39082  0.64902  0.65044  1.0000
  O   O5        1.0  0.32266  0.37550  0.26761  1.0000
  O   O6        1.0  0.67733  0.62450  0.73240  1.0000
  O   O7        1.0  0.68967  0.08447  0.25739  1.0000
  O   O8        1.0  0.31033  0.91552  0.74262  1.0000
  O   O9        1.0  0.96170  0.01710  0.35650  1.0000
  O   O10       1.0  0.03828  0.98290  0.64351  1.0000
