data_image0
_chemical_formula_structural       Cu2H20C14N10Cl2O10
_chemical_formula_sum              "Cu2 H20 C14 N10 Cl2 O10"
_cell_length_a       6.57269
_cell_length_b       9.03037
_cell_length_c       10.9758
_cell_angle_alpha    104.614
_cell_angle_beta     103.31
_cell_angle_gamma    103.563

_space_group_name_H-M_alt    "P 1"
_space_group_IT_number       1

loop_
  _space_group_symop_operation_xyz
  'x, y, z'

loop_
  _atom_site_type_symbol
  _atom_site_label
  _atom_site_symmetry_multiplicity
  _atom_site_fract_x
  _atom_site_fract_y
  _atom_site_fract_z
  _atom_site_occupancy
  Cu  Cu1       1.0  0.19942  0.66078  0.22368  1.0000
  Cu  Cu2       1.0  0.80058  0.33922  0.77632  1.0000
  H   H1        1.0  0.55370  0.60275  0.61572  1.0000
  H   H2        1.0  0.44629  0.39725  0.38429  1.0000
  H   H3        1.0  0.45413  0.57742  0.74878  1.0000
  H   H4        1.0  0.54586  0.42258  0.25122  1.0000
  H   H5        1.0  0.63693  0.76893  0.76477  1.0000
  H   H6        1.0  0.36307  0.23107  0.23523  1.0000
  H   H7        1.0  0.73121  0.92553  0.58350  1.0000
  H   H8        1.0  0.26879  0.07446  0.41649  1.0000
  H   H9        1.0  0.72159  0.84796  0.41615  1.0000
  H   H10       1.0  0.27842  0.15204  0.58384  1.0000
  H   H11       1.0  0.41488  0.76910  0.88523  1.0000
  H   H12       1.0  0.58511  0.23090  0.11477  1.0000
  H   H13       1.0  0.08558  0.93677  0.92175  1.0000
  H   H14       1.0  0.91441  0.06323  0.07825  1.0000
  H   H15       1.0  0.26596  0.88878  0.04389  1.0000
  H   H16       1.0  0.73404  0.11122  0.95611  1.0000
  H   H17       1.0  0.31989  0.48159  0.06466  1.0000
  H   H18       1.0  0.68011  0.51840  0.93534  1.0000
  H   H19       1.0  0.53819  0.64180  0.14452  1.0000
  H   H20       1.0  0.46181  0.35820  0.85548  1.0000
  C   C1        1.0  0.21086  0.78657  0.72350  1.0000
  C   C2        1.0  0.78913  0.21343  0.27649  1.0000
  C   C3        1.0  0.95706  0.81122  0.55221  1.0000
  C   C4        1.0  0.04295  0.18879  0.44780  1.0000
  C   C5        1.0  0.05703  0.73801  0.45815  1.0000
  C   C6        1.0  0.94298  0.26199  0.54184  1.0000
  C   C7        1.0  0.24542  0.68634  0.50609  1.0000
  C   C8        1.0  0.75457  0.31367  0.49392  1.0000
  C   C9        1.0  0.50155  0.66261  0.69686  1.0000
  C   C10       1.0  0.49844  0.33738  0.30314  1.0000
  C   C11       1.0  0.16081  0.84510  0.94033  1.0000
  C   C12       1.0  0.83918  0.15490  0.05967  1.0000
  C   C13       1.0  0.98038  0.68912  0.91874  1.0000
  C   C14       1.0  0.01962  0.31087  0.08126  1.0000
  N   N1        1.0  0.31301  0.71060  0.64147  1.0000
  N   N2        1.0  0.68699  0.28941  0.35853  1.0000
  N   N3        1.0  0.03629  0.83103  0.68116  1.0000
  N   N4        1.0  0.96372  0.16898  0.31884  1.0000
  N   N5        1.0  0.79016  0.86456  0.51393  1.0000
  N   N6        1.0  0.20984  0.13544  0.48607  1.0000
  N   N7        1.0  0.99546  0.71646  0.32773  1.0000
  N   N8        1.0  0.00454  0.28354  0.67226  1.0000
  N   N9        1.0  0.29487  0.81663  0.85422  1.0000
  N   N10       1.0  0.70513  0.18336  0.14579  1.0000
  Cl  Cl1       1.0  0.40387  0.92150  0.29186  1.0000
  Cl  Cl2       1.0  0.59613  0.07850  0.70814  1.0000
  O   O1        1.0  0.82692  0.74804  0.27323  1.0000
  O   O2        1.0  0.17308  0.25196  0.72676  1.0000
  O   O3        1.0  0.34060  0.62228  0.43258  1.0000
  O   O4        1.0  0.65942  0.37772  0.56741  1.0000
  O   O5        1.0  0.83179  0.69911  0.97259  1.0000
  O   O6        1.0  0.16820  0.30088  0.02741  1.0000
  O   O7        1.0  0.00127  0.56121  0.84688  1.0000
  O   O8        1.0  0.99874  0.43879  0.15312  1.0000
  O   O9        1.0  0.37875  0.60465  0.10040  1.0000
  O   O10       1.0  0.62125  0.39535  0.89960  1.0000
