data_image0
_chemical_formula_structural       Cu2H20C14N10Cl2O10
_chemical_formula_sum              "Cu2 H20 C14 N10 Cl2 O10"
_cell_length_a       6.98745
_cell_length_b       9.08301
_cell_length_c       11.3357
_cell_angle_alpha    112.758
_cell_angle_beta     108.489
_cell_angle_gamma    99.1334

_space_group_name_H-M_alt    "P 1"
_space_group_IT_number       1

loop_
  _space_group_symop_operation_xyz
  'x, y, z'

loop_
  _atom_site_type_symbol
  _atom_site_label
  _atom_site_symmetry_multiplicity
  _atom_site_fract_x
  _atom_site_fract_y
  _atom_site_fract_z
  _atom_site_occupancy
  Cu  Cu1       1.0  0.31917  0.35570  0.78513  1.0000
  Cu  Cu2       1.0  0.68083  0.64430  0.21487  1.0000
  H   H1        1.0  0.08107  0.22802  0.12053  1.0000
  H   H2        1.0  0.91893  0.77198  0.87947  1.0000
  H   H3        1.0  0.18327  0.06862  0.94629  1.0000
  H   H4        1.0  0.81672  0.93138  0.05371  1.0000
  H   H5        1.0  0.37576  0.03268  0.07021  1.0000
  H   H6        1.0  0.62423  0.96731  0.92978  1.0000
  H   H7        1.0  0.03138  0.42124  0.27518  1.0000
  H   H8        1.0  0.96862  0.57876  0.72482  1.0000
  H   H9        1.0  0.94010  0.37689  0.39091  1.0000
  H   H10       1.0  0.05991  0.62311  0.60910  1.0000
  H   H11       1.0  0.87122  0.21095  0.22057  1.0000
  H   H12       1.0  0.12878  0.78906  0.77943  1.0000
  H   H13       1.0  0.77432  0.09082  0.43037  1.0000
  H   H14       1.0  0.22568  0.90917  0.56963  1.0000
  H   H15       1.0  0.78043  0.16320  0.60118  1.0000
  H   H16       1.0  0.21957  0.83679  0.39882  1.0000
  H   H17       1.0  0.20752  0.44168  0.98204  1.0000
  H   H18       1.0  0.79250  0.55832  0.01797  1.0000
  H   H19       1.0  0.24213  0.58875  0.93978  1.0000
  H   H20       1.0  0.75787  0.41124  0.06022  1.0000
  C   C1        1.0  0.28884  0.21329  0.28415  1.0000
  C   C2        1.0  0.71115  0.78671  0.71585  1.0000
  C   C3        1.0  0.25774  0.31087  0.50500  1.0000
  C   C4        1.0  0.74226  0.68913  0.49500  1.0000
  C   C5        1.0  0.44040  0.25812  0.55291  1.0000
  C   C6        1.0  0.55960  0.74188  0.44709  1.0000
  C   C7        1.0  0.54241  0.19243  0.46005  1.0000
  C   C8        1.0  0.45758  0.80757  0.53995  1.0000
  C   C9        1.0  0.30388  0.12654  0.05536  1.0000
  C   C10       1.0  0.69612  0.87346  0.94464  1.0000
  C   C11       1.0  0.47101  0.27280  0.07237  1.0000
  C   C12       1.0  0.52898  0.72720  0.92763  1.0000
  C   C13       1.0  0.99619  0.32582  0.30891  1.0000
  C   C14       1.0  0.00381  0.67418  0.69109  1.0000
  N   N1        1.0  0.46376  0.17435  0.32872  1.0000
  N   N2        1.0  0.53624  0.82564  0.67128  1.0000
  N   N3        1.0  0.18808  0.28671  0.36751  1.0000
  N   N4        1.0  0.81192  0.71329  0.63249  1.0000
  N   N5        1.0  0.19983  0.18061  0.14898  1.0000
  N   N6        1.0  0.80017  0.81939  0.85102  1.0000
  N   N7        1.0  0.49519  0.27135  0.68287  1.0000
  N   N8        1.0  0.50481  0.72865  0.31713  1.0000
  N   N9        1.0  0.71290  0.14733  0.50104  1.0000
  N   N10       1.0  0.28710  0.85266  0.49896  1.0000
  Cl  Cl1       1.0  0.11304  0.09060  0.71468  1.0000
  Cl  Cl2       1.0  0.88696  0.90940  0.28532  1.0000
  O   O1        1.0  0.61668  0.24079  0.03450  1.0000
  O   O2        1.0  0.38331  0.75921  0.96550  1.0000
  O   O3        1.0  0.44368  0.41785  0.12124  1.0000
  O   O4        1.0  0.55632  0.58216  0.87877  1.0000
  O   O5        1.0  0.16593  0.37435  0.57999  1.0000
  O   O6        1.0  0.83407  0.62566  0.42001  1.0000
  O   O7        1.0  0.65188  0.23425  0.73997  1.0000
  O   O8        1.0  0.34813  0.76575  0.26003  1.0000
  O   O9        1.0  0.16265  0.46370  0.90074  1.0000
  O   O10       1.0  0.83735  0.53630  0.09927  1.0000
