data_image0
_chemical_formula_structural       Nd4H32C20O32
_chemical_formula_sum              "Nd4 H32 C20 O32"
_cell_length_a       9.14733
_cell_length_b       9.14734
_cell_length_c       14.5813
_cell_angle_alpha    100.113
_cell_angle_beta     100.112
_cell_angle_gamma    116.196

_space_group_name_H-M_alt    "P 1"
_space_group_IT_number       1

loop_
  _space_group_symop_operation_xyz
  'x, y, z'

loop_
  _atom_site_type_symbol
  _atom_site_label
  _atom_site_symmetry_multiplicity
  _atom_site_fract_x
  _atom_site_fract_y
  _atom_site_fract_z
  _atom_site_occupancy
  Nd  Nd1       1.0  0.24298  0.49297  0.98606  1.0000
  Nd  Nd2       1.0  0.00703  0.25701  0.51393  1.0000
  Nd  Nd3       1.0  0.75701  0.50703  0.01394  1.0000
  Nd  Nd4       1.0  0.99297  0.74298  0.48606  1.0000
  H   H1        1.0  0.07593  0.44783  0.15516  1.0000
  H   H2        1.0  0.57943  0.70715  0.15526  1.0000
  H   H3        1.0  0.05217  0.42406  0.34484  1.0000
  H   H4        1.0  0.79285  0.92056  0.34474  1.0000
  H   H5        1.0  0.92406  0.55217  0.84484  1.0000
  H   H6        1.0  0.42056  0.29285  0.84474  1.0000
  H   H7        1.0  0.94783  0.57594  0.65516  1.0000
  H   H8        1.0  0.20715  0.07943  0.65526  1.0000
  H   H9        1.0  0.24875  0.44870  0.19778  1.0000
  H   H10       1.0  0.44939  0.74898  0.19800  1.0000
  H   H11       1.0  0.05131  0.25125  0.30223  1.0000
  H   H12       1.0  0.75102  0.05062  0.30200  1.0000
  H   H13       1.0  0.75125  0.55131  0.80222  1.0000
  H   H14       1.0  0.55061  0.25102  0.80200  1.0000
  H   H15       1.0  0.94869  0.74875  0.69777  1.0000
  H   H16       1.0  0.24898  0.94938  0.69800  1.0000
  H   H17       1.0  0.64725  0.06949  0.97205  1.0000
  H   H18       1.0  0.82443  0.90278  0.97216  1.0000
  H   H19       1.0  0.43051  0.85275  0.52796  1.0000
  H   H20       1.0  0.59722  0.67557  0.52784  1.0000
  H   H21       1.0  0.35275  0.93052  0.02796  1.0000
  H   H22       1.0  0.17557  0.09722  0.02784  1.0000
  H   H23       1.0  0.56948  0.14725  0.47204  1.0000
  H   H24       1.0  0.40278  0.32443  0.47216  1.0000
  H   H25       1.0  0.61997  0.02544  0.84719  1.0000
  H   H26       1.0  0.72665  0.82153  0.84730  1.0000
  H   H27       1.0  0.47456  0.88003  0.65281  1.0000
  H   H28       1.0  0.67847  0.77336  0.65271  1.0000
  H   H29       1.0  0.38003  0.97457  0.15281  1.0000
  H   H30       1.0  0.27335  0.17847  0.15270  1.0000
  H   H31       1.0  0.52544  0.11997  0.34719  1.0000
  H   H32       1.0  0.32153  0.22664  0.34730  1.0000
  C   C1        1.0  0.87451  0.19281  0.93370  1.0000
  C   C2        1.0  0.55884  0.74092  0.93387  1.0000
  C   C3        1.0  0.30720  0.62549  0.56630  1.0000
  C   C4        1.0  0.75909  0.94115  0.56613  1.0000
  C   C5        1.0  0.12550  0.80721  0.06631  1.0000
  C   C6        1.0  0.44116  0.25910  0.06613  1.0000
  C   C7        1.0  0.69280  0.37451  0.43370  1.0000
  C   C8        1.0  0.24091  0.05884  0.43387  1.0000
  C   C9        1.0  0.70377  0.03892  0.91600  1.0000
  C   C10       1.0  0.71173  0.87703  0.91607  1.0000
  C   C11       1.0  0.46108  0.79622  0.58400  1.0000
  C   C12       1.0  0.62297  0.78827  0.58393  1.0000
  C   C13       1.0  0.29623  0.96108  0.08400  1.0000
  C   C14       1.0  0.28827  0.12297  0.08393  1.0000
  C   C15       1.0  0.53892  0.20377  0.41600  1.0000
  C   C16       1.0  0.37703  0.21172  0.41607  1.0000
  C   C17       1.0  0.17476  0.32524  0.75000  1.0000
  C   C18       1.0  0.07513  0.42487  0.75000  1.0000
  C   C19       1.0  0.82524  0.67475  0.25000  1.0000
  C   C20       1.0  0.92488  0.57512  0.25000  1.0000
  O   O1        1.0  0.00452  0.18142  0.92431  1.0000
  O   O2        1.0  0.41941  0.74285  0.92451  1.0000
  O   O3        1.0  0.31858  0.49547  0.57569  1.0000
  O   O4        1.0  0.75715  0.08058  0.57549  1.0000
  O   O5        1.0  0.99547  0.81858  0.07569  1.0000
  O   O6        1.0  0.58059  0.25716  0.07549  1.0000
  O   O7        1.0  0.68142  0.50452  0.42431  1.0000
  O   O8        1.0  0.24284  0.91941  0.42451  1.0000
  O   O9        1.0  0.88394  0.33907  0.95987  1.0000
  O   O10       1.0  0.57574  0.62098  0.96012  1.0000
  O   O11       1.0  0.16094  0.61606  0.54013  1.0000
  O   O12       1.0  0.87902  0.92426  0.53988  1.0000
  O   O13       1.0  0.11606  0.66093  0.04013  1.0000
  O   O14       1.0  0.42426  0.37901  0.03989  1.0000
  O   O15       1.0  0.83906  0.38394  0.45987  1.0000
  O   O16       1.0  0.12098  0.07574  0.46012  1.0000
  O   O17       1.0  0.26344  0.33998  0.83152  1.0000
  O   O18       1.0  0.06760  0.49128  0.83151  1.0000
  O   O19       1.0  0.16002  0.23656  0.66847  1.0000
  O   O20       1.0  0.00872  0.43240  0.66848  1.0000
  O   O21       1.0  0.73656  0.66002  0.16847  1.0000
  O   O22       1.0  0.93241  0.50873  0.16849  1.0000
  O   O23       1.0  0.83998  0.76344  0.33153  1.0000
  O   O24       1.0  0.99127  0.56759  0.33150  1.0000
  O   O25       1.0  0.15995  0.41314  0.13802  1.0000
  O   O26       1.0  0.47816  0.72456  0.13821  1.0000
  O   O27       1.0  0.08686  0.34005  0.36198  1.0000
  O   O28       1.0  0.77544  0.02184  0.36179  1.0000
  O   O29       1.0  0.84005  0.58686  0.86197  1.0000
  O   O30       1.0  0.52184  0.27544  0.86179  1.0000
  O   O31       1.0  0.91315  0.65995  0.63802  1.0000
  O   O32       1.0  0.22456  0.97816  0.63821  1.0000
