data_image0
_chemical_formula_structural       Cu4H40C20N12O12
_chemical_formula_sum              "Cu4 H40 C20 N12 O12"
_cell_length_a       7.85099
_cell_length_b       8.84337
_cell_length_c       12.2105
_cell_angle_alpha    90.0019
_cell_angle_beta     102.259
_cell_angle_gamma    90.0009

_space_group_name_H-M_alt    "P 1"
_space_group_IT_number       1

loop_
  _space_group_symop_operation_xyz
  'x, y, z'

loop_
  _atom_site_type_symbol
  _atom_site_label
  _atom_site_symmetry_multiplicity
  _atom_site_fract_x
  _atom_site_fract_y
  _atom_site_fract_z
  _atom_site_occupancy
  Cu  Cu1       1.0  0.21292  0.55283  0.57341  1.0000
  Cu  Cu2       1.0  0.21290  0.94716  0.07341  1.0000
  Cu  Cu3       1.0  0.78709  0.44716  0.42658  1.0000
  Cu  Cu4       1.0  0.78708  0.05283  0.92659  1.0000
  H   H1        1.0  0.34352  0.87409  0.45849  1.0000
  H   H2        1.0  0.34353  0.62590  0.95850  1.0000
  H   H3        1.0  0.65647  0.12592  0.54150  1.0000
  H   H4        1.0  0.65647  0.37409  0.04151  1.0000
  H   H5        1.0  0.52844  0.87620  0.57252  1.0000
  H   H6        1.0  0.52843  0.62382  0.07253  1.0000
  H   H7        1.0  0.47156  0.12382  0.42747  1.0000
  H   H8        1.0  0.47156  0.37619  0.92747  1.0000
  H   H9        1.0  0.16102  0.05478  0.51837  1.0000
  H   H10       1.0  0.16103  0.44521  0.01837  1.0000
  H   H11       1.0  0.83898  0.94522  0.48163  1.0000
  H   H12       1.0  0.83897  0.55479  0.98164  1.0000
  H   H13       1.0  0.33387  0.10951  0.62830  1.0000
  H   H14       1.0  0.33388  0.39050  0.12830  1.0000
  H   H15       1.0  0.66613  0.89049  0.37170  1.0000
  H   H16       1.0  0.66612  0.60950  0.87169  1.0000
  H   H17       1.0  0.12960  0.06327  0.65967  1.0000
  H   H18       1.0  0.12961  0.43673  0.15967  1.0000
  H   H19       1.0  0.87039  0.93672  0.34033  1.0000
  H   H20       1.0  0.87040  0.56327  0.84033  1.0000
  H   H21       1.0  0.41092  0.71951  0.75608  1.0000
  H   H22       1.0  0.41089  0.78053  0.25609  1.0000
  H   H23       1.0  0.58910  0.28050  0.24391  1.0000
  H   H24       1.0  0.58909  0.21948  0.74392  1.0000
  H   H25       1.0  0.28553  0.86474  0.80187  1.0000
  H   H26       1.0  0.28553  0.63527  0.30188  1.0000
  H   H27       1.0  0.71447  0.13525  0.19812  1.0000
  H   H28       1.0  0.71448  0.36471  0.69813  1.0000
  H   H29       1.0  0.48885  0.90859  0.76555  1.0000
  H   H30       1.0  0.48884  0.59146  0.26556  1.0000
  H   H31       1.0  0.51116  0.09142  0.23444  1.0000
  H   H32       1.0  0.51116  0.40856  0.73444  1.0000
  H   H33       1.0  0.04450  0.78839  0.52179  1.0000
  H   H34       1.0  0.04449  0.71159  0.02178  1.0000
  H   H35       1.0  0.95551  0.21160  0.47822  1.0000
  H   H36       1.0  0.95550  0.28840  0.97822  1.0000
  H   H37       1.0  0.05240  0.77475  0.65807  1.0000
  H   H38       1.0  0.05239  0.72525  0.15807  1.0000
  H   H39       1.0  0.94762  0.22524  0.34193  1.0000
  H   H40       1.0  0.94761  0.27475  0.84194  1.0000
  C   C1        1.0  0.47756  0.41661  0.49700  1.0000
  C   C2        1.0  0.47755  0.08339  0.99700  1.0000
  C   C3        1.0  0.52246  0.58338  0.50300  1.0000
  C   C4        1.0  0.52243  0.91662  0.00299  1.0000
  C   C5        1.0  0.39801  0.82741  0.54259  1.0000
  C   C6        1.0  0.39800  0.67260  0.04260  1.0000
  C   C7        1.0  0.60200  0.17259  0.45740  1.0000
  C   C8        1.0  0.60199  0.32741  0.95741  1.0000
  C   C9        1.0  0.27831  0.86844  0.62324  1.0000
  C   C10       1.0  0.27831  0.63156  0.12324  1.0000
  C   C11       1.0  0.72169  0.13155  0.37676  1.0000
  C   C12       1.0  0.72169  0.36844  0.87676  1.0000
  C   C13       1.0  0.22142  0.03342  0.60669  1.0000
  C   C14       1.0  0.22142  0.46659  0.10670  1.0000
  C   C15       1.0  0.77858  0.96658  0.39331  1.0000
  C   C16       1.0  0.77858  0.53342  0.89331  1.0000
  C   C17       1.0  0.37130  0.83858  0.74416  1.0000
  C   C18       1.0  0.37129  0.66145  0.24416  1.0000
  C   C19       1.0  0.62871  0.16143  0.25584  1.0000
  C   C20       1.0  0.62871  0.33855  0.75584  1.0000
  N   N1        1.0  0.07463  0.39214  0.72787  1.0000
  N   N2        1.0  0.07462  0.10789  0.22786  1.0000
  N   N3        1.0  0.92539  0.60788  0.27214  1.0000
  N   N4        1.0  0.92536  0.89212  0.77214  1.0000
  N   N5        1.0  0.40390  0.66443  0.53584  1.0000
  N   N6        1.0  0.40389  0.83558  0.03584  1.0000
  N   N7        1.0  0.59611  0.33557  0.46415  1.0000
  N   N8        1.0  0.59609  0.16443  0.96415  1.0000
  N   N9        1.0  0.12474  0.76310  0.59737  1.0000
  N   N10       1.0  0.12473  0.73688  0.09737  1.0000
  N   N11       1.0  0.87528  0.23688  0.40263  1.0000
  N   N12       1.0  0.87527  0.26310  0.90264  1.0000
  O   O1        1.0  0.03863  0.41989  0.62073  1.0000
  O   O2        1.0  0.03861  0.08011  0.12073  1.0000
  O   O3        1.0  0.96139  0.58010  0.37927  1.0000
  O   O4        1.0  0.96136  0.91989  0.87927  1.0000
  O   O5        1.0  0.20672  0.45565  0.78244  1.0000
  O   O6        1.0  0.20674  0.04440  0.28244  1.0000
  O   O7        1.0  0.79327  0.54438  0.21756  1.0000
  O   O8        1.0  0.79327  0.95563  0.71756  1.0000
  O   O9        1.0  0.33625  0.37205  0.52371  1.0000
  O   O10       1.0  0.33624  0.12795  0.02371  1.0000
  O   O11       1.0  0.66376  0.62795  0.47629  1.0000
  O   O12       1.0  0.66375  0.87205  0.97629  1.0000
