data_image0
_chemical_formula_structural       Zn4H48C52N12Cl4O8
_chemical_formula_sum              "Zn4 H48 C52 N12 Cl4 O8"
_cell_length_a       9.49064
_cell_length_b       11.8069
_cell_length_c       12.7062
_cell_angle_alpha    103.77
_cell_angle_beta     90
_cell_angle_gamma    90

_space_group_name_H-M_alt    "P 1"
_space_group_IT_number       1

loop_
  _space_group_symop_operation_xyz
  'x, y, z'

loop_
  _atom_site_type_symbol
  _atom_site_label
  _atom_site_symmetry_multiplicity
  _atom_site_fract_x
  _atom_site_fract_y
  _atom_site_fract_z
  _atom_site_occupancy
  Zn  Zn1       1.0  0.94406  0.08611  0.81047  1.0000
  Zn  Zn2       1.0  0.44406  0.91389  0.68953  1.0000
  Zn  Zn3       1.0  0.05594  0.91389  0.18953  1.0000
  Zn  Zn4       1.0  0.55594  0.08611  0.31047  1.0000
  H   H1        1.0  0.34037  0.16415  0.11312  1.0000
  H   H2        1.0  0.84037  0.83585  0.38688  1.0000
  H   H3        1.0  0.65963  0.83585  0.88688  1.0000
  H   H4        1.0  0.15963  0.16415  0.61313  1.0000
  H   H5        1.0  0.30625  0.08435  0.90631  1.0000
  H   H6        1.0  0.80625  0.91564  0.59369  1.0000
  H   H7        1.0  0.69375  0.91564  0.09369  1.0000
  H   H8        1.0  0.19375  0.08436  0.40631  1.0000
  H   H9        1.0  0.10688  0.22202  0.20875  1.0000
  H   H10       1.0  0.60688  0.77798  0.29125  1.0000
  H   H11       1.0  0.89312  0.77798  0.79125  1.0000
  H   H12       1.0  0.39312  0.22202  0.70875  1.0000
  H   H13       1.0  0.80746  0.22184  0.10985  1.0000
  H   H14       1.0  0.30746  0.77816  0.39015  1.0000
  H   H15       1.0  0.19254  0.77816  0.89015  1.0000
  H   H16       1.0  0.69255  0.22184  0.60985  1.0000
  H   H17       1.0  0.84885  0.44807  0.88767  1.0000
  H   H18       1.0  0.34885  0.55193  0.61233  1.0000
  H   H19       1.0  0.15115  0.55193  0.11233  1.0000
  H   H20       1.0  0.65115  0.44807  0.38767  1.0000
  H   H21       1.0  0.92198  0.61635  0.03631  1.0000
  H   H22       1.0  0.42198  0.38365  0.46369  1.0000
  H   H23       1.0  0.07802  0.38365  0.96369  1.0000
  H   H24       1.0  0.57802  0.61635  0.53631  1.0000
  H   H25       1.0  0.79751  0.65840  0.21171  1.0000
  H   H26       1.0  0.29751  0.34160  0.28829  1.0000
  H   H27       1.0  0.20249  0.34159  0.78829  1.0000
  H   H28       1.0  0.70249  0.65840  0.71171  1.0000
  H   H29       1.0  0.58662  0.53773  0.23644  1.0000
  H   H30       1.0  0.08662  0.46227  0.26356  1.0000
  H   H31       1.0  0.41338  0.46227  0.76356  1.0000
  H   H32       1.0  0.91338  0.53773  0.73644  1.0000
  H   H33       1.0  0.50980  0.37554  0.08675  1.0000
  H   H34       1.0  0.00980  0.62446  0.41325  1.0000
  H   H35       1.0  0.49019  0.62446  0.91325  1.0000
  H   H36       1.0  0.99020  0.37554  0.58675  1.0000
  H   H37       1.0  0.69156  0.29721  0.81427  1.0000
  H   H38       1.0  0.19155  0.70279  0.68573  1.0000
  H   H39       1.0  0.30844  0.70279  0.18573  1.0000
  H   H40       1.0  0.80844  0.29721  0.31427  1.0000
  H   H41       1.0  0.52087  0.29675  0.87318  1.0000
  H   H42       1.0  0.02086  0.70325  0.62681  1.0000
  H   H43       1.0  0.47913  0.70325  0.12681  1.0000
  H   H44       1.0  0.97913  0.29675  0.37318  1.0000
  H   H45       1.0  0.59997  0.17053  0.98854  1.0000
  H   H46       1.0  0.09997  0.82947  0.51146  1.0000
  H   H47       1.0  0.40003  0.82947  0.01146  1.0000
  H   H48       1.0  0.90004  0.17053  0.48854  1.0000
  C   C1        1.0  0.22292  0.11557  0.96473  1.0000
  C   C2        1.0  0.72292  0.88443  0.53527  1.0000
  C   C3        1.0  0.77708  0.88443  0.03527  1.0000
  C   C4        1.0  0.27708  0.11557  0.46474  1.0000
  C   C5        1.0  0.11725  0.18996  0.12194  1.0000
  C   C6        1.0  0.61725  0.81004  0.37806  1.0000
  C   C7        1.0  0.88275  0.81004  0.87806  1.0000
  C   C8        1.0  0.38276  0.18996  0.62194  1.0000
  C   C9        1.0  0.01877  0.16841  0.03932  1.0000
  C   C10       1.0  0.51877  0.83159  0.46068  1.0000
  C   C11       1.0  0.98123  0.83159  0.96068  1.0000
  C   C12       1.0  0.48124  0.16841  0.53932  1.0000
  C   C13       1.0  0.86886  0.18885  0.03568  1.0000
  C   C14       1.0  0.36886  0.81115  0.46432  1.0000
  C   C15       1.0  0.13114  0.81116  0.96432  1.0000
  C   C16       1.0  0.63115  0.18884  0.53568  1.0000
  C   C17       1.0  0.66580  0.17734  0.91884  1.0000
  C   C18       1.0  0.16580  0.82267  0.58116  1.0000
  C   C19       1.0  0.33420  0.82267  0.08116  1.0000
  C   C20       1.0  0.83421  0.17733  0.41884  1.0000
  C   C21       1.0  0.62855  0.07781  0.82077  1.0000
  C   C22       1.0  0.12855  0.92219  0.67923  1.0000
  C   C23       1.0  0.37145  0.92219  0.17923  1.0000
  C   C24       1.0  0.87145  0.07781  0.32077  1.0000
  C   C25       1.0  0.63463  0.29543  0.88929  1.0000
  C   C26       1.0  0.13463  0.70457  0.61071  1.0000
  C   C27       1.0  0.36537  0.70457  0.11071  1.0000
  C   C28       1.0  0.86537  0.29543  0.38929  1.0000
  C   C29       1.0  0.67582  0.39929  0.97757  1.0000
  C   C30       1.0  0.17582  0.60071  0.52243  1.0000
  C   C31       1.0  0.32418  0.60071  0.02243  1.0000
  C   C32       1.0  0.82418  0.39929  0.47756  1.0000
  C   C33       1.0  0.79091  0.46871  0.96408  1.0000
  C   C34       1.0  0.29091  0.53129  0.53592  1.0000
  C   C35       1.0  0.20910  0.53129  0.03592  1.0000
  C   C36       1.0  0.70910  0.46871  0.46408  1.0000
  C   C37       1.0  0.83214  0.56293  0.04743  1.0000
  C   C38       1.0  0.33215  0.43707  0.45257  1.0000
  C   C39       1.0  0.16785  0.43707  0.95257  1.0000
  C   C40       1.0  0.66786  0.56293  0.54743  1.0000
  C   C41       1.0  0.76033  0.58739  0.14617  1.0000
  C   C42       1.0  0.26034  0.41261  0.35383  1.0000
  C   C43       1.0  0.23966  0.41261  0.85383  1.0000
  C   C44       1.0  0.73966  0.58739  0.64617  1.0000
  C   C45       1.0  0.64429  0.51933  0.15991  1.0000
  C   C46       1.0  0.14429  0.48067  0.34009  1.0000
  C   C47       1.0  0.35571  0.48067  0.84009  1.0000
  C   C48       1.0  0.85571  0.51933  0.65991  1.0000
  C   C49       1.0  0.60145  0.42703  0.07564  1.0000
  C   C50       1.0  0.10145  0.57297  0.42436  1.0000
  C   C51       1.0  0.39854  0.57297  0.92436  1.0000
  C   C52       1.0  0.89855  0.42703  0.57564  1.0000
  N   N1        1.0  0.08710  0.12097  0.94203  1.0000
  N   N2        1.0  0.58710  0.87903  0.55797  1.0000
  N   N3        1.0  0.91290  0.87903  0.05797  1.0000
  N   N4        1.0  0.41290  0.12097  0.44204  1.0000
  N   N5        1.0  0.24425  0.15686  0.07314  1.0000
  N   N6        1.0  0.74425  0.84314  0.42686  1.0000
  N   N7        1.0  0.75575  0.84314  0.92686  1.0000
  N   N8        1.0  0.25576  0.15686  0.57315  1.0000
  N   N9        1.0  0.81326  0.16523  0.94053  1.0000
  N   N10       1.0  0.31326  0.83477  0.55947  1.0000
  N   N11       1.0  0.18674  0.83477  0.05947  1.0000
  N   N12       1.0  0.68674  0.16523  0.44053  1.0000
  Cl  Cl1       1.0  0.96768  0.21392  0.70212  1.0000
  Cl  Cl2       1.0  0.46768  0.78608  0.79788  1.0000
  Cl  Cl3       1.0  0.03231  0.78608  0.29788  1.0000
  Cl  Cl4       1.0  0.53232  0.21392  0.20212  1.0000
  O   O1        1.0  0.72614  0.01727  0.76832  1.0000
  O   O2        1.0  0.22614  0.98273  0.73168  1.0000
  O   O3        1.0  0.27386  0.98273  0.23168  1.0000
  O   O4        1.0  0.77386  0.01727  0.26832  1.0000
  O   O5        1.0  0.49731  0.06410  0.79791  1.0000
  O   O6        1.0  0.99731  0.93590  0.70210  1.0000
  O   O7        1.0  0.50269  0.93590  0.20210  1.0000
  O   O8        1.0  0.00269  0.06410  0.29790  1.0000
