data_image0
_chemical_formula_structural       Zn2H46C62S4N2O12
_chemical_formula_sum              "Zn2 H46 C62 S4 N2 O12"
_cell_length_a       10.154
_cell_length_b       12.4207
_cell_length_c       12.6767
_cell_angle_alpha    64.6589
_cell_angle_beta     72.3362
_cell_angle_gamma    86.5004

_space_group_name_H-M_alt    "P 1"
_space_group_IT_number       1

loop_
  _space_group_symop_operation_xyz
  'x, y, z'

loop_
  _atom_site_type_symbol
  _atom_site_label
  _atom_site_symmetry_multiplicity
  _atom_site_fract_x
  _atom_site_fract_y
  _atom_site_fract_z
  _atom_site_occupancy
  Zn  Zn1       1.0  0.99830  0.56474  0.36916  1.0000
  Zn  Zn2       1.0  0.00170  0.43526  0.63084  1.0000
  H   H1        1.0  0.52766  0.26787  0.08129  1.0000
  H   H2        1.0  0.47233  0.73214  0.91872  1.0000
  H   H3        1.0  0.06514  0.85739  0.35480  1.0000
  H   H4        1.0  0.93487  0.14260  0.64520  1.0000
  H   H5        1.0  0.78440  0.36825  0.24660  1.0000
  H   H6        1.0  0.21560  0.63175  0.75340  1.0000
  H   H7        1.0  0.07733  0.28062  0.29791  1.0000
  H   H8        1.0  0.92267  0.71938  0.70209  1.0000
  H   H9        1.0  0.85339  0.96884  0.34968  1.0000
  H   H10       1.0  0.14662  0.03115  0.65032  1.0000
  H   H11       1.0  0.86185  0.18054  0.31555  1.0000
  H   H12       1.0  0.13815  0.81946  0.68445  1.0000
  H   H13       1.0  0.53980  0.84318  0.98428  1.0000
  H   H14       1.0  0.46021  0.15682  0.01573  1.0000
  H   H15       1.0  0.52948  0.97117  0.09226  1.0000
  H   H16       1.0  0.47053  0.02884  0.90773  1.0000
  H   H17       1.0  0.64688  0.68027  0.37942  1.0000
  H   H18       1.0  0.35312  0.31972  0.62057  1.0000
  H   H19       1.0  0.82387  0.57365  0.86353  1.0000
  H   H20       1.0  0.17613  0.42636  0.13648  1.0000
  H   H21       1.0  0.89694  0.53621  0.04722  1.0000
  H   H22       1.0  0.10307  0.46379  0.95278  1.0000
  H   H23       1.0  0.59638  0.63055  0.07753  1.0000
  H   H24       1.0  0.40363  0.36946  0.92247  1.0000
  H   H25       1.0  0.63887  0.44122  0.88187  1.0000
  H   H26       1.0  0.36112  0.55879  0.11813  1.0000
  H   H27       1.0  0.64742  0.54993  0.27672  1.0000
  H   H28       1.0  0.35257  0.45006  0.72328  1.0000
  H   H29       1.0  0.25494  0.77480  0.53604  1.0000
  H   H30       1.0  0.74506  0.22520  0.46395  1.0000
  H   H31       1.0  0.39077  0.69991  0.47554  1.0000
  H   H32       1.0  0.60922  0.30009  0.52446  1.0000
  H   H33       1.0  0.41389  0.36893  0.37319  1.0000
  H   H34       1.0  0.58610  0.63107  0.62679  1.0000
  H   H35       1.0  0.32007  0.22771  0.47312  1.0000
  H   H36       1.0  0.67993  0.77229  0.52687  1.0000
  H   H37       1.0  0.88687  0.62785  0.16266  1.0000
  H   H38       1.0  0.11313  0.37214  0.83735  1.0000
  H   H39       1.0  0.20382  0.77567  0.21357  1.0000
  H   H40       1.0  0.79618  0.22433  0.78644  1.0000
  H   H41       1.0  0.11578  0.95275  0.86824  1.0000
  H   H42       1.0  0.88421  0.04724  0.13176  1.0000
  H   H43       1.0  0.25496  0.94631  0.00340  1.0000
  H   H44       1.0  0.74504  0.05369  0.99660  1.0000
  H   H45       1.0  0.92678  0.78959  0.94972  1.0000
  H   H46       1.0  0.07322  0.21040  0.05029  1.0000
  C   C1        1.0  0.31437  0.94298  0.33294  1.0000
  C   C2        1.0  0.68563  0.05702  0.66705  1.0000
  C   C3        1.0  0.19343  0.00632  0.32659  1.0000
  C   C4        1.0  0.80657  0.99368  0.67342  1.0000
  C   C5        1.0  0.43804  0.99775  0.31947  1.0000
  C   C6        1.0  0.56196  0.00225  0.68053  1.0000
  C   C7        1.0  0.32151  0.18008  0.30487  1.0000
  C   C8        1.0  0.67849  0.81992  0.69513  1.0000
  C   C9        1.0  0.60897  0.32679  0.07310  1.0000
  C   C10       1.0  0.39102  0.67322  0.92690  1.0000
  C   C11       1.0  0.43974  0.11720  0.30970  1.0000
  C   C12       1.0  0.56026  0.88281  0.69030  1.0000
  C   C13       1.0  0.19710  0.12756  0.31067  1.0000
  C   C14       1.0  0.80290  0.87243  0.68933  1.0000
  C   C15       1.0  0.65108  0.30434  0.17552  1.0000
  C   C16       1.0  0.34892  0.69566  0.82449  1.0000
  C   C17       1.0  0.58609  0.83355  0.24302  1.0000
  C   C18       1.0  0.41391  0.16645  0.75698  1.0000
  C   C19       1.0  0.06743  0.95017  0.34077  1.0000
  C   C20       1.0  0.93257  0.04983  0.65923  1.0000
  C   C21       1.0  0.75340  0.38160  0.16680  1.0000
  C   C22       1.0  0.24660  0.61840  0.83320  1.0000
  C   C23       1.0  0.07488  0.18909  0.30798  1.0000
  C   C24       1.0  0.92513  0.81091  0.69202  1.0000
  C   C25       1.0  0.95038  0.01234  0.33787  1.0000
  C   C26       1.0  0.04962  0.98766  0.66213  1.0000
  C   C27       1.0  0.95473  0.13251  0.32023  1.0000
  C   C28       1.0  0.04528  0.86749  0.67976  1.0000
  C   C29       1.0  0.56082  0.80645  0.07209  1.0000
  C   C30       1.0  0.43918  0.19356  0.92791  1.0000
  C   C31       1.0  0.55733  0.87930  0.13101  1.0000
  C   C32       1.0  0.44267  0.12070  0.86899  1.0000
  C   C33       1.0  0.61942  0.71502  0.29471  1.0000
  C   C34       1.0  0.38058  0.28498  0.70529  1.0000
  C   C35       1.0  0.77547  0.49928  0.95158  1.0000
  C   C36       1.0  0.22453  0.50073  0.04843  1.0000
  C   C37       1.0  0.81564  0.47786  0.05435  1.0000
  C   C38       1.0  0.18436  0.52214  0.94565  1.0000
  C   C39       1.0  0.59221  0.68733  0.12419  1.0000
  C   C40       1.0  0.40779  0.31267  0.87581  1.0000
  C   C41       1.0  0.67087  0.42414  0.96189  1.0000
  C   C42       1.0  0.32912  0.57587  0.03810  1.0000
  C   C43       1.0  0.62111  0.64214  0.23552  1.0000
  C   C44       1.0  0.37889  0.35786  0.76448  1.0000
  C   C45       1.0  0.18543  0.63616  0.50202  1.0000
  C   C46       1.0  0.81456  0.36385  0.49798  1.0000
  C   C47       1.0  0.29027  0.73676  0.46924  1.0000
  C   C48       1.0  0.70973  0.26324  0.53077  1.0000
  C   C49       1.0  0.31982  0.31330  0.39552  1.0000
  C   C50       1.0  0.68018  0.68670  0.60447  1.0000
  C   C51       1.0  0.96794  0.69989  0.12279  1.0000
  C   C52       1.0  0.03205  0.30011  0.87721  1.0000
  C   C53       1.0  0.14551  0.78321  0.15154  1.0000
  C   C54       1.0  0.85449  0.21678  0.84846  1.0000
  C   C55       1.0  0.09491  0.88067  0.96025  1.0000
  C   C56       1.0  0.90509  0.11933  0.03975  1.0000
  C   C57       1.0  0.17321  0.87683  0.03495  1.0000
  C   C58       1.0  0.82679  0.12317  0.96506  1.0000
  C   C59       1.0  0.99032  0.79033  0.00496  1.0000
  C   C60       1.0  0.00967  0.20968  0.99504  1.0000
  C   C61       1.0  0.19440  0.37784  0.43311  1.0000
  C   C62       1.0  0.80561  0.62217  0.56687  1.0000
  S   S1        1.0  0.58773  0.17708  0.31756  1.0000
  S   S2        1.0  0.41228  0.82292  0.68244  1.0000
  S   S3        1.0  0.59291  0.92477  0.31787  1.0000
  S   S4        1.0  0.40709  0.07523  0.68212  1.0000
  N   N1        1.0  0.04368  0.69633  0.19479  1.0000
  N   N2        1.0  0.95633  0.30367  0.80521  1.0000
  O   O1        1.0  0.30513  0.82703  0.34796  1.0000
  O   O2        1.0  0.69488  0.17297  0.65204  1.0000
  O   O3        1.0  0.32279  0.29621  0.28974  1.0000
  O   O4        1.0  0.67720  0.70380  0.71026  1.0000
  O   O5        1.0  0.14066  0.44442  0.35175  1.0000
  O   O6        1.0  0.85934  0.55559  0.64824  1.0000
  O   O7        1.0  0.13779  0.64041  0.41927  1.0000
  O   O8        1.0  0.86221  0.35958  0.58074  1.0000
  O   O9        1.0  0.15913  0.36028  0.54475  1.0000
  O   O10       1.0  0.84087  0.63972  0.45525  1.0000
  O   O11       1.0  0.15431  0.55514  0.61191  1.0000
  O   O12       1.0  0.84569  0.44486  0.38809  1.0000
