data_image0
_chemical_formula_structural       Cu4H24C28N12Cl4
_chemical_formula_sum              "Cu4 H24 C28 N12 Cl4"
_cell_length_a       7.32856
_cell_length_b       8.35645
_cell_length_c       13.391
_cell_angle_alpha    86.4279
_cell_angle_beta     81.8426
_cell_angle_gamma    63.9935

_space_group_name_H-M_alt    "P 1"
_space_group_IT_number       1

loop_
  _space_group_symop_operation_xyz
  'x, y, z'

loop_
  _atom_site_type_symbol
  _atom_site_label
  _atom_site_symmetry_multiplicity
  _atom_site_fract_x
  _atom_site_fract_y
  _atom_site_fract_z
  _atom_site_occupancy
  Cu  Cu1       1.0  0.99623  0.96233  0.86855  1.0000
  Cu  Cu2       1.0  0.04154  0.96217  0.63153  1.0000
  Cu  Cu3       1.0  0.00377  0.03766  0.13145  1.0000
  Cu  Cu4       1.0  0.95845  0.03784  0.36847  1.0000
  H   H1        1.0  0.48420  0.08857  0.95592  1.0000
  H   H2        1.0  0.42701  0.08884  0.54414  1.0000
  H   H3        1.0  0.51581  0.91142  0.04408  1.0000
  H   H4        1.0  0.57298  0.91117  0.45587  1.0000
  H   H5        1.0  0.46079  0.25314  0.11129  1.0000
  H   H6        1.0  0.28561  0.25337  0.38882  1.0000
  H   H7        1.0  0.53922  0.74686  0.88871  1.0000
  H   H8        1.0  0.71440  0.74663  0.61117  1.0000
  H   H9        1.0  0.29434  0.23440  0.81744  1.0000
  H   H10       1.0  0.47184  0.23471  0.68244  1.0000
  H   H11       1.0  0.70568  0.76558  0.18257  1.0000
  H   H12       1.0  0.52816  0.76530  0.31756  1.0000
  H   H13       1.0  0.09472  0.57281  0.81299  1.0000
  H   H14       1.0  0.33301  0.57310  0.68676  1.0000
  H   H15       1.0  0.90529  0.42717  0.18701  1.0000
  H   H16       1.0  0.66699  0.42691  0.31324  1.0000
  H   H17       1.0  0.41450  0.50776  0.21767  1.0000
  H   H18       1.0  0.07748  0.50775  0.28233  1.0000
  H   H19       1.0  0.58549  0.49224  0.78233  1.0000
  H   H20       1.0  0.92251  0.49226  0.71767  1.0000
  H   H21       1.0  0.29969  0.74639  0.22470  1.0000
  H   H22       1.0  0.95356  0.74633  0.27520  1.0000
  H   H23       1.0  0.70032  0.25360  0.77530  1.0000
  H   H24       1.0  0.04644  0.25367  0.72480  1.0000
  C   C1        1.0  0.39070  0.23138  0.96182  1.0000
  C   C2        1.0  0.37778  0.23164  0.53823  1.0000
  C   C3        1.0  0.60931  0.76861  0.03819  1.0000
  C   C4        1.0  0.62221  0.76837  0.46177  1.0000
  C   C5        1.0  0.38209  0.32197  0.04711  1.0000
  C   C6        1.0  0.29571  0.32222  0.45294  1.0000
  C   C7        1.0  0.61791  0.67803  0.95290  1.0000
  C   C8        1.0  0.70429  0.67778  0.54705  1.0000
  C   C9        1.0  0.28564  0.31761  0.87903  1.0000
  C   C10       1.0  0.39691  0.31789  0.62093  1.0000
  C   C11       1.0  0.71436  0.68238  0.12097  1.0000
  C   C12       1.0  0.60309  0.68211  0.37907  1.0000
  C   C13       1.0  0.17577  0.50105  0.87573  1.0000
  C   C14       1.0  0.32345  0.50134  0.62413  1.0000
  C   C15       1.0  0.82423  0.49894  0.12428  1.0000
  C   C16       1.0  0.67655  0.49867  0.37587  1.0000
  C   C17       1.0  0.27365  0.62993  0.21173  1.0000
  C   C18       1.0  0.09613  0.62997  0.28820  1.0000
  C   C19       1.0  0.72636  0.37007  0.78827  1.0000
  C   C20       1.0  0.90388  0.37003  0.71180  1.0000
  C   C21       1.0  0.26753  0.50719  0.04416  1.0000
  C   C22       1.0  0.22510  0.50743  0.45580  1.0000
  C   C23       1.0  0.73247  0.49281  0.95585  1.0000
  C   C24       1.0  0.77490  0.49257  0.54420  1.0000
  C   C25       1.0  0.17219  0.59571  0.95926  1.0000
  C   C26       1.0  0.23195  0.59599  0.54066  1.0000
  C   C27       1.0  0.82780  0.40428  0.04074  1.0000
  C   C28       1.0  0.76806  0.40401  0.45934  1.0000
  N   N1        1.0  0.08377  0.77587  0.97679  1.0000
  N   N2        1.0  0.14032  0.77612  0.52307  1.0000
  N   N3        1.0  0.91623  0.22411  0.02321  1.0000
  N   N4        1.0  0.85968  0.22389  0.47693  1.0000
  N   N5        1.0  0.22584  0.64127  0.10979  1.0000
  N   N6        1.0  0.13256  0.64145  0.39015  1.0000
  N   N7        1.0  0.77414  0.35874  0.89021  1.0000
  N   N8        1.0  0.86744  0.35856  0.60985  1.0000
  N   N9        1.0  0.11445  0.80254  0.06816  1.0000
  N   N10       1.0  0.08281  0.80275  0.43173  1.0000
  N   N11       1.0  0.88555  0.19746  0.93184  1.0000
  N   N12       1.0  0.91719  0.19726  0.56827  1.0000
  Cl  Cl1       1.0  0.80781  0.90886  0.75573  1.0000
  Cl  Cl2       1.0  0.28329  0.90889  0.74429  1.0000
  Cl  Cl3       1.0  0.19219  0.09113  0.24426  1.0000
  Cl  Cl4       1.0  0.71670  0.09111  0.25571  1.0000
