data_image0
_chemical_formula_structural       Cu4H48C56Br4N24
_chemical_formula_sum              "Cu4 H48 C56 Br4 N24"
_cell_length_a       10.0713
_cell_length_b       10.2227
_cell_length_c       16.5774
_cell_angle_alpha    96.5539
_cell_angle_beta     89.9997
_cell_angle_gamma    119.511

_space_group_name_H-M_alt    "P 1"
_space_group_IT_number       1

loop_
  _space_group_symop_operation_xyz
  'x, y, z'

loop_
  _atom_site_type_symbol
  _atom_site_label
  _atom_site_symmetry_multiplicity
  _atom_site_fract_x
  _atom_site_fract_y
  _atom_site_fract_z
  _atom_site_occupancy
  Cu  Cu1       1.0  0.98774  0.85188  0.97535  1.0000
  Cu  Cu2       1.0  0.13585  0.14812  0.52465  1.0000
  Cu  Cu3       1.0  0.01227  0.14812  0.02465  1.0000
  Cu  Cu4       1.0  0.86415  0.85188  0.47535  1.0000
  H   H1        1.0  0.60260  0.86026  0.07978  1.0000
  H   H2        1.0  0.74235  0.13975  0.42023  1.0000
  H   H3        1.0  0.39740  0.13975  0.92023  1.0000
  H   H4        1.0  0.25765  0.86025  0.57977  1.0000
  H   H5        1.0  0.66937  0.08109  0.18281  1.0000
  H   H6        1.0  0.58828  0.91891  0.31719  1.0000
  H   H7        1.0  0.33063  0.91892  0.81719  1.0000
  H   H8        1.0  0.41171  0.08108  0.68281  1.0000
  H   H9        1.0  0.49094  0.18097  0.21019  1.0000
  H   H10       1.0  0.30997  0.81903  0.28981  1.0000
  H   H11       1.0  0.50906  0.81904  0.78981  1.0000
  H   H12       1.0  0.69002  0.18096  0.71019  1.0000
  H   H13       1.0  0.23923  0.06492  0.12952  1.0000
  H   H14       1.0  0.17431  0.93508  0.37048  1.0000
  H   H15       1.0  0.76076  0.93508  0.87048  1.0000
  H   H16       1.0  0.82568  0.06492  0.62952  1.0000
  H   H17       1.0  0.11208  0.16836  0.22453  1.0000
  H   H18       1.0  0.94371  0.83164  0.27547  1.0000
  H   H19       1.0  0.88792  0.83164  0.77547  1.0000
  H   H20       1.0  0.05628  0.16836  0.72453  1.0000
  H   H21       1.0  0.29558  0.26561  0.34508  1.0000
  H   H22       1.0  0.02997  0.73439  0.15492  1.0000
  H   H23       1.0  0.70441  0.73438  0.65492  1.0000
  H   H24       1.0  0.97003  0.26561  0.84508  1.0000
  H   H25       1.0  0.54603  0.50312  0.34988  1.0000
  H   H26       1.0  0.04293  0.49689  0.15012  1.0000
  H   H27       1.0  0.45396  0.49688  0.65013  1.0000
  H   H28       1.0  0.95707  0.50311  0.84988  1.0000
  H   H29       1.0  0.62367  0.65170  0.23239  1.0000
  H   H30       1.0  0.97198  0.34831  0.26761  1.0000
  H   H31       1.0  0.37632  0.34830  0.76761  1.0000
  H   H32       1.0  0.02802  0.65169  0.73239  1.0000
  H   H33       1.0  0.47431  0.66580  0.95816  1.0000
  H   H34       1.0  0.80851  0.33420  0.54184  1.0000
  H   H35       1.0  0.52569  0.33420  0.04184  1.0000
  H   H36       1.0  0.19149  0.66579  0.45816  1.0000
  H   H37       1.0  0.33390  0.61520  0.87794  1.0000
  H   H38       1.0  0.71870  0.38480  0.62205  1.0000
  H   H39       1.0  0.66611  0.38481  0.12206  1.0000
  H   H40       1.0  0.28130  0.61519  0.37794  1.0000
  H   H41       1.0  0.28401  0.38023  0.92254  1.0000
  H   H42       1.0  0.90379  0.61978  0.57746  1.0000
  H   H43       1.0  0.71599  0.61978  0.07746  1.0000
  H   H44       1.0  0.09621  0.38022  0.42254  1.0000
  H   H45       1.0  0.13693  0.41587  0.95706  1.0000
  H   H46       1.0  0.72106  0.58413  0.54294  1.0000
  H   H47       1.0  0.86307  0.58413  0.04294  1.0000
  H   H48       1.0  0.27894  0.41587  0.45706  1.0000
  C   C1        1.0  0.28121  0.89764  0.06030  1.0000
  C   C2        1.0  0.38356  0.10236  0.43970  1.0000
  C   C3        1.0  0.71879  0.10236  0.93971  1.0000
  C   C4        1.0  0.61643  0.89764  0.56030  1.0000
  C   C5        1.0  0.38114  0.83864  0.04687  1.0000
  C   C6        1.0  0.54250  0.16136  0.45313  1.0000
  C   C7        1.0  0.61886  0.16136  0.95313  1.0000
  C   C8        1.0  0.45750  0.83864  0.54686  1.0000
  C   C9        1.0  0.52345  0.90315  0.09017  1.0000
  C   C10       1.0  0.62029  0.09685  0.40983  1.0000
  C   C11       1.0  0.47655  0.09685  0.90983  1.0000
  C   C12       1.0  0.37970  0.90315  0.59016  1.0000
  C   C13       1.0  0.55952  0.02721  0.14792  1.0000
  C   C14       1.0  0.53230  0.97279  0.35208  1.0000
  C   C15       1.0  0.44048  0.97279  0.85208  1.0000
  C   C16       1.0  0.46770  0.02721  0.64792  1.0000
  C   C17       1.0  0.45854  0.08535  0.16282  1.0000
  C   C18       1.0  0.37318  0.91465  0.33718  1.0000
  C   C19       1.0  0.54146  0.91465  0.83718  1.0000
  C   C20       1.0  0.62681  0.08535  0.66282  1.0000
  C   C21       1.0  0.31879  0.02264  0.11912  1.0000
  C   C22       1.0  0.29616  0.97736  0.38088  1.0000
  C   C23       1.0  0.68120  0.97736  0.88089  1.0000
  C   C24       1.0  0.70384  0.02264  0.61912  1.0000
  C   C25       1.0  0.41081  0.49061  0.16146  1.0000
  C   C26       1.0  0.92021  0.50939  0.33854  1.0000
  C   C27       1.0  0.58919  0.50939  0.83854  1.0000
  C   C28       1.0  0.07980  0.49060  0.66146  1.0000
  C   C29       1.0  0.26737  0.35394  0.15896  1.0000
  C   C30       1.0  0.91343  0.64606  0.34104  1.0000
  C   C31       1.0  0.73263  0.64606  0.84104  1.0000
  C   C32       1.0  0.08657  0.35394  0.65896  1.0000
  C   C33       1.0  0.22231  0.27177  0.22588  1.0000
  C   C34       1.0  0.95054  0.72823  0.27412  1.0000
  C   C35       1.0  0.77769  0.72823  0.77412  1.0000
  C   C36       1.0  0.04946  0.27177  0.72588  1.0000
  C   C37       1.0  0.32635  0.32786  0.29269  1.0000
  C   C38       1.0  0.99849  0.67214  0.20731  1.0000
  C   C39       1.0  0.67365  0.67214  0.70731  1.0000
  C   C40       1.0  0.00151  0.32786  0.79269  1.0000
  C   C41       1.0  0.47026  0.46282  0.29501  1.0000
  C   C42       1.0  0.00745  0.53718  0.20499  1.0000
  C   C43       1.0  0.52974  0.53718  0.70499  1.0000
  C   C44       1.0  0.99255  0.46282  0.79501  1.0000
  C   C45       1.0  0.51442  0.54706  0.23051  1.0000
  C   C46       1.0  0.96736  0.45294  0.26949  1.0000
  C   C47       1.0  0.48558  0.45293  0.76949  1.0000
  C   C48       1.0  0.03264  0.54706  0.73051  1.0000
  C   C49       1.0  0.35198  0.61811  0.94350  1.0000
  C   C50       1.0  0.73387  0.38189  0.55649  1.0000
  C   C51       1.0  0.64802  0.38189  0.05650  1.0000
  C   C52       1.0  0.26613  0.61811  0.44350  1.0000
  C   C53       1.0  0.26013  0.45725  0.96373  1.0000
  C   C54       1.0  0.80289  0.54276  0.53627  1.0000
  C   C55       1.0  0.73987  0.54276  0.03627  1.0000
  C   C56       1.0  0.19712  0.45724  0.46373  1.0000
  Br  Br1       1.0  0.09927  0.06537  0.89390  1.0000
  Br  Br2       1.0  0.03389  0.93463  0.60610  1.0000
  Br  Br3       1.0  0.90073  0.93463  0.10609  1.0000
  Br  Br4       1.0  0.96610  0.06537  0.39391  1.0000
  N   N1        1.0  0.30548  0.71974  0.98619  1.0000
  N   N2        1.0  0.58574  0.28026  0.51380  1.0000
  N   N3        1.0  0.69452  0.28026  0.01381  1.0000
  N   N4        1.0  0.41426  0.71974  0.48619  1.0000
  N   N5        1.0  0.16941  0.70496  0.96332  1.0000
  N   N6        1.0  0.46444  0.29504  0.53667  1.0000
  N   N7        1.0  0.83060  0.29503  0.03668  1.0000
  N   N8        1.0  0.53556  0.70496  0.46333  1.0000
  N   N9        1.0  0.15383  0.81168  0.00715  1.0000
  N   N10       1.0  0.34215  0.18833  0.49285  1.0000
  N   N11       1.0  0.84617  0.18833  0.99285  1.0000
  N   N12       1.0  0.65785  0.81167  0.50715  1.0000
  N   N13       1.0  0.19540  0.32681  0.08391  1.0000
  N   N14       1.0  0.86858  0.67318  0.41609  1.0000
  N   N15       1.0  0.80460  0.67319  0.91609  1.0000
  N   N16       1.0  0.13142  0.32681  0.58391  1.0000
  N   N17       1.0  0.29391  0.44521  0.04710  1.0000
  N   N18       1.0  0.84870  0.55479  0.45290  1.0000
  N   N19       1.0  0.70610  0.55480  0.95290  1.0000
  N   N20       1.0  0.15130  0.44521  0.54710  1.0000
  N   N21       1.0  0.42364  0.54546  0.08908  1.0000
  N   N22       1.0  0.87818  0.45454  0.41092  1.0000
  N   N23       1.0  0.57636  0.45453  0.91092  1.0000
  N   N24       1.0  0.12182  0.54546  0.58908  1.0000
