data_image0
_chemical_formula_structural       Cu6H28C30Br6N12
_chemical_formula_sum              "Cu6 H28 C30 Br6 N12"
_cell_length_a       8.31917
_cell_length_b       10.751
_cell_length_c       11.1101
_cell_angle_alpha    81.1631
_cell_angle_beta     85.9677
_cell_angle_gamma    69.6178

_space_group_name_H-M_alt    "P 1"
_space_group_IT_number       1

loop_
  _space_group_symop_operation_xyz
  'x, y, z'

loop_
  _atom_site_type_symbol
  _atom_site_label
  _atom_site_symmetry_multiplicity
  _atom_site_fract_x
  _atom_site_fract_y
  _atom_site_fract_z
  _atom_site_occupancy
  Cu  Cu1       1.0  0.66686  0.51420  0.19853  1.0000
  Cu  Cu2       1.0  0.33314  0.48581  0.80147  1.0000
  Cu  Cu3       1.0  0.48347  0.63918  0.46278  1.0000
  Cu  Cu4       1.0  0.51652  0.36082  0.53722  1.0000
  Cu  Cu5       1.0  0.35607  0.57525  0.10591  1.0000
  Cu  Cu6       1.0  0.64394  0.42475  0.89410  1.0000
  H   H1        1.0  0.55203  0.78968  0.02375  1.0000
  H   H2        1.0  0.44797  0.21033  0.97624  1.0000
  H   H3        1.0  0.58592  0.99291  0.89679  1.0000
  H   H4        1.0  0.41409  0.00709  0.10320  1.0000
  H   H5        1.0  0.86633  0.02036  0.86288  1.0000
  H   H6        1.0  0.13367  0.97964  0.13712  1.0000
  H   H7        1.0  0.13311  0.84383  0.94920  1.0000
  H   H8        1.0  0.86689  0.15617  0.05080  1.0000
  H   H9        1.0  0.86979  0.14493  0.44818  1.0000
  H   H10       1.0  0.13021  0.85507  0.55182  1.0000
  H   H11       1.0  0.04960  0.94864  0.34681  1.0000
  H   H12       1.0  0.95040  0.05135  0.65319  1.0000
  H   H13       1.0  0.91858  0.81770  0.24970  1.0000
  H   H14       1.0  0.08142  0.18229  0.75030  1.0000
  H   H15       1.0  0.59994  0.87510  0.24808  1.0000
  H   H16       1.0  0.40006  0.12490  0.75192  1.0000
  H   H17       1.0  0.21171  0.34408  0.17296  1.0000
  H   H18       1.0  0.78829  0.65591  0.82704  1.0000
  H   H19       1.0  0.00397  0.35080  0.23233  1.0000
  H   H20       1.0  0.99603  0.64921  0.76767  1.0000
  H   H21       1.0  0.03395  0.50106  0.38229  1.0000
  H   H22       1.0  0.96605  0.49894  0.61771  1.0000
  H   H23       1.0  0.24981  0.46738  0.33340  1.0000
  H   H24       1.0  0.75019  0.53262  0.66660  1.0000
  H   H25       1.0  0.19755  0.32692  0.52912  1.0000
  H   H26       1.0  0.80245  0.67307  0.47088  1.0000
  H   H27       1.0  0.10130  0.24716  0.44113  1.0000
  H   H28       1.0  0.89870  0.75284  0.55887  1.0000
  C   C1        1.0  0.98967  0.71709  0.03460  1.0000
  C   C2        1.0  0.01033  0.28291  0.96540  1.0000
  C   C3        1.0  0.82604  0.70277  0.05640  1.0000
  C   C4        1.0  0.17396  0.29723  0.94360  1.0000
  C   C5        1.0  0.67644  0.80191  0.00718  1.0000
  C   C6        1.0  0.32357  0.19809  0.99282  1.0000
  C   C7        1.0  0.69723  0.91356  0.93758  1.0000
  C   C8        1.0  0.30277  0.08644  0.06241  1.0000
  C   C9        1.0  0.85990  0.92896  0.91744  1.0000
  C   C10       1.0  0.14010  0.07104  0.08256  1.0000
  C   C11       1.0  0.00820  0.83234  0.96480  1.0000
  C   C12       1.0  0.99181  0.16766  0.03520  1.0000
  C   C13       1.0  0.55665  0.04684  0.34380  1.0000
  C   C14       1.0  0.44334  0.95315  0.65620  1.0000
  C   C15       1.0  0.63341  0.12112  0.40196  1.0000
  C   C16       1.0  0.36659  0.87888  0.59804  1.0000
  C   C17       1.0  0.81241  0.08700  0.40468  1.0000
  C   C18       1.0  0.18759  0.91300  0.59532  1.0000
  C   C19       1.0  0.91017  0.97822  0.34830  1.0000
  C   C20       1.0  0.08983  0.02178  0.65170  1.0000
  C   C21       1.0  0.83417  0.90292  0.29163  1.0000
  C   C22       1.0  0.16583  0.09709  0.70837  1.0000
  C   C23       1.0  0.65831  0.93458  0.28884  1.0000
  C   C24       1.0  0.34169  0.06542  0.71116  1.0000
  C   C25       1.0  0.09797  0.40252  0.22201  1.0000
  C   C26       1.0  0.90203  0.59748  0.77799  1.0000
  C   C27       1.0  0.14489  0.42632  0.34484  1.0000
  C   C28       1.0  0.85511  0.57368  0.65516  1.0000
  C   C29       1.0  0.19285  0.30011  0.43839  1.0000
  C   C30       1.0  0.80714  0.69988  0.56161  1.0000
  Br  Br1       1.0  0.38138  0.72229  0.24673  1.0000
  Br  Br2       1.0  0.61862  0.27771  0.75327  1.0000
  Br  Br3       1.0  0.73511  0.44187  0.42154  1.0000
  Br  Br4       1.0  0.26489  0.55813  0.57847  1.0000
  Br  Br5       1.0  0.57096  0.35108  0.12572  1.0000
  Br  Br6       1.0  0.42905  0.64892  0.87428  1.0000
  N   N1        1.0  0.84775  0.58285  0.12772  1.0000
  N   N2        1.0  0.15225  0.41715  0.87228  1.0000
  N   N3        1.0  0.01812  0.52922  0.14483  1.0000
  N   N4        1.0  0.98188  0.47078  0.85517  1.0000
  N   N5        1.0  0.10884  0.60521  0.09247  1.0000
  N   N6        1.0  0.89116  0.39479  0.90753  1.0000
  N   N7        1.0  0.50406  0.22176  0.44717  1.0000
  N   N8        1.0  0.49594  0.77825  0.55283  1.0000
  N   N9        1.0  0.36116  0.20491  0.41441  1.0000
  N   N10       1.0  0.63884  0.79509  0.58559  1.0000
  N   N11       1.0  0.38287  0.10354  0.35327  1.0000
  N   N12       1.0  0.61713  0.89646  0.64673  1.0000
