data_image0
_chemical_formula_structural       Cu2Mo8H16C20N4O24
_chemical_formula_sum              "Cu2 Mo8 H16 C20 N4 O24"
_cell_length_a       3.78268
_cell_length_b       13.2104
_cell_length_c       18.5557
_cell_angle_alpha    85.0446
_cell_angle_beta     84.1726
_cell_angle_gamma    81.7055

_space_group_name_H-M_alt    "P 1"
_space_group_IT_number       1

loop_
  _space_group_symop_operation_xyz
  'x, y, z'

loop_
  _atom_site_type_symbol
  _atom_site_label
  _atom_site_symmetry_multiplicity
  _atom_site_fract_x
  _atom_site_fract_y
  _atom_site_fract_z
  _atom_site_occupancy
  Cu  Cu1       1.0  0.02021  0.99898  0.99934  1.0000
  Cu  Cu2       1.0  0.01155  0.49977  0.49960  1.0000
  Mo  Mo1       1.0  0.55821  0.77786  0.89826  1.0000
  Mo  Mo2       1.0  0.23782  0.72113  0.60188  1.0000
  Mo  Mo3       1.0  0.43494  0.21570  0.10428  1.0000
  Mo  Mo4       1.0  0.75514  0.28405  0.39578  1.0000
  Mo  Mo5       1.0  0.19056  0.63044  0.79777  1.0000
  Mo  Mo6       1.0  0.61573  0.86887  0.70180  1.0000
  Mo  Mo7       1.0  0.81006  0.36340  0.20245  1.0000
  Mo  Mo8       1.0  0.37716  0.13628  0.29765  1.0000
  H   H1        1.0  0.90975  0.08240  0.73632  1.0000
  H   H2        1.0  0.73111  0.41845  0.76331  1.0000
  H   H3        1.0  0.08443  0.91792  0.26416  1.0000
  H   H4        1.0  0.26108  0.58158  0.23503  1.0000
  H   H5        1.0  0.12257  0.33406  0.85308  1.0000
  H   H6        1.0  0.30969  0.16580  0.64713  1.0000
  H   H7        1.0  0.87483  0.66711  0.14598  1.0000
  H   H8        1.0  0.69184  0.83344  0.35352  1.0000
  H   H9        1.0  0.90420  0.97669  0.85273  1.0000
  H   H10       1.0  0.73631  0.52353  0.64660  1.0000
  H   H11       1.0  0.10287  0.02321  0.14804  1.0000
  H   H12       1.0  0.26574  0.47588  0.35100  1.0000
  H   H13       1.0  0.11870  0.21800  0.96414  1.0000
  H   H14       1.0  0.30021  0.28116  0.53573  1.0000
  H   H15       1.0  0.89362  0.78292  0.03500  1.0000
  H   H16       1.0  0.71214  0.71716  0.46440  1.0000
  C   C1        1.0  0.02114  0.21749  0.78416  1.0000
  C   C2        1.0  0.02324  0.28280  0.71573  1.0000
  C   C3        1.0  0.97618  0.78292  0.21559  1.0000
  C   C4        1.0  0.97397  0.71710  0.28375  1.0000
  C   C5        1.0  0.96148  0.11515  0.78545  1.0000
  C   C6        1.0  0.86394  0.38535  0.71422  1.0000
  C   C7        1.0  0.03667  0.88512  0.21475  1.0000
  C   C8        1.0  0.13236  0.61451  0.28449  1.0000
  C   C9        1.0  0.07346  0.25524  0.85011  1.0000
  C   C10       1.0  0.17901  0.24473  0.64985  1.0000
  C   C11       1.0  0.92662  0.74560  0.14930  1.0000
  C   C12       1.0  0.82254  0.75460  0.35010  1.0000
  C   C13       1.0  0.95812  0.05536  0.85059  1.0000
  C   C14       1.0  0.86583  0.44473  0.64891  1.0000
  C   C15       1.0  0.04751  0.94478  0.14959  1.0000
  C   C16       1.0  0.13595  0.55463  0.34956  1.0000
  C   C17       1.0  0.07095  0.19028  0.91302  1.0000
  C   C18       1.0  0.17423  0.30931  0.58677  1.0000
  C   C19       1.0  0.93767  0.81041  0.08640  1.0000
  C   C20       1.0  0.83340  0.68955  0.41291  1.0000
  N   N1        1.0  0.01488  0.09131  0.91386  1.0000
  N   N2        1.0  0.02015  0.40839  0.58566  1.0000
  N   N3        1.0  0.99870  0.90891  0.08582  1.0000
  N   N4        1.0  0.98880  0.59062  0.41337  1.0000
  O   O1        1.0  0.66421  0.67428  0.80541  1.0000
  O   O2        1.0  0.13812  0.82723  0.69890  1.0000
  O   O3        1.0  0.33057  0.32215  0.20285  1.0000
  O   O4        1.0  0.85641  0.17750  0.29734  1.0000
  O   O5        1.0  0.57763  0.68330  0.96713  1.0000
  O   O6        1.0  0.22552  0.81958  0.53575  1.0000
  O   O7        1.0  0.41347  0.31668  0.03960  1.0000
  O   O8        1.0  0.77083  0.18314  0.46055  1.0000
  O   O9        1.0  0.55856  0.88466  0.79655  1.0000
  O   O10       1.0  0.24284  0.61650  0.70293  1.0000
  O   O11       1.0  0.43702  0.11440  0.20261  1.0000
  O   O12       1.0  0.75302  0.38519  0.29751  1.0000
  O   O13       1.0  0.22758  0.51258  0.84275  1.0000
  O   O14       1.0  0.57739  0.98924  0.66118  1.0000
  O   O15       1.0  0.77091  0.48178  0.15900  1.0000
  O   O16       1.0  0.41395  0.01795  0.34119  1.0000
  O   O17       1.0  0.08855  0.75613  0.86731  1.0000
  O   O18       1.0  0.71331  0.74257  0.63397  1.0000
  O   O19       1.0  0.90658  0.23871  0.13502  1.0000
  O   O20       1.0  0.28058  0.26101  0.36507  1.0000
  O   O21       1.0  0.50312  0.88881  0.94423  1.0000
  O   O22       1.0  0.33505  0.61200  0.55418  1.0000
  O   O23       1.0  0.49217  0.10983  0.05348  1.0000
  O   O24       1.0  0.65534  0.39011  0.44654  1.0000
