data_image0
_chemical_formula_structural       Tb4H28C36S6O32
_chemical_formula_sum              "Tb4 H28 C36 S6 O32"
_cell_length_a       5.79976
_cell_length_b       12.874
_cell_length_c       15.7532
_cell_angle_alpha    81.6145
_cell_angle_beta     79.4347
_cell_angle_gamma    76.9821

_space_group_name_H-M_alt    "P 1"
_space_group_IT_number       1

loop_
  _space_group_symop_operation_xyz
  'x, y, z'

loop_
  _atom_site_type_symbol
  _atom_site_label
  _atom_site_symmetry_multiplicity
  _atom_site_fract_x
  _atom_site_fract_y
  _atom_site_fract_z
  _atom_site_occupancy
  Tb  Tb1       1.0  0.70914  0.15209  0.11073  1.0000
  Tb  Tb2       1.0  0.97285  0.34800  0.38928  1.0000
  Tb  Tb3       1.0  0.29086  0.84791  0.88927  1.0000
  Tb  Tb4       1.0  0.02715  0.65200  0.61072  1.0000
  H   H1        1.0  0.19220  0.48992  0.18703  1.0000
  H   H2        1.0  0.86889  0.00936  0.31307  1.0000
  H   H3        1.0  0.80780  0.51008  0.81297  1.0000
  H   H4        1.0  0.13112  0.99064  0.68693  1.0000
  H   H5        1.0  0.18291  0.67600  0.08697  1.0000
  H   H6        1.0  0.94484  0.82317  0.41319  1.0000
  H   H7        1.0  0.81709  0.32401  0.91302  1.0000
  H   H8        1.0  0.05516  0.17682  0.58681  1.0000
  H   H9        1.0  0.18736  0.84683  0.20557  1.0000
  H   H10       1.0  0.24002  0.65342  0.29436  1.0000
  H   H11       1.0  0.81263  0.15317  0.79443  1.0000
  H   H12       1.0  0.75996  0.34658  0.70564  1.0000
  H   H13       1.0  0.00161  0.18523  0.23364  1.0000
  H   H14       1.0  0.42118  0.31463  0.26651  1.0000
  H   H15       1.0  0.99839  0.81477  0.76636  1.0000
  H   H16       1.0  0.57882  0.68537  0.73349  1.0000
  H   H17       1.0  0.16624  0.08873  0.18259  1.0000
  H   H18       1.0  0.43816  0.41126  0.31749  1.0000
  H   H19       1.0  0.83376  0.91126  0.81741  1.0000
  H   H20       1.0  0.56184  0.58874  0.68251  1.0000
  H   H21       1.0  0.92547  0.08183  0.93610  1.0000
  H   H22       1.0  0.94347  0.41822  0.56411  1.0000
  H   H23       1.0  0.07452  0.91817  0.06390  1.0000
  H   H24       1.0  0.05653  0.58178  0.43589  1.0000
  H   H25       1.0  0.68214  0.04390  0.94602  1.0000
  H   H26       1.0  0.67227  0.45585  0.55388  1.0000
  H   H27       1.0  0.31785  0.95610  0.05398  1.0000
  H   H28       1.0  0.32774  0.54415  0.44612  1.0000
  C   C1        1.0  0.82961  0.37227  0.17717  1.0000
  C   C2        1.0  0.37928  0.12757  0.32298  1.0000
  C   C3        1.0  0.17040  0.62773  0.82283  1.0000
  C   C4        1.0  0.62072  0.87243  0.67702  1.0000
  C   C5        1.0  0.87480  0.47816  0.13694  1.0000
  C   C6        1.0  0.48980  0.02161  0.36323  1.0000
  C   C7        1.0  0.12521  0.52185  0.86306  1.0000
  C   C8        1.0  0.51020  0.97838  0.63677  1.0000
  C   C9        1.0  0.06001  0.52656  0.14486  1.0000
  C   C10       1.0  0.73110  0.97291  0.35526  1.0000
  C   C11       1.0  0.93999  0.47344  0.85514  1.0000
  C   C12       1.0  0.26891  0.02709  0.64474  1.0000
  C   C13       1.0  0.05445  0.62468  0.09189  1.0000
  C   C14       1.0  0.77021  0.87476  0.40830  1.0000
  C   C15       1.0  0.94555  0.37532  0.90811  1.0000
  C   C16       1.0  0.22979  0.12524  0.59169  1.0000
  C   C17       1.0  0.86471  0.65050  0.04496  1.0000
  C   C18       1.0  0.55929  0.84931  0.45527  1.0000
  C   C19       1.0  0.13529  0.34950  0.95503  1.0000
  C   C20       1.0  0.44072  0.15069  0.54473  1.0000
  C   C21       1.0  0.80263  0.74719  0.98416  1.0000
  C   C22       1.0  0.53289  0.75257  0.51595  1.0000
  C   C23       1.0  0.19737  0.25281  0.01584  1.0000
  C   C24       1.0  0.46711  0.24743  0.48405  1.0000
  C   C25       1.0  0.61521  0.94034  0.16054  1.0000
  C   C26       1.0  0.71646  0.55982  0.33920  1.0000
  C   C27       1.0  0.38478  0.05966  0.83946  1.0000
  C   C28       1.0  0.28353  0.44018  0.66080  1.0000
  C   C29       1.0  0.56635  0.83889  0.20753  1.0000
  C   C30       1.0  0.61322  0.66125  0.29208  1.0000
  C   C31       1.0  0.43363  0.16111  0.79247  1.0000
  C   C32       1.0  0.38678  0.33875  0.70792  1.0000
  C   C33       1.0  0.35354  0.80103  0.22596  1.0000
  C   C34       1.0  0.38079  0.69915  0.27378  1.0000
  C   C35       1.0  0.64646  0.19896  0.77404  1.0000
  C   C36       1.0  0.61920  0.30085  0.72622  1.0000
  S   S1        1.0  0.69757  0.55261  0.06412  1.0000
  S   S2        1.0  0.31387  0.94746  0.43609  1.0000
  S   S3        1.0  0.30244  0.44739  0.93588  1.0000
  S   S4        1.0  0.68614  0.05254  0.56391  1.0000
  S   S5        1.0  0.79398  0.75005  0.24975  1.0000
  S   S6        1.0  0.20601  0.24995  0.75025  1.0000
  O   O1        1.0  0.72128  0.32431  0.13663  1.0000
  O   O2        1.0  0.18292  0.17574  0.36358  1.0000
  O   O3        1.0  0.27872  0.67570  0.86337  1.0000
  O   O4        1.0  0.81708  0.82426  0.63642  1.0000
  O   O5        1.0  0.90131  0.33273  0.24969  1.0000
  O   O6        1.0  0.48362  0.16695  0.25040  1.0000
  O   O7        1.0  0.09870  0.66727  0.75031  1.0000
  O   O8        1.0  0.51639  0.83305  0.74960  1.0000
  O   O9        1.0  0.62314  0.75471  0.94580  1.0000
  O   O10       1.0  0.32272  0.74517  0.55437  1.0000
  O   O11       1.0  0.37686  0.24529  0.05420  1.0000
  O   O12       1.0  0.67729  0.25483  0.44564  1.0000
  O   O13       1.0  0.93343  0.81711  0.97347  1.0000
  O   O14       1.0  0.72284  0.68241  0.52650  1.0000
  O   O15       1.0  0.06656  0.18289  0.02653  1.0000
  O   O16       1.0  0.27717  0.31758  0.47351  1.0000
  O   O17       1.0  0.44717  0.01212  0.13097  1.0000
  O   O18       1.0  0.59057  0.48816  0.36886  1.0000
  O   O19       1.0  0.55282  0.98788  0.86903  1.0000
  O   O20       1.0  0.40943  0.51184  0.63114  1.0000
  O   O21       1.0  0.82728  0.95890  0.15098  1.0000
  O   O22       1.0  0.93758  0.54121  0.34878  1.0000
  O   O23       1.0  0.17270  0.04110  0.84902  1.0000
  O   O24       1.0  0.06242  0.45879  0.65122  1.0000
  O   O25       1.0  0.00095  0.11939  0.20845  1.0000
  O   O26       1.0  0.32946  0.38043  0.29167  1.0000
  O   O27       1.0  0.99905  0.88060  0.79155  1.0000
  O   O28       1.0  0.67054  0.61957  0.70833  1.0000
  O   O29       1.0  0.76774  0.08530  0.97306  1.0000
  O   O30       1.0  0.82655  0.41467  0.52694  1.0000
  O   O31       1.0  0.23226  0.91470  0.02694  1.0000
  O   O32       1.0  0.17345  0.58532  0.47306  1.0000
