data_image0
_chemical_formula_structural       Zn2H28C38N4O14
_chemical_formula_sum              "Zn2 H28 C38 N4 O14"
_cell_length_a       9.40661
_cell_length_b       9.4923
_cell_length_c       11.1508
_cell_angle_alpha    111.483
_cell_angle_beta     90.7694
_cell_angle_gamma    102.693

_space_group_name_H-M_alt    "P 1"
_space_group_IT_number       1

loop_
  _space_group_symop_operation_xyz
  'x, y, z'

loop_
  _atom_site_type_symbol
  _atom_site_label
  _atom_site_symmetry_multiplicity
  _atom_site_fract_x
  _atom_site_fract_y
  _atom_site_fract_z
  _atom_site_occupancy
  Zn  Zn1       1.0  0.45344  0.26912  0.30477  1.0000
  Zn  Zn2       1.0  0.54657  0.73088  0.69523  1.0000
  H   H1        1.0  0.32842  0.44014  0.14893  1.0000
  H   H2        1.0  0.67157  0.55986  0.85107  1.0000
  H   H3        1.0  0.16268  0.36109  0.94287  1.0000
  H   H4        1.0  0.83731  0.63891  0.05713  1.0000
  H   H5        1.0  0.07899  0.07586  0.80390  1.0000
  H   H6        1.0  0.92101  0.92414  0.19610  1.0000
  H   H7        1.0  0.16531  0.88379  0.87091  1.0000
  H   H8        1.0  0.83469  0.11621  0.12908  1.0000
  H   H9        1.0  0.28363  0.74835  0.92042  1.0000
  H   H10       1.0  0.71637  0.25165  0.07958  1.0000
  H   H11       1.0  0.39873  0.59044  0.00821  1.0000
  H   H12       1.0  0.60127  0.40956  0.99179  1.0000
  H   H13       1.0  0.53604  0.71791  0.23207  1.0000
  H   H14       1.0  0.46395  0.28208  0.76793  1.0000
  H   H15       1.0  0.54692  0.00103  0.35784  1.0000
  H   H16       1.0  0.45308  0.99897  0.64216  1.0000
  H   H17       1.0  0.49181  0.34918  0.55810  1.0000
  H   H18       1.0  0.50820  0.65082  0.44190  1.0000
  H   H19       1.0  0.38775  0.17469  0.50035  1.0000
  H   H20       1.0  0.61224  0.82531  0.49965  1.0000
  H   H21       1.0  0.86726  0.77448  0.34157  1.0000
  H   H22       1.0  0.13274  0.22552  0.65843  1.0000
  H   H23       1.0  0.29537  0.71944  0.43126  1.0000
  H   H24       1.0  0.70463  0.28056  0.56874  1.0000
  H   H25       1.0  0.92083  0.32849  0.31992  1.0000
  H   H26       1.0  0.07917  0.67151  0.68008  1.0000
  H   H27       1.0  0.12306  0.10954  0.37513  1.0000
  H   H28       1.0  0.87694  0.89047  0.62487  1.0000
  C   C1        1.0  0.28874  0.31853  0.08373  1.0000
  C   C2        1.0  0.71126  0.68147  0.91626  1.0000
  C   C3        1.0  0.19674  0.27377  0.97057  1.0000
  C   C4        1.0  0.80325  0.72624  0.02943  1.0000
  C   C5        1.0  0.15124  0.11532  0.89299  1.0000
  C   C6        1.0  0.84877  0.88467  0.10700  1.0000
  C   C7        1.0  0.19961  0.00771  0.93056  1.0000
  C   C8        1.0  0.80038  0.99229  0.06944  1.0000
  C   C9        1.0  0.29220  0.06145  0.04564  1.0000
  C   C10       1.0  0.70780  0.93855  0.95436  1.0000
  C   C11       1.0  0.35122  0.95718  0.09353  1.0000
  C   C12       1.0  0.64878  0.04281  0.90647  1.0000
  C   C13       1.0  0.33818  0.79968  0.01848  1.0000
  C   C14       1.0  0.66182  0.20032  0.98152  1.0000
  C   C15       1.0  0.40414  0.71197  0.06819  1.0000
  C   C16       1.0  0.59585  0.28802  0.93181  1.0000
  C   C17       1.0  0.48033  0.78231  0.19160  1.0000
  C   C18       1.0  0.51967  0.21768  0.80840  1.0000
  C   C19       1.0  0.48771  0.93980  0.26139  1.0000
  C   C20       1.0  0.51229  0.06019  0.73861  1.0000
  C   C21       1.0  0.87729  0.54449  0.32529  1.0000
  C   C22       1.0  0.12271  0.45551  0.67470  1.0000
  C   C23       1.0  0.93879  0.70154  0.34933  1.0000
  C   C24       1.0  0.06121  0.29846  0.65067  1.0000
  C   C25       1.0  0.08876  0.76463  0.38930  1.0000
  C   C26       1.0  0.91124  0.23537  0.61070  1.0000
  C   C27       1.0  0.17903  0.66917  0.39959  1.0000
  C   C28       1.0  0.82097  0.33083  0.60041  1.0000
  C   C29       1.0  0.11896  0.51010  0.36909  1.0000
  C   C30       1.0  0.88104  0.48990  0.63090  1.0000
  C   C31       1.0  0.96788  0.44997  0.33540  1.0000
  C   C32       1.0  0.03213  0.55003  0.66460  1.0000
  C   C33       1.0  0.71395  0.48118  0.29645  1.0000
  C   C34       1.0  0.28605  0.51882  0.70355  1.0000
  C   C35       1.0  0.15441  0.93305  0.42043  1.0000
  C   C36       1.0  0.84559  0.06695  0.57957  1.0000
  C   C37       1.0  0.21122  0.39932  0.36938  1.0000
  C   C38       1.0  0.78878  0.60069  0.63062  1.0000
  N   N1        1.0  0.33442  0.21477  0.12016  1.0000
  N   N2        1.0  0.66558  0.78523  0.87984  1.0000
  N   N3        1.0  0.42455  0.02459  0.21350  1.0000
  N   N4        1.0  0.57545  0.97541  0.78650  1.0000
  O   O1        1.0  0.47309  0.24739  0.48572  1.0000
  O   O2        1.0  0.52691  0.75261  0.51428  1.0000
  O   O3        1.0  0.66626  0.34420  0.30028  1.0000
  O   O4        1.0  0.33374  0.65580  0.69972  1.0000
  O   O5        1.0  0.63553  0.56072  0.27269  1.0000
  O   O6        1.0  0.36447  0.43928  0.72730  1.0000
  O   O7        1.0  0.07623  0.99681  0.36415  1.0000
  O   O8        1.0  0.92377  0.00319  0.63585  1.0000
  O   O9        1.0  0.27112  0.00457  0.49052  1.0000
  O   O10       1.0  0.72888  0.99544  0.50948  1.0000
  O   O11       1.0  0.35125  0.44904  0.38118  1.0000
  O   O12       1.0  0.64876  0.55096  0.61882  1.0000
  O   O13       1.0  0.14555  0.26043  0.34985  1.0000
  O   O14       1.0  0.85445  0.73958  0.65016  1.0000
