data_image0
_chemical_formula_structural       Li4H80C40S4N4O4
_chemical_formula_sum              "Li4 H80 C40 S4 N4 O4"
_cell_length_a       9.13714
_cell_length_b       10.7447
_cell_length_c       12.0572
_cell_angle_alpha    89.9991
_cell_angle_beta     94.6962
_cell_angle_gamma    89.9973

_space_group_name_H-M_alt    "P 1"
_space_group_IT_number       1

loop_
  _space_group_symop_operation_xyz
  'x, y, z'

loop_
  _atom_site_type_symbol
  _atom_site_label
  _atom_site_symmetry_multiplicity
  _atom_site_fract_x
  _atom_site_fract_y
  _atom_site_fract_z
  _atom_site_occupancy
  Li  Li1       1.0  0.84947  0.34712  0.17065  1.0000
  Li  Li2       1.0  0.34950  0.15290  0.17067  1.0000
  Li  Li3       1.0  0.15050  0.65287  0.82934  1.0000
  Li  Li4       1.0  0.65049  0.84710  0.82933  1.0000
  H   H1        1.0  0.65605  0.70664  0.40198  1.0000
  H   H2        1.0  0.15603  0.79338  0.40197  1.0000
  H   H3        1.0  0.34394  0.29336  0.59803  1.0000
  H   H4        1.0  0.84397  0.20663  0.59802  1.0000
  H   H5        1.0  0.60528  0.65387  0.26445  1.0000
  H   H6        1.0  0.10525  0.84616  0.26445  1.0000
  H   H7        1.0  0.39472  0.34612  0.73555  1.0000
  H   H8        1.0  0.89475  0.15384  0.73553  1.0000
  H   H9        1.0  0.52181  0.58825  0.37818  1.0000
  H   H10       1.0  0.02178  0.91178  0.37818  1.0000
  H   H11       1.0  0.47817  0.41174  0.62182  1.0000
  H   H12       1.0  0.97819  0.08823  0.62182  1.0000
  H   H13       1.0  0.98058  0.52664  0.32472  1.0000
  H   H14       1.0  0.48055  0.97335  0.32472  1.0000
  H   H15       1.0  0.01942  0.47335  0.67528  1.0000
  H   H16       1.0  0.51944  0.02668  0.67527  1.0000
  H   H17       1.0  0.86629  0.62573  0.23701  1.0000
  H   H18       1.0  0.36626  0.87429  0.23700  1.0000
  H   H19       1.0  0.13371  0.37427  0.76299  1.0000
  H   H20       1.0  0.63372  0.12574  0.76297  1.0000
  H   H21       1.0  0.92079  0.67220  0.37610  1.0000
  H   H22       1.0  0.42076  0.82779  0.37610  1.0000
  H   H23       1.0  0.07920  0.32780  0.62389  1.0000
  H   H24       1.0  0.57923  0.17221  0.62389  1.0000
  H   H25       1.0  0.69372  0.43818  0.51727  1.0000
  H   H26       1.0  0.19370  0.06182  0.51728  1.0000
  H   H27       1.0  0.30629  0.56181  0.48273  1.0000
  H   H28       1.0  0.80629  0.93819  0.48271  1.0000
  H   H29       1.0  0.87944  0.42089  0.48762  1.0000
  H   H30       1.0  0.37943  0.07908  0.48763  1.0000
  H   H31       1.0  0.12057  0.57911  0.51238  1.0000
  H   H32       1.0  0.62056  0.92093  0.51235  1.0000
  H   H33       1.0  0.81664  0.56549  0.53735  1.0000
  H   H34       1.0  0.31661  0.93448  0.53734  1.0000
  H   H35       1.0  0.18336  0.43450  0.46265  1.0000
  H   H36       1.0  0.68338  0.06554  0.46264  1.0000
  H   H37       1.0  0.38274  0.36750  0.31208  1.0000
  H   H38       1.0  0.88273  0.13252  0.31206  1.0000
  H   H39       1.0  0.61728  0.63249  0.68793  1.0000
  H   H40       1.0  0.11728  0.86748  0.68793  1.0000
  H   H41       1.0  0.47411  0.25316  0.39558  1.0000
  H   H42       1.0  0.97407  0.24688  0.39556  1.0000
  H   H43       1.0  0.52589  0.74684  0.60445  1.0000
  H   H44       1.0  0.02591  0.75312  0.60444  1.0000
  H   H45       1.0  0.50108  0.41329  0.42981  1.0000
  H   H46       1.0  0.00107  0.08674  0.42982  1.0000
  H   H47       1.0  0.49892  0.58668  0.57021  1.0000
  H   H48       1.0  0.99893  0.91327  0.57018  1.0000
  H   H49       1.0  0.64719  0.50408  0.07211  1.0000
  H   H50       1.0  0.14727  0.99594  0.07217  1.0000
  H   H51       1.0  0.35281  0.49591  0.92790  1.0000
  H   H52       1.0  0.85275  0.00408  0.92785  1.0000
  H   H53       1.0  0.74775  0.60038  0.98232  1.0000
  H   H54       1.0  0.24782  0.89964  0.98239  1.0000
  H   H55       1.0  0.25226  0.39961  0.01768  1.0000
  H   H56       1.0  0.75220  0.10037  0.01764  1.0000
  H   H57       1.0  0.57402  0.36351  0.91934  1.0000
  H   H58       1.0  0.07399  0.13646  0.91937  1.0000
  H   H59       1.0  0.42598  0.63650  0.08066  1.0000
  H   H60       1.0  0.92603  0.86356  0.08066  1.0000
  H   H61       1.0  0.56464  0.51002  0.84855  1.0000
  H   H62       1.0  0.06467  0.98992  0.84862  1.0000
  H   H63       1.0  0.43535  0.48998  0.15145  1.0000
  H   H64       1.0  0.93534  0.01009  0.15140  1.0000
  H   H65       1.0  0.74442  0.32968  0.77449  1.0000
  H   H66       1.0  0.24436  0.17031  0.77452  1.0000
  H   H67       1.0  0.25558  0.67032  0.22550  1.0000
  H   H68       1.0  0.75566  0.82969  0.22549  1.0000
  H   H69       1.0  0.81090  0.48524  0.78897  1.0000
  H   H70       1.0  0.31089  0.01475  0.78899  1.0000
  H   H71       1.0  0.18910  0.51475  0.21103  1.0000
  H   H72       1.0  0.68912  0.98524  0.21103  1.0000
  H   H73       1.0  0.99510  0.39523  0.91467  1.0000
  H   H74       1.0  0.49509  0.10478  0.91466  1.0000
  H   H75       1.0  0.00490  0.60476  0.08532  1.0000
  H   H76       1.0  0.50493  0.89520  0.08534  1.0000
  H   H77       1.0  0.88141  0.26526  0.94409  1.0000
  H   H78       1.0  0.38140  0.23475  0.94407  1.0000
  H   H79       1.0  0.11859  0.73473  0.05590  1.0000
  H   H80       1.0  0.61865  0.76526  0.05594  1.0000
  C   C1        1.0  0.75097  0.52831  0.36206  1.0000
  C   C2        1.0  0.25094  0.97170  0.36206  1.0000
  C   C3        1.0  0.24904  0.47168  0.63794  1.0000
  C   C4        1.0  0.74904  0.02830  0.63793  1.0000
  C   C5        1.0  0.62552  0.62406  0.35146  1.0000
  C   C6        1.0  0.12548  0.87595  0.35147  1.0000
  C   C7        1.0  0.37448  0.37593  0.64854  1.0000
  C   C8        1.0  0.87449  0.12405  0.64852  1.0000
  C   C9        1.0  0.88817  0.59220  0.32292  1.0000
  C   C10       1.0  0.38814  0.90780  0.32292  1.0000
  C   C11       1.0  0.11183  0.40779  0.67708  1.0000
  C   C12       1.0  0.61185  0.09222  0.67707  1.0000
  C   C13       1.0  0.78626  0.48571  0.48309  1.0000
  C   C14       1.0  0.28624  0.01429  0.48310  1.0000
  C   C15       1.0  0.21374  0.51428  0.51691  1.0000
  C   C16       1.0  0.71375  0.98573  0.51690  1.0000
  C   C17       1.0  0.61161  0.34555  0.28614  1.0000
  C   C18       1.0  0.11160  0.15447  0.28615  1.0000
  C   C19       1.0  0.38838  0.65441  0.71388  1.0000
  C   C20       1.0  0.88838  0.84557  0.71386  1.0000
  C   C21       1.0  0.48698  0.34684  0.36123  1.0000
  C   C22       1.0  0.98698  0.15318  0.36122  1.0000
  C   C23       1.0  0.51303  0.65314  0.63879  1.0000
  C   C24       1.0  0.01302  0.84682  0.63878  1.0000
  C   C25       1.0  0.71234  0.50463  0.99980  1.0000
  C   C26       1.0  0.21239  0.99539  0.99985  1.0000
  C   C27       1.0  0.28766  0.49535  0.00020  1.0000
  C   C28       1.0  0.78763  0.00462  0.00017  1.0000
  C   C29       1.0  0.63773  0.44492  0.89607  1.0000
  C   C30       1.0  0.13774  0.05506  0.89612  1.0000
  C   C31       1.0  0.36226  0.55507  0.10393  1.0000
  C   C32       1.0  0.86228  0.94495  0.10389  1.0000
  C   C33       1.0  0.76989  0.40522  0.83401  1.0000
  C   C34       1.0  0.26988  0.09477  0.83403  1.0000
  C   C35       1.0  0.23011  0.59478  0.16598  1.0000
  C   C36       1.0  0.73013  0.90524  0.16598  1.0000
  C   C37       1.0  0.88288  0.36607  0.92821  1.0000
  C   C38       1.0  0.38288  0.13393  0.92820  1.0000
  C   C39       1.0  0.11711  0.63393  0.07179  1.0000
  C   C40       1.0  0.61715  0.86606  0.07180  1.0000
  S   S1        1.0  0.60191  0.22717  0.18649  1.0000
  S   S2        1.0  0.10190  0.27285  0.18648  1.0000
  S   S3        1.0  0.39806  0.77283  0.81350  1.0000
  S   S4        1.0  0.89808  0.72716  0.81350  1.0000
  N   N1        1.0  0.72333  0.42081  0.28652  1.0000
  N   N2        1.0  0.22332  0.07922  0.28651  1.0000
  N   N3        1.0  0.27668  0.57920  0.71349  1.0000
  N   N4        1.0  0.77669  0.92078  0.71348  1.0000
  O   O1        1.0  0.84072  0.42822  0.02837  1.0000
  O   O2        1.0  0.34076  0.07181  0.02841  1.0000
  O   O3        1.0  0.15928  0.57177  0.97162  1.0000
  O   O4        1.0  0.65925  0.92820  0.97160  1.0000
