data_image0
_chemical_formula_structural       Cd4H44C40N4O20
_chemical_formula_sum              "Cd4 H44 C40 N4 O20"
_cell_length_a       8.5893
_cell_length_b       9.81582
_cell_length_c       13.6468
_cell_angle_alpha    90
_cell_angle_beta     105.204
_cell_angle_gamma    90.0004

_space_group_name_H-M_alt    "P 1"
_space_group_IT_number       1

loop_
  _space_group_symop_operation_xyz
  'x, y, z'

loop_
  _atom_site_type_symbol
  _atom_site_label
  _atom_site_symmetry_multiplicity
  _atom_site_fract_x
  _atom_site_fract_y
  _atom_site_fract_z
  _atom_site_occupancy
  Cd  Cd1       1.0  0.76606  0.40462  0.10494  1.0000
  Cd  Cd2       1.0  0.73395  0.90462  0.89505  1.0000
  Cd  Cd3       1.0  0.23394  0.59537  0.89506  1.0000
  Cd  Cd4       1.0  0.26605  0.09537  0.10495  1.0000
  H   H1        1.0  0.08448  0.59963  0.10441  1.0000
  H   H2        1.0  0.41551  0.09961  0.89559  1.0000
  H   H3        1.0  0.91552  0.40037  0.89559  1.0000
  H   H4        1.0  0.58449  0.90038  0.10441  1.0000
  H   H5        1.0  0.09371  0.73524  0.19044  1.0000
  H   H6        1.0  0.40628  0.23523  0.80955  1.0000
  H   H7        1.0  0.90630  0.26476  0.80956  1.0000
  H   H8        1.0  0.59372  0.76477  0.19045  1.0000
  H   H9        1.0  0.10643  0.40702  0.32988  1.0000
  H   H10       1.0  0.39358  0.90699  0.67012  1.0000
  H   H11       1.0  0.89356  0.59298  0.67012  1.0000
  H   H12       1.0  0.60642  0.09301  0.32988  1.0000
  H   H13       1.0  0.23522  0.51421  0.28234  1.0000
  H   H14       1.0  0.26478  0.01418  0.71765  1.0000
  H   H15       1.0  0.76478  0.48579  0.71766  1.0000
  H   H16       1.0  0.73522  0.98582  0.28235  1.0000
  H   H17       1.0  0.98457  0.81826  0.28704  1.0000
  H   H18       1.0  0.51543  0.31825  0.71296  1.0000
  H   H19       1.0  0.01543  0.18174  0.71295  1.0000
  H   H20       1.0  0.48457  0.68175  0.28704  1.0000
  H   H21       1.0  0.76333  0.73861  0.52964  1.0000
  H   H22       1.0  0.73667  0.23863  0.47036  1.0000
  H   H23       1.0  0.23668  0.26140  0.47036  1.0000
  H   H24       1.0  0.26332  0.76137  0.52964  1.0000
  H   H25       1.0  0.74326  0.49162  0.48340  1.0000
  H   H26       1.0  0.75674  0.99163  0.51660  1.0000
  H   H27       1.0  0.25674  0.50839  0.51660  1.0000
  H   H28       1.0  0.24326  0.00837  0.48340  1.0000
  H   H29       1.0  0.84119  0.40826  0.33965  1.0000
  H   H30       1.0  0.65881  0.90826  0.66034  1.0000
  H   H31       1.0  0.15880  0.59174  0.66035  1.0000
  H   H32       1.0  0.34119  0.09174  0.33966  1.0000
  H   H33       1.0  0.88932  0.89874  0.43023  1.0000
  H   H34       1.0  0.61068  0.39874  0.56978  1.0000
  H   H35       1.0  0.11069  0.10127  0.56977  1.0000
  H   H36       1.0  0.38932  0.60125  0.43022  1.0000
  H   H37       1.0  0.47851  0.54818  0.11671  1.0000
  H   H38       1.0  0.02151  0.04817  0.88329  1.0000
  H   H39       1.0  0.52149  0.45182  0.88329  1.0000
  H   H40       1.0  0.97848  0.95183  0.11671  1.0000
  H   H41       1.0  0.46650  0.39136  0.13959  1.0000
  H   H42       1.0  0.03352  0.89135  0.86042  1.0000
  H   H43       1.0  0.53350  0.60864  0.86041  1.0000
  H   H44       1.0  0.96648  0.10865  0.13957  1.0000
  C   C1        1.0  0.92218  0.60619  0.30399  1.0000
  C   C2        1.0  0.57782  0.10618  0.69600  1.0000
  C   C3        1.0  0.07782  0.39382  0.69601  1.0000
  C   C4        1.0  0.42218  0.89381  0.30399  1.0000
  C   C5        1.0  0.13595  0.34579  0.18685  1.0000
  C   C6        1.0  0.36406  0.84577  0.81316  1.0000
  C   C7        1.0  0.86405  0.65420  0.81316  1.0000
  C   C8        1.0  0.63593  0.15423  0.18684  1.0000
  C   C9        1.0  0.01698  0.65116  0.15198  1.0000
  C   C10       1.0  0.48301  0.15114  0.84801  1.0000
  C   C11       1.0  0.98303  0.34884  0.84802  1.0000
  C   C12       1.0  0.51699  0.84885  0.15199  1.0000
  C   C13       1.0  0.86389  0.70494  0.07748  1.0000
  C   C14       1.0  0.63610  0.20493  0.92252  1.0000
  C   C15       1.0  0.13612  0.29506  0.92252  1.0000
  C   C16       1.0  0.36390  0.79507  0.07748  1.0000
  C   C17       1.0  0.12047  0.45786  0.26108  1.0000
  C   C18       1.0  0.37954  0.95784  0.73892  1.0000
  C   C19       1.0  0.87954  0.54214  0.73893  1.0000
  C   C20       1.0  0.62046  0.04216  0.26108  1.0000
  C   C21       1.0  0.93162  0.74486  0.32872  1.0000
  C   C22       1.0  0.56838  0.24486  0.67128  1.0000
  C   C23       1.0  0.06838  0.25514  0.67128  1.0000
  C   C24       1.0  0.43162  0.75514  0.32872  1.0000
  C   C25       1.0  0.80918  0.70134  0.46725  1.0000
  C   C26       1.0  0.69082  0.20135  0.53275  1.0000
  C   C27       1.0  0.19082  0.29867  0.53275  1.0000
  C   C28       1.0  0.30918  0.79865  0.46725  1.0000
  C   C29       1.0  0.79699  0.56335  0.44094  1.0000
  C   C30       1.0  0.70301  0.06336  0.55906  1.0000
  C   C31       1.0  0.20301  0.43666  0.55906  1.0000
  C   C32       1.0  0.29699  0.93664  0.44094  1.0000
  C   C33       1.0  0.85281  0.51589  0.36036  1.0000
  C   C34       1.0  0.64718  0.01589  0.63963  1.0000
  C   C35       1.0  0.14719  0.48411  0.63964  1.0000
  C   C36       1.0  0.35281  0.98410  0.36037  1.0000
  C   C37       1.0  0.87689  0.79083  0.41077  1.0000
  C   C38       1.0  0.62310  0.29083  0.58923  1.0000
  C   C39       1.0  0.12311  0.20918  0.58923  1.0000
  C   C40       1.0  0.37690  0.70917  0.41077  1.0000
  N   N1        1.0  0.98281  0.55071  0.22333  1.0000
  N   N2        1.0  0.51719  0.05069  0.77666  1.0000
  N   N3        1.0  0.01720  0.44929  0.77667  1.0000
  N   N4        1.0  0.48281  0.94930  0.22334  1.0000
  O   O1        1.0  0.75215  0.62289  0.03809  1.0000
  O   O2        1.0  0.74786  0.12289  0.96189  1.0000
  O   O3        1.0  0.24786  0.37711  0.96191  1.0000
  O   O4        1.0  0.25214  0.87711  0.03811  1.0000
  O   O5        1.0  0.53916  0.46982  0.15639  1.0000
  O   O6        1.0  0.96087  0.96980  0.84362  1.0000
  O   O7        1.0  0.46084  0.53018  0.84361  1.0000
  O   O8        1.0  0.03913  0.03020  0.15638  1.0000
  O   O9        1.0  0.02132  0.32205  0.10885  1.0000
  O   O10       1.0  0.47868  0.82206  0.89116  1.0000
  O   O11       1.0  0.97867  0.67794  0.89116  1.0000
  O   O12       1.0  0.52131  0.17794  0.10884  1.0000
  O   O13       1.0  0.26784  0.27933  0.21141  1.0000
  O   O14       1.0  0.23217  0.77932  0.78860  1.0000
  O   O15       1.0  0.73216  0.72066  0.78859  1.0000
  O   O16       1.0  0.76783  0.22068  0.21140  1.0000
  O   O17       1.0  0.86055  0.83197  0.05565  1.0000
  O   O18       1.0  0.63943  0.33196  0.94435  1.0000
  O   O19       1.0  0.13945  0.16803  0.94435  1.0000
  O   O20       1.0  0.36057  0.66803  0.05565  1.0000
