data_image0
_chemical_formula_structural       K4Ho4H20C36N4O40
_chemical_formula_sum              "K4 Ho4 H20 C36 N4 O40"
_cell_length_a       6.5709
_cell_length_b       12.5035
_cell_length_c       14.0575
_cell_angle_alpha    89.999
_cell_angle_beta     89.9999
_cell_angle_gamma    89.9994

_space_group_name_H-M_alt    "P 1"
_space_group_IT_number       1

loop_
  _space_group_symop_operation_xyz
  'x, y, z'

loop_
  _atom_site_type_symbol
  _atom_site_label
  _atom_site_symmetry_multiplicity
  _atom_site_fract_x
  _atom_site_fract_y
  _atom_site_fract_z
  _atom_site_occupancy
  K   K1        1.0  0.10225  0.64267  0.47252  1.0000
  K   K2        1.0  0.39780  0.35730  0.97251  1.0000
  K   K3        1.0  0.89778  0.14268  0.02751  1.0000
  K   K4        1.0  0.60226  0.85734  0.52750  1.0000
  Ho  Ho1       1.0  0.11292  0.35321  0.27541  1.0000
  Ho  Ho2       1.0  0.38707  0.64680  0.77541  1.0000
  Ho  Ho3       1.0  0.88708  0.85320  0.22459  1.0000
  Ho  Ho4       1.0  0.61292  0.14680  0.72459  1.0000
  H   H1        1.0  0.36110  0.56363  0.29452  1.0000
  H   H2        1.0  0.13890  0.43637  0.79452  1.0000
  H   H3        1.0  0.63890  0.06362  0.20548  1.0000
  H   H4        1.0  0.86110  0.93637  0.70548  1.0000
  H   H5        1.0  0.32979  0.53766  0.18529  1.0000
  H   H6        1.0  0.17020  0.46233  0.68529  1.0000
  H   H7        1.0  0.67020  0.03766  0.31472  1.0000
  H   H8        1.0  0.82978  0.96234  0.81471  1.0000
  H   H9        1.0  0.11339  0.99868  0.59409  1.0000
  H   H10       1.0  0.38660  0.00131  0.09409  1.0000
  H   H11       1.0  0.88663  0.49869  0.90591  1.0000
  H   H12       1.0  0.61340  0.50131  0.40591  1.0000
  H   H13       1.0  0.60907  0.66570  0.34418  1.0000
  H   H14       1.0  0.89093  0.33430  0.84417  1.0000
  H   H15       1.0  0.39093  0.16570  0.15583  1.0000
  H   H16       1.0  0.10907  0.83430  0.65583  1.0000
  H   H17       1.0  0.40739  0.72654  0.32951  1.0000
  H   H18       1.0  0.09260  0.27345  0.82951  1.0000
  H   H19       1.0  0.59260  0.22654  0.17049  1.0000
  H   H20       1.0  0.90740  0.77346  0.67049  1.0000
  C   C1        1.0  0.11413  0.36224  0.50477  1.0000
  C   C2        1.0  0.38587  0.63775  0.00479  1.0000
  C   C3        1.0  0.88586  0.86225  0.99522  1.0000
  C   C4        1.0  0.61413  0.13776  0.49523  1.0000
  C   C5        1.0  0.12031  0.24253  0.49004  1.0000
  C   C6        1.0  0.37968  0.75747  0.99004  1.0000
  C   C7        1.0  0.87967  0.74253  0.00996  1.0000
  C   C8        1.0  0.62031  0.25748  0.50996  1.0000
  C   C9        1.0  0.11890  0.16703  0.56398  1.0000
  C   C10       1.0  0.38109  0.83297  0.06398  1.0000
  C   C11       1.0  0.88110  0.66703  0.93601  1.0000
  C   C12       1.0  0.61890  0.33297  0.43602  1.0000
  C   C13       1.0  0.11330  0.05911  0.53857  1.0000
  C   C14       1.0  0.38670  0.94089  0.03857  1.0000
  C   C15       1.0  0.88672  0.55911  0.96143  1.0000
  C   C16       1.0  0.61330  0.44089  0.46143  1.0000
  C   C17       1.0  0.10715  0.02791  0.44308  1.0000
  C   C18       1.0  0.39286  0.97209  0.94308  1.0000
  C   C19       1.0  0.89287  0.52791  0.05691  1.0000
  C   C20       1.0  0.60715  0.47210  0.55691  1.0000
  C   C21       1.0  0.11636  0.10879  0.37382  1.0000
  C   C22       1.0  0.38364  0.89120  0.87381  1.0000
  C   C23       1.0  0.88365  0.60879  0.12618  1.0000
  C   C24       1.0  0.61636  0.39121  0.62618  1.0000
  C   C25       1.0  0.12935  0.08915  0.26820  1.0000
  C   C26       1.0  0.37064  0.91086  0.76819  1.0000
  C   C27       1.0  0.87064  0.58914  0.23180  1.0000
  C   C28       1.0  0.62935  0.41086  0.73180  1.0000
  C   C29       1.0  0.11911  0.19526  0.66833  1.0000
  C   C30       1.0  0.38088  0.80475  0.16833  1.0000
  C   C31       1.0  0.88089  0.69526  0.83167  1.0000
  C   C32       1.0  0.61911  0.30474  0.33167  1.0000
  C   C33       1.0  0.09271  0.90979  0.42191  1.0000
  C   C34       1.0  0.40731  0.09020  0.92190  1.0000
  C   C35       1.0  0.90733  0.40979  0.07809  1.0000
  C   C36       1.0  0.59271  0.59021  0.57809  1.0000
  N   N1        1.0  0.12260  0.21200  0.39881  1.0000
  N   N2        1.0  0.37739  0.78800  0.89881  1.0000
  N   N3        1.0  0.87738  0.71200  0.10119  1.0000
  N   N4        1.0  0.62260  0.28801  0.60119  1.0000
  O   O1        1.0  0.12125  0.41953  0.42857  1.0000
  O   O2        1.0  0.37876  0.58047  0.92857  1.0000
  O   O3        1.0  0.87874  0.91953  0.07143  1.0000
  O   O4        1.0  0.62125  0.08047  0.57143  1.0000
  O   O5        1.0  0.09824  0.39741  0.58758  1.0000
  O   O6        1.0  0.40176  0.60259  0.08758  1.0000
  O   O7        1.0  0.90174  0.89742  0.91242  1.0000
  O   O8        1.0  0.59824  0.10259  0.41242  1.0000
  O   O9        1.0  0.28631  0.21519  0.70945  1.0000
  O   O10       1.0  0.21368  0.78481  0.20945  1.0000
  O   O11       1.0  0.71368  0.71519  0.79055  1.0000
  O   O12       1.0  0.78632  0.28481  0.29055  1.0000
  O   O13       1.0  0.95017  0.19224  0.71125  1.0000
  O   O14       1.0  0.54983  0.80776  0.21125  1.0000
  O   O15       1.0  0.04982  0.69223  0.78874  1.0000
  O   O16       1.0  0.45017  0.30776  0.28875  1.0000
  O   O17       1.0  0.23932  0.85211  0.44556  1.0000
  O   O18       1.0  0.26068  0.14788  0.94555  1.0000
  O   O19       1.0  0.76071  0.35211  0.05444  1.0000
  O   O20       1.0  0.73932  0.64789  0.55444  1.0000
  O   O21       1.0  0.92384  0.87539  0.38619  1.0000
  O   O22       1.0  0.57618  0.12461  0.88619  1.0000
  O   O23       1.0  0.07619  0.37539  0.11381  1.0000
  O   O24       1.0  0.42384  0.62461  0.61381  1.0000
  O   O25       1.0  0.13184  0.99449  0.23762  1.0000
  O   O26       1.0  0.36815  0.00551  0.73762  1.0000
  O   O27       1.0  0.86815  0.49449  0.26238  1.0000
  O   O28       1.0  0.63185  0.50552  0.76238  1.0000
  O   O29       1.0  0.14394  0.17236  0.21490  1.0000
  O   O30       1.0  0.35605  0.82765  0.71489  1.0000
  O   O31       1.0  0.85606  0.67235  0.28510  1.0000
  O   O32       1.0  0.64393  0.32765  0.78510  1.0000
  O   O33       1.0  0.29736  0.51141  0.25011  1.0000
  O   O34       1.0  0.20263  0.48859  0.75011  1.0000
  O   O35       1.0  0.70262  0.01141  0.24990  1.0000
  O   O36       1.0  0.79736  0.98859  0.74989  1.0000
  O   O37       1.0  0.46396  0.66442  0.36336  1.0000
  O   O38       1.0  0.03604  0.33558  0.86336  1.0000
  O   O39       1.0  0.53604  0.16442  0.13664  1.0000
  O   O40       1.0  0.96397  0.83558  0.63664  1.0000
