data_image0
_chemical_formula_structural       Zn6H44C60O32
_chemical_formula_sum              "Zn6 H44 C60 O32"
_cell_length_a       7.54961
_cell_length_b       13.7596
_cell_length_c       17.4861
_cell_angle_alpha    89.9988
_cell_angle_beta     90.0005
_cell_angle_gamma    100.716

_space_group_name_H-M_alt    "P 1"
_space_group_IT_number       1

loop_
  _space_group_symop_operation_xyz
  'x, y, z'

loop_
  _atom_site_type_symbol
  _atom_site_label
  _atom_site_symmetry_multiplicity
  _atom_site_fract_x
  _atom_site_fract_y
  _atom_site_fract_z
  _atom_site_occupancy
  Zn  Zn1       1.0  0.29921  0.99391  0.04151  1.0000
  Zn  Zn2       1.0  0.70081  0.00611  0.54151  1.0000
  Zn  Zn3       1.0  0.60465  0.85458  0.09445  1.0000
  Zn  Zn4       1.0  0.39536  0.14543  0.59445  1.0000
  Zn  Zn5       1.0  0.04994  0.16457  0.97695  1.0000
  Zn  Zn6       1.0  0.95005  0.83542  0.47695  1.0000
  H   H1        1.0  0.42549  0.98965  0.81173  1.0000
  H   H2        1.0  0.57452  0.01035  0.31174  1.0000
  H   H3        1.0  0.45667  0.77657  0.63593  1.0000
  H   H4        1.0  0.54333  0.22343  0.13593  1.0000
  H   H5        1.0  0.54841  0.70586  0.87140  1.0000
  H   H6        1.0  0.45159  0.29413  0.37140  1.0000
  H   H7        1.0  0.67959  0.68785  0.62226  1.0000
  H   H8        1.0  0.32039  0.31216  0.12226  1.0000
  H   H9        1.0  0.71648  0.52473  0.57325  1.0000
  H   H10       1.0  0.28352  0.47527  0.07324  1.0000
  H   H11       1.0  0.40915  0.38283  0.76287  1.0000
  H   H12       1.0  0.59086  0.61717  0.26286  1.0000
  H   H13       1.0  0.38274  0.54664  0.81594  1.0000
  H   H14       1.0  0.61725  0.45336  0.31594  1.0000
  H   H15       1.0  0.05184  0.99221  0.26527  1.0000
  H   H16       1.0  0.94817  0.00779  0.76527  1.0000
  H   H17       1.0  0.94450  0.20741  0.42804  1.0000
  H   H18       1.0  0.05551  0.79259  0.92805  1.0000
  H   H19       1.0  0.02115  0.28538  0.18979  1.0000
  H   H20       1.0  0.97886  0.71463  0.68980  1.0000
  H   H21       1.0  0.81683  0.33293  0.43566  1.0000
  H   H22       1.0  0.18316  0.66706  0.93567  1.0000
  H   H23       1.0  0.84628  0.50706  0.47397  1.0000
  H   H24       1.0  0.15370  0.49292  0.97398  1.0000
  H   H25       1.0  0.16481  0.59902  0.27424  1.0000
  H   H26       1.0  0.83517  0.40098  0.77424  1.0000
  H   H27       1.0  0.12845  0.42577  0.23233  1.0000
  H   H28       1.0  0.87154  0.57424  0.73234  1.0000
  H   H29       1.0  0.69633  0.10116  0.01013  1.0000
  H   H30       1.0  0.30368  0.89882  0.51014  1.0000
  H   H31       1.0  0.75512  0.17571  0.93639  1.0000
  H   H32       1.0  0.24489  0.82427  0.43640  1.0000
  H   H33       1.0  0.27228  0.77523  0.09216  1.0000
  H   H34       1.0  0.72773  0.22477  0.59216  1.0000
  H   H35       1.0  0.21587  0.86091  0.14646  1.0000
  H   H36       1.0  0.78414  0.13909  0.64647  1.0000
  H   H37       1.0  0.38225  0.14919  0.91927  1.0000
  H   H38       1.0  0.61776  0.85081  0.41927  1.0000
  H   H39       1.0  0.45787  0.22052  0.98572  1.0000
  H   H40       1.0  0.54215  0.77945  0.48571  1.0000
  H   H41       1.0  0.87929  0.77179  0.07763  1.0000
  H   H42       1.0  0.12072  0.22821  0.57762  1.0000
  H   H43       1.0  0.93718  0.87822  0.03856  1.0000
  H   H44       1.0  0.06284  0.12178  0.53855  1.0000
  C   C1        1.0  0.48670  0.85021  0.84993  1.0000
  C   C2        1.0  0.51329  0.14979  0.34993  1.0000
  C   C3        1.0  0.44832  0.91703  0.79469  1.0000
  C   C4        1.0  0.55168  0.08297  0.29469  1.0000
  C   C5        1.0  0.44147  0.89072  0.71759  1.0000
  C   C6        1.0  0.55854  0.10928  0.21759  1.0000
  C   C7        1.0  0.46736  0.79657  0.69619  1.0000
  C   C8        1.0  0.53263  0.20344  0.19620  1.0000
  C   C9        1.0  0.50393  0.72798  0.75030  1.0000
  C   C10       1.0  0.49606  0.27202  0.25030  1.0000
  C   C11       1.0  0.51603  0.75644  0.82778  1.0000
  C   C12       1.0  0.48396  0.24356  0.32778  1.0000
  C   C13       1.0  0.48716  0.88139  0.93231  1.0000
  C   C14       1.0  0.51284  0.11861  0.43231  1.0000
  C   C15       1.0  0.41656  0.96303  0.65737  1.0000
  C   C16       1.0  0.58346  0.03698  0.15737  1.0000
  C   C17       1.0  0.52764  0.62947  0.72281  1.0000
  C   C18       1.0  0.47235  0.37053  0.22281  1.0000
  C   C19       1.0  0.61866  0.62135  0.65342  1.0000
  C   C20       1.0  0.38133  0.37866  0.15342  1.0000
  C   C21       1.0  0.64058  0.52955  0.62564  1.0000
  C   C22       1.0  0.35941  0.47046  0.12563  1.0000
  C   C23       1.0  0.56438  0.44288  0.66462  1.0000
  C   C24       1.0  0.43561  0.55712  0.16461  1.0000
  C   C25       1.0  0.47030  0.45022  0.73295  1.0000
  C   C26       1.0  0.52969  0.54978  0.23295  1.0000
  C   C27       1.0  0.45596  0.54238  0.76264  1.0000
  C   C28       1.0  0.54403  0.45762  0.26264  1.0000
  C   C29       1.0  0.57817  0.34328  0.63337  1.0000
  C   C30       1.0  0.42182  0.65672  0.13336  1.0000
  C   C31       1.0  0.04873  0.13823  0.22035  1.0000
  C   C32       1.0  0.95128  0.86178  0.72035  1.0000
  C   C33       1.0  0.03333  0.06705  0.27780  1.0000
  C   C34       1.0  0.96668  0.93295  0.77780  1.0000
  C   C35       1.0  0.98902  0.09240  0.35176  1.0000
  C   C36       1.0  0.01098  0.90759  0.85176  1.0000
  C   C37       1.0  0.97096  0.18920  0.36903  1.0000
  C   C38       1.0  0.02904  0.81079  0.86904  1.0000
  C   C39       1.0  0.98420  0.26158  0.31185  1.0000
  C   C40       1.0  0.01580  0.73843  0.81185  1.0000
  C   C41       1.0  0.01691  0.23316  0.23677  1.0000
  C   C42       1.0  0.98309  0.76684  0.73677  1.0000
  C   C43       1.0  0.10021  0.11355  0.14120  1.0000
  C   C44       1.0  0.89979  0.88646  0.64121  1.0000
  C   C45       1.0  0.95244  0.01432  0.41056  1.0000
  C   C46       1.0  0.04757  0.98568  0.91056  1.0000
  C   C47       1.0  0.97605  0.36511  0.33165  1.0000
  C   C48       1.0  0.02394  0.63489  0.83166  1.0000
  C   C49       1.0  0.89351  0.39007  0.39926  1.0000
  C   C50       1.0  0.10647  0.60992  0.89927  1.0000
  C   C51       1.0  0.90934  0.48850  0.42133  1.0000
  C   C52       1.0  0.09064  0.51149  0.92135  1.0000
  C   C53       1.0  0.01231  0.56428  0.37790  1.0000
  C   C54       1.0  0.98767  0.43572  0.87791  1.0000
  C   C55       1.0  0.08672  0.54040  0.30877  1.0000
  C   C56       1.0  0.91326  0.45960  0.80878  1.0000
  C   C57       1.0  0.06553  0.44247  0.28544  1.0000
  C   C58       1.0  0.93446  0.55753  0.78545  1.0000
  C   C59       1.0  0.05158  0.66849  0.40629  1.0000
  C   C60       1.0  0.94841  0.33150  0.90630  1.0000
  O   O1        1.0  0.56108  0.83372  0.98186  1.0000
  O   O2        1.0  0.43892  0.16629  0.48186  1.0000
  O   O3        1.0  0.77451  0.11396  0.96464  1.0000
  O   O4        1.0  0.22548  0.88602  0.46466  1.0000
  O   O5        1.0  0.40822  0.95379  0.94592  1.0000
  O   O6        1.0  0.59178  0.04621  0.44592  1.0000
  O   O7        1.0  0.27737  0.85241  0.09857  1.0000
  O   O8        1.0  0.72265  0.14760  0.59857  1.0000
  O   O9        1.0  0.37155  0.04429  0.67680  1.0000
  O   O10       1.0  0.62848  0.95572  0.17680  1.0000
  O   O11       1.0  0.36413  0.16406  0.97296  1.0000
  O   O12       1.0  0.63587  0.83593  0.47296  1.0000
  O   O13       1.0  0.44844  0.94282  0.58739  1.0000
  O   O14       1.0  0.55158  0.05720  0.08739  1.0000
  O   O15       1.0  0.87339  0.84144  0.08325  1.0000
  O   O16       1.0  0.12662  0.15856  0.58324  1.0000
  O   O17       1.0  0.71793  0.33122  0.59661  1.0000
  O   O18       1.0  0.28207  0.66879  0.09659  1.0000
  O   O19       1.0  0.44120  0.27473  0.64686  1.0000
  O   O20       1.0  0.55880  0.72528  0.14686  1.0000
  O   O21       1.0  0.17318  0.03779  0.13262  1.0000
  O   O22       1.0  0.82683  0.96222  0.63262  1.0000
  O   O23       1.0  0.07033  0.17261  0.08863  1.0000
  O   O24       1.0  0.92966  0.82738  0.58863  1.0000
  O   O25       1.0  0.91994  0.92482  0.38816  1.0000
  O   O26       1.0  0.08006  0.07518  0.88816  1.0000
  O   O27       1.0  0.94932  0.03746  0.48207  1.0000
  O   O28       1.0  0.05069  0.96254  0.98208  1.0000
  O   O29       1.0  0.92328  0.69716  0.44397  1.0000
  O   O30       1.0  0.07670  0.30284  0.94397  1.0000
  O   O31       1.0  0.20545  0.72014  0.39279  1.0000
  O   O32       1.0  0.79453  0.27985  0.89279  1.0000
