data_image0
_chemical_formula_structural       Zn2H26Pd2C38N14O2
_chemical_formula_sum              "Zn2 H26 Pd2 C38 N14 O2"
_cell_length_a       9.7302
_cell_length_b       9.73017
_cell_length_c       11.5496
_cell_angle_alpha    82.45
_cell_angle_beta     82.4501
_cell_angle_gamma    71.9918

_space_group_name_H-M_alt    "P 1"
_space_group_IT_number       1

loop_
  _space_group_symop_operation_xyz
  'x, y, z'

loop_
  _atom_site_type_symbol
  _atom_site_label
  _atom_site_symmetry_multiplicity
  _atom_site_fract_x
  _atom_site_fract_y
  _atom_site_fract_z
  _atom_site_occupancy
  Zn  Zn1       1.0  0.26452  0.73548  0.75000  1.0000
  Zn  Zn2       1.0  0.73548  0.26452  0.25000  1.0000
  H   H1        1.0  0.54180  0.56295  0.72738  1.0000
  H   H2        1.0  0.43705  0.45820  0.77262  1.0000
  H   H3        1.0  0.45820  0.43705  0.27262  1.0000
  H   H4        1.0  0.56295  0.54180  0.22738  1.0000
  H   H5        1.0  0.28309  0.51399  0.98256  1.0000
  H   H6        1.0  0.48601  0.71692  0.51744  1.0000
  H   H7        1.0  0.71691  0.48601  0.01744  1.0000
  H   H8        1.0  0.51399  0.28309  0.48256  1.0000
  H   H9        1.0  0.11722  0.47702  0.16170  1.0000
  H   H10       1.0  0.52298  0.88278  0.33830  1.0000
  H   H11       1.0  0.88278  0.52298  0.83830  1.0000
  H   H12       1.0  0.47702  0.11722  0.66170  1.0000
  H   H13       1.0  0.87081  0.66071  0.18917  1.0000
  H   H14       1.0  0.33929  0.12919  0.31083  1.0000
  H   H15       1.0  0.12919  0.33929  0.81083  1.0000
  H   H16       1.0  0.66071  0.87081  0.68917  1.0000
  H   H17       1.0  0.80535  0.87597  0.04281  1.0000
  H   H18       1.0  0.12403  0.19465  0.45719  1.0000
  H   H19       1.0  0.19465  0.12403  0.95719  1.0000
  H   H20       1.0  0.87597  0.80535  0.54281  1.0000
  H   H21       1.0  0.77050  0.06323  0.91741  1.0000
  H   H22       1.0  0.93677  0.22950  0.58258  1.0000
  H   H23       1.0  0.22950  0.93677  0.08258  1.0000
  H   H24       1.0  0.06323  0.77050  0.41741  1.0000
  H   H25       1.0  0.74513  0.25487  0.75000  1.0000
  H   H26       1.0  0.25487  0.74513  0.25000  1.0000
  Pd  Pd1       1.0  0.50000  0.00000  1.00000  1.0000
  Pd  Pd2       1.0  0.00000  0.50000  0.50000  1.0000
  C   C1        1.0  0.43039  0.90520  0.88818  1.0000
  C   C2        1.0  0.09480  0.56961  0.61182  1.0000
  C   C3        1.0  0.56961  0.09480  0.11182  1.0000
  C   C4        1.0  0.90520  0.43039  0.38818  1.0000
  C   C5        1.0  0.45828  0.18295  0.89505  1.0000
  C   C6        1.0  0.81705  0.54172  0.60495  1.0000
  C   C7        1.0  0.54172  0.81705  0.10494  1.0000
  C   C8        1.0  0.18295  0.45828  0.39505  1.0000
  C   C9        1.0  0.17636  0.59197  0.99968  1.0000
  C   C10       1.0  0.40802  0.82364  0.50032  1.0000
  C   C11       1.0  0.82364  0.40803  0.00032  1.0000
  C   C12       1.0  0.59198  0.17636  0.49968  1.0000
  C   C13       1.0  0.08331  0.57146  0.09866  1.0000
  C   C14       1.0  0.42854  0.91669  0.40134  1.0000
  C   C15       1.0  0.91669  0.42854  0.90134  1.0000
  C   C16       1.0  0.57146  0.08331  0.59866  1.0000
  C   C17       1.0  0.94784  0.67441  0.11435  1.0000
  C   C18       1.0  0.32559  0.05216  0.38565  1.0000
  C   C19       1.0  0.05216  0.32559  0.88565  1.0000
  C   C20       1.0  0.67441  0.94784  0.61435  1.0000
  C   C21       1.0  0.91072  0.79461  0.03181  1.0000
  C   C22       1.0  0.20539  0.08928  0.46819  1.0000
  C   C23       1.0  0.08928  0.20539  0.96819  1.0000
  C   C24       1.0  0.79461  0.91072  0.53181  1.0000
  C   C25       1.0  0.00942  0.80777  0.93461  1.0000
  C   C26       1.0  0.19223  0.99058  0.56539  1.0000
  C   C27       1.0  0.99058  0.19223  0.06539  1.0000
  C   C28       1.0  0.80777  0.00942  0.43461  1.0000
  C   C29       1.0  0.97821  0.93095  0.84125  1.0000
  C   C30       1.0  0.06905  0.02179  0.65875  1.0000
  C   C31       1.0  0.02179  0.06905  0.15875  1.0000
  C   C32       1.0  0.93095  0.97821  0.34125  1.0000
  C   C33       1.0  0.85438  0.05207  0.84401  1.0000
  C   C34       1.0  0.94793  0.14562  0.65599  1.0000
  C   C35       1.0  0.14562  0.94793  0.15598  1.0000
  C   C36       1.0  0.05207  0.85438  0.34401  1.0000
  C   C37       1.0  0.84036  0.15964  0.75000  1.0000
  C   C38       1.0  0.15964  0.84036  0.25000  1.0000
  N   N1        1.0  0.38506  0.84932  0.82460  1.0000
  N   N2        1.0  0.15068  0.61494  0.67540  1.0000
  N   N3        1.0  0.61494  0.15068  0.17540  1.0000
  N   N4        1.0  0.84932  0.38506  0.32460  1.0000
  N   N5        1.0  0.43403  0.29034  0.83200  1.0000
  N   N6        1.0  0.70966  0.56597  0.66800  1.0000
  N   N7        1.0  0.56597  0.70966  0.16800  1.0000
  N   N8        1.0  0.29034  0.43403  0.33200  1.0000
  N   N9        1.0  0.14002  0.70632  0.91950  1.0000
  N   N10       1.0  0.29368  0.85998  0.58050  1.0000
  N   N11       1.0  0.85998  0.29368  0.08050  1.0000
  N   N12       1.0  0.70632  0.14002  0.41950  1.0000
  N   N13       1.0  0.07998  0.92002  0.75000  1.0000
  N   N14       1.0  0.92002  0.07998  0.25000  1.0000
  O   O1        1.0  0.43996  0.56004  0.75000  1.0000
  O   O2        1.0  0.56004  0.43996  0.25000  1.0000
