data_image0
_chemical_formula_structural       Zn2H26Pt2C38N14O2
_chemical_formula_sum              "Zn2 H26 Pt2 C38 N14 O2"
_cell_length_a       9.73309
_cell_length_b       9.73308
_cell_length_c       11.504
_cell_angle_alpha    82.2898
_cell_angle_beta     82.2899
_cell_angle_gamma    72.2338

_space_group_name_H-M_alt    "P 1"
_space_group_IT_number       1

loop_
  _space_group_symop_operation_xyz
  'x, y, z'

loop_
  _atom_site_type_symbol
  _atom_site_label
  _atom_site_symmetry_multiplicity
  _atom_site_fract_x
  _atom_site_fract_y
  _atom_site_fract_z
  _atom_site_occupancy
  Zn  Zn1       1.0  0.73646  0.26354  0.75000  1.0000
  Zn  Zn2       1.0  0.26354  0.73646  0.25000  1.0000
  H   H1        1.0  0.51483  0.28111  0.98364  1.0000
  H   H2        1.0  0.71889  0.48517  0.51636  1.0000
  H   H3        1.0  0.48517  0.71889  0.01637  1.0000
  H   H4        1.0  0.28111  0.51483  0.48364  1.0000
  H   H5        1.0  0.47665  0.11479  0.16344  1.0000
  H   H6        1.0  0.88521  0.52335  0.33655  1.0000
  H   H7        1.0  0.52335  0.88521  0.83656  1.0000
  H   H8        1.0  0.11479  0.47665  0.66344  1.0000
  H   H9        1.0  0.65975  0.86903  0.19133  1.0000
  H   H10       1.0  0.13097  0.34024  0.30866  1.0000
  H   H11       1.0  0.34025  0.13097  0.80866  1.0000
  H   H12       1.0  0.86903  0.65976  0.69133  1.0000
  H   H13       1.0  0.87526  0.80452  0.04434  1.0000
  H   H14       1.0  0.19548  0.12474  0.45566  1.0000
  H   H15       1.0  0.12474  0.19548  0.95566  1.0000
  H   H16       1.0  0.80452  0.87526  0.54434  1.0000
  H   H17       1.0  0.06243  0.77077  0.91854  1.0000
  H   H18       1.0  0.22923  0.93757  0.58146  1.0000
  H   H19       1.0  0.93757  0.22923  0.08146  1.0000
  H   H20       1.0  0.77077  0.06243  0.41854  1.0000
  H   H21       1.0  0.25429  0.74571  0.75000  1.0000
  H   H22       1.0  0.74571  0.25429  0.25000  1.0000
  H   H23       1.0  0.45975  0.43537  0.77297  1.0000
  H   H24       1.0  0.56462  0.54025  0.72703  1.0000
  H   H25       1.0  0.54025  0.56462  0.22703  1.0000
  H   H26       1.0  0.43538  0.45975  0.27297  1.0000
  Pt  Pt1       1.0  0.50000  1.00000  0.50000  1.0000
  Pt  Pt2       1.0  1.00000  0.50000  1.00000  1.0000
  C   C1        1.0  0.56982  0.09410  0.61223  1.0000
  C   C2        1.0  0.90590  0.43018  0.88777  1.0000
  C   C3        1.0  0.43017  0.90590  0.38778  1.0000
  C   C4        1.0  0.09410  0.56982  0.11223  1.0000
  C   C5        1.0  0.45727  0.18385  0.39570  1.0000
  C   C6        1.0  0.81614  0.54274  0.10430  1.0000
  C   C7        1.0  0.54273  0.81614  0.60430  1.0000
  C   C8        1.0  0.18385  0.45727  0.89570  1.0000
  C   C9        1.0  0.59263  0.17471  0.00102  1.0000
  C   C10       1.0  0.82530  0.40737  0.49898  1.0000
  C   C11       1.0  0.40736  0.82530  0.99898  1.0000
  C   C12       1.0  0.17471  0.59263  0.50102  1.0000
  C   C13       1.0  0.57145  0.08141  0.10044  1.0000
  C   C14       1.0  0.91859  0.42854  0.39956  1.0000
  C   C15       1.0  0.42855  0.91859  0.89956  1.0000
  C   C16       1.0  0.08141  0.57145  0.60044  1.0000
  C   C17       1.0  0.67395  0.94629  0.11630  1.0000
  C   C18       1.0  0.05371  0.32605  0.38370  1.0000
  C   C19       1.0  0.32605  0.05371  0.88370  1.0000
  C   C20       1.0  0.94629  0.67395  0.61630  1.0000
  C   C21       1.0  0.79437  0.90978  0.03357  1.0000
  C   C22       1.0  0.09023  0.20563  0.46643  1.0000
  C   C23       1.0  0.20563  0.09023  0.96643  1.0000
  C   C24       1.0  0.90978  0.79437  0.53357  1.0000
  C   C25       1.0  0.80808  0.00858  0.93581  1.0000
  C   C26       1.0  0.99142  0.19192  0.56419  1.0000
  C   C27       1.0  0.19192  0.99142  0.06419  1.0000
  C   C28       1.0  0.00858  0.80808  0.43581  1.0000
  C   C29       1.0  0.93106  0.97793  0.84184  1.0000
  C   C30       1.0  0.02207  0.06894  0.65816  1.0000
  C   C31       1.0  0.06894  0.02207  0.15816  1.0000
  C   C32       1.0  0.97793  0.93106  0.34184  1.0000
  C   C33       1.0  0.05181  0.85455  0.84463  1.0000
  C   C34       1.0  0.14545  0.94818  0.65537  1.0000
  C   C35       1.0  0.94818  0.14545  0.15537  1.0000
  C   C36       1.0  0.85455  0.05181  0.34463  1.0000
  C   C37       1.0  0.15929  0.84071  0.75000  1.0000
  C   C38       1.0  0.84071  0.15929  0.25000  1.0000
  N   N1        1.0  0.61539  0.14931  0.67631  1.0000
  N   N2        1.0  0.85069  0.38461  0.82369  1.0000
  N   N3        1.0  0.38461  0.85069  0.32369  1.0000
  N   N4        1.0  0.14930  0.61539  0.17631  1.0000
  N   N5        1.0  0.43233  0.29168  0.33277  1.0000
  N   N6        1.0  0.70833  0.56767  0.16723  1.0000
  N   N7        1.0  0.56767  0.70833  0.66723  1.0000
  N   N8        1.0  0.29167  0.43233  0.83277  1.0000
  N   N9        1.0  0.70717  0.13895  0.92062  1.0000
  N   N10       1.0  0.86105  0.29283  0.57938  1.0000
  N   N11       1.0  0.29283  0.86105  0.07938  1.0000
  N   N12       1.0  0.13895  0.70717  0.42062  1.0000
  N   N13       1.0  0.92037  0.07963  0.75000  1.0000
  N   N14       1.0  0.07963  0.92037  0.25000  1.0000
  O   O1        1.0  0.56146  0.43854  0.75000  1.0000
  O   O2        1.0  0.43854  0.56146  0.25000  1.0000
