data_image0
_chemical_formula_structural       Na4H8C16N20O4
_chemical_formula_sum              "Na4 H8 C16 N20 O4"
_cell_length_a       3.68603
_cell_length_b       9.67247
_cell_length_c       20.3301
_cell_angle_alpha    90
_cell_angle_beta     90.0001
_cell_angle_gamma    96.7242

_space_group_name_H-M_alt    "P 1"
_space_group_IT_number       1

loop_
  _space_group_symop_operation_xyz
  'x, y, z'

loop_
  _atom_site_type_symbol
  _atom_site_label
  _atom_site_symmetry_multiplicity
  _atom_site_fract_x
  _atom_site_fract_y
  _atom_site_fract_z
  _atom_site_occupancy
  Na  Na1       1.0  0.16943  0.69650  0.87574  1.0000
  Na  Na2       1.0  0.83057  0.80350  0.37574  1.0000
  Na  Na3       1.0  0.83057  0.30350  0.12426  1.0000
  Na  Na4       1.0  0.16943  0.19650  0.62426  1.0000
  H   H1        1.0  0.70812  0.69168  0.76132  1.0000
  H   H2        1.0  0.29188  0.80832  0.26131  1.0000
  H   H3        1.0  0.29188  0.30832  0.23868  1.0000
  H   H4        1.0  0.70812  0.19168  0.73869  1.0000
  H   H5        1.0  0.67379  0.55211  0.80189  1.0000
  H   H6        1.0  0.32621  0.94789  0.30189  1.0000
  H   H7        1.0  0.32621  0.44789  0.19811  1.0000
  H   H8        1.0  0.67379  0.05211  0.69811  1.0000
  C   C1        1.0  0.11779  0.31294  0.91395  1.0000
  C   C2        1.0  0.88221  0.18706  0.41395  1.0000
  C   C3        1.0  0.88221  0.68706  0.08605  1.0000
  C   C4        1.0  0.11779  0.81295  0.58605  1.0000
  C   C5        1.0  0.02707  0.20320  0.86907  1.0000
  C   C6        1.0  0.97293  0.29680  0.36907  1.0000
  C   C7        1.0  0.97293  0.79680  0.13093  1.0000
  C   C8        1.0  0.02707  0.70320  0.63093  1.0000
  C   C9        1.0  0.27883  0.30957  0.97653  1.0000
  C   C10       1.0  0.72117  0.19043  0.47653  1.0000
  C   C11       1.0  0.72116  0.69043  0.02347  1.0000
  C   C12       1.0  0.27883  0.80957  0.52347  1.0000
  C   C13       1.0  0.08567  0.06224  0.87375  1.0000
  C   C14       1.0  0.91434  0.43776  0.37375  1.0000
  C   C15       1.0  0.91433  0.93775  0.12625  1.0000
  C   C16       1.0  0.08567  0.56225  0.62625  1.0000
  N   N1        1.0  0.87313  0.25861  0.81593  1.0000
  N   N2        1.0  0.12688  0.24139  0.31593  1.0000
  N   N3        1.0  0.12688  0.74140  0.18407  1.0000
  N   N4        1.0  0.87313  0.75861  0.68407  1.0000
  N   N5        1.0  0.87115  0.39372  0.82785  1.0000
  N   N6        1.0  0.12885  0.10628  0.32785  1.0000
  N   N7        1.0  0.12885  0.60628  0.17215  1.0000
  N   N8        1.0  0.87115  0.89372  0.67215  1.0000
  N   N9        1.0  0.01702  0.43050  0.88618  1.0000
  N   N10       1.0  0.98298  0.06950  0.38618  1.0000
  N   N11       1.0  0.98298  0.56950  0.11382  1.0000
  N   N12       1.0  0.01702  0.93050  0.61382  1.0000
  N   N13       1.0  0.14078  0.94631  0.87837  1.0000
  N   N14       1.0  0.85922  0.55368  0.37837  1.0000
  N   N15       1.0  0.85922  0.05369  0.12163  1.0000
  N   N16       1.0  0.14078  0.44632  0.62163  1.0000
  N   N17       1.0  0.41086  0.30418  0.02854  1.0000
  N   N18       1.0  0.58914  0.19582  0.52854  1.0000
  N   N19       1.0  0.58913  0.69582  0.97146  1.0000
  N   N20       1.0  0.41086  0.80418  0.47146  1.0000
  O   O1        1.0  0.63922  0.65198  0.80545  1.0000
  O   O2        1.0  0.36078  0.84802  0.30545  1.0000
  O   O3        1.0  0.36078  0.34802  0.19455  1.0000
  O   O4        1.0  0.63922  0.15198  0.69455  1.0000
