data_image0
_chemical_formula_structural       Cd6H28C40N16O16
_chemical_formula_sum              "Cd6 H28 C40 N16 O16"
_cell_length_a       9.96717
_cell_length_b       9.96712
_cell_length_c       13.1092
_cell_angle_alpha    76.2411
_cell_angle_beta     76.2409
_cell_angle_gamma    71.155

_space_group_name_H-M_alt    "P 1"
_space_group_IT_number       1

loop_
  _space_group_symop_operation_xyz
  'x, y, z'

loop_
  _atom_site_type_symbol
  _atom_site_label
  _atom_site_symmetry_multiplicity
  _atom_site_fract_x
  _atom_site_fract_y
  _atom_site_fract_z
  _atom_site_occupancy
  Cd  Cd1       1.0  0.63218  0.61692  0.96902  1.0000
  Cd  Cd2       1.0  0.38308  0.36782  0.53098  1.0000
  Cd  Cd3       1.0  0.36782  0.38308  0.03098  1.0000
  Cd  Cd4       1.0  0.61692  0.63218  0.46902  1.0000
  Cd  Cd5       1.0  0.50000  1.00000  0.00000  1.0000
  Cd  Cd6       1.0  1.00000  0.50000  0.50000  1.0000
  H   H1        1.0  0.43955  0.05348  0.23498  1.0000
  H   H2        1.0  0.94652  0.56045  0.26502  1.0000
  H   H3        1.0  0.56045  0.94652  0.76502  1.0000
  H   H4        1.0  0.05348  0.43955  0.73498  1.0000
  H   H5        1.0  0.49842  0.96016  0.35244  1.0000
  H   H6        1.0  0.03984  0.50158  0.14757  1.0000
  H   H7        1.0  0.50158  0.03984  0.64756  1.0000
  H   H8        1.0  0.96016  0.49842  0.85243  1.0000
  H   H9        1.0  0.11767  0.65205  0.94366  1.0000
  H   H10       1.0  0.34795  0.88232  0.55634  1.0000
  H   H11       1.0  0.88232  0.34795  0.05634  1.0000
  H   H12       1.0  0.65205  0.11767  0.44366  1.0000
  H   H13       1.0  0.24731  0.04274  0.86296  1.0000
  H   H14       1.0  0.95726  0.75269  0.63704  1.0000
  H   H15       1.0  0.75269  0.95726  0.13704  1.0000
  H   H16       1.0  0.04274  0.24731  0.36295  1.0000
  H   H17       1.0  0.99738  0.18624  0.83852  1.0000
  H   H18       1.0  0.81377  0.00262  0.66148  1.0000
  H   H19       1.0  0.00262  0.81377  0.16148  1.0000
  H   H20       1.0  0.18624  0.99737  0.33852  1.0000
  H   H21       1.0  0.80820  0.05918  0.86896  1.0000
  H   H22       1.0  0.94083  0.19180  0.63104  1.0000
  H   H23       1.0  0.19180  0.94083  0.13104  1.0000
  H   H24       1.0  0.05918  0.80820  0.36896  1.0000
  H   H25       1.0  0.64645  0.50017  0.24588  1.0000
  H   H26       1.0  0.49983  0.35355  0.25411  1.0000
  H   H27       1.0  0.35355  0.49983  0.75412  1.0000
  H   H28       1.0  0.50017  0.64645  0.74588  1.0000
  C   C1        1.0  0.95271  0.84852  0.90680  1.0000
  C   C2        1.0  0.15149  0.04729  0.59320  1.0000
  C   C3        1.0  0.04728  0.15149  0.09320  1.0000
  C   C4        1.0  0.84852  0.95271  0.40680  1.0000
  C   C5        1.0  0.09284  0.76857  0.92004  1.0000
  C   C6        1.0  0.23143  0.90716  0.57996  1.0000
  C   C7        1.0  0.90715  0.23143  0.07996  1.0000
  C   C8        1.0  0.76857  0.09284  0.42004  1.0000
  C   C9        1.0  0.19817  0.83906  0.90565  1.0000
  C   C10       1.0  0.16094  0.80183  0.59435  1.0000
  C   C11       1.0  0.80182  0.16095  0.09435  1.0000
  C   C12       1.0  0.83906  0.19817  0.40565  1.0000
  C   C13       1.0  0.16351  0.98950  0.87512  1.0000
  C   C14       1.0  0.01050  0.83649  0.62488  1.0000
  C   C15       1.0  0.83649  0.01050  0.12488  1.0000
  C   C16       1.0  0.98950  0.16351  0.37512  1.0000
  C   C17       1.0  0.02399  0.06931  0.86150  1.0000
  C   C18       1.0  0.93070  0.97601  0.63850  1.0000
  C   C19       1.0  0.97600  0.93070  0.13850  1.0000
  C   C20       1.0  0.06931  0.02399  0.36150  1.0000
  C   C21       1.0  0.91852  0.99885  0.87844  1.0000
  C   C22       1.0  0.00115  0.08148  0.62155  1.0000
  C   C23       1.0  0.08148  0.00115  0.12155  1.0000
  C   C24       1.0  0.99886  0.91852  0.37844  1.0000
  C   C25       1.0  0.83929  0.77417  0.92465  1.0000
  C   C26       1.0  0.22584  0.16070  0.57535  1.0000
  C   C27       1.0  0.16070  0.22584  0.07536  1.0000
  C   C28       1.0  0.77417  0.83929  0.42465  1.0000
  C   C29       1.0  0.34485  0.75684  0.92675  1.0000
  C   C30       1.0  0.24315  0.65515  0.57325  1.0000
  C   C31       1.0  0.65515  0.24316  0.07324  1.0000
  C   C32       1.0  0.75684  0.34485  0.42676  1.0000
  C   C33       1.0  0.51226  0.83744  0.24549  1.0000
  C   C34       1.0  0.16256  0.48774  0.25451  1.0000
  C   C35       1.0  0.48774  0.16256  0.75451  1.0000
  C   C36       1.0  0.83744  0.51226  0.74549  1.0000
  C   C37       1.0  0.60135  0.61591  0.22827  1.0000
  C   C38       1.0  0.38409  0.39865  0.27172  1.0000
  C   C39       1.0  0.39865  0.38409  0.77173  1.0000
  C   C40       1.0  0.61591  0.60135  0.72827  1.0000
  N   N1        1.0  0.57693  0.68719  0.13262  1.0000
  N   N2        1.0  0.31281  0.42306  0.36738  1.0000
  N   N3        1.0  0.42306  0.31281  0.86738  1.0000
  N   N4        1.0  0.68719  0.57694  0.63262  1.0000
  N   N5        1.0  0.51978  0.83098  0.14264  1.0000
  N   N6        1.0  0.16903  0.48021  0.35736  1.0000
  N   N7        1.0  0.48021  0.16902  0.85736  1.0000
  N   N8        1.0  0.83098  0.51978  0.64264  1.0000
  N   N9        1.0  0.56263  0.70333  0.30190  1.0000
  N   N10       1.0  0.29667  0.43737  0.19810  1.0000
  N   N11       1.0  0.43738  0.29667  0.69810  1.0000
  N   N12       1.0  0.70333  0.56263  0.80190  1.0000
  N   N13       1.0  0.45581  0.95989  0.28866  1.0000
  N   N14       1.0  0.04011  0.54419  0.21134  1.0000
  N   N15       1.0  0.54419  0.04011  0.71134  1.0000
  N   N16       1.0  0.95989  0.45580  0.78866  1.0000
  O   O1        1.0  0.71186  0.85025  0.91077  1.0000
  O   O2        1.0  0.14975  0.28813  0.58923  1.0000
  O   O3        1.0  0.28813  0.14975  0.08923  1.0000
  O   O4        1.0  0.85025  0.71186  0.41077  1.0000
  O   O5        1.0  0.87188  0.63748  0.95235  1.0000
  O   O6        1.0  0.36252  0.12812  0.54764  1.0000
  O   O7        1.0  0.12811  0.36252  0.04764  1.0000
  O   O8        1.0  0.63749  0.87188  0.45236  1.0000
  O   O9        1.0  0.43411  0.82623  0.92419  1.0000
  O   O10       1.0  0.17376  0.56590  0.57582  1.0000
  O   O11       1.0  0.56589  0.17376  0.07582  1.0000
  O   O12       1.0  0.82624  0.43411  0.42418  1.0000
  O   O13       1.0  0.38316  0.61913  0.94497  1.0000
  O   O14       1.0  0.38086  0.61684  0.55502  1.0000
  O   O15       1.0  0.61684  0.38086  0.05502  1.0000
  O   O16       1.0  0.61914  0.38316  0.44498  1.0000
