data_image0
_chemical_formula_structural       K2Mn2H6C6O12
_chemical_formula_sum              "K2 Mn2 H6 C6 O12"
_cell_length_a       6.96972
_cell_length_b       7.10053
_cell_length_c       7.10064
_cell_angle_alpha    80.4042
_cell_angle_beta     86.9524
_cell_angle_gamma    86.9494

_space_group_name_H-M_alt    "P 1"
_space_group_IT_number       1

loop_
  _space_group_symop_operation_xyz
  'x, y, z'

loop_
  _atom_site_type_symbol
  _atom_site_label
  _atom_site_symmetry_multiplicity
  _atom_site_fract_x
  _atom_site_fract_y
  _atom_site_fract_z
  _atom_site_occupancy
  K   K1        1.0  0.25000  0.59688  0.40312  1.0000
  K   K2        1.0  0.75000  0.40312  0.59688  1.0000
  Mn  Mn1       1.0  1.00000  0.50000  0.00000  1.0000
  Mn  Mn2       1.0  0.50000  0.00000  0.50000  1.0000
  H   H1        1.0  0.99969  0.06191  0.19542  1.0000
  H   H2        1.0  0.50031  0.80460  0.93811  1.0000
  H   H3        1.0  0.00031  0.93809  0.80458  1.0000
  H   H4        1.0  0.49969  0.19540  0.06190  1.0000
  H   H5        1.0  0.25001  0.11996  0.88004  1.0000
  H   H6        1.0  0.74999  0.88004  0.11995  1.0000
  C   C1        1.0  0.25002  0.24127  0.75874  1.0000
  C   C2        1.0  0.74998  0.75874  0.24125  1.0000
  C   C3        1.0  0.12820  0.11718  0.25023  1.0000
  C   C4        1.0  0.37181  0.74978  0.88282  1.0000
  C   C5        1.0  0.87180  0.88282  0.74977  1.0000
  C   C6        1.0  0.62820  0.25022  0.11718  1.0000
  O   O1        1.0  0.11535  0.36888  0.75718  1.0000
  O   O2        1.0  0.38466  0.24283  0.63110  1.0000
  O   O3        1.0  0.88465  0.63113  0.24282  1.0000
  O   O4        1.0  0.61534  0.75718  0.36890  1.0000
  O   O5        1.0  0.14908  0.29609  0.21377  1.0000
  O   O6        1.0  0.35093  0.78622  0.70391  1.0000
  O   O7        1.0  0.85091  0.70390  0.78624  1.0000
  O   O8        1.0  0.64907  0.21379  0.29609  1.0000
  O   O9        1.0  0.24092  0.99399  0.34277  1.0000
  O   O10       1.0  0.25907  0.65724  0.00599  1.0000
  O   O11       1.0  0.75908  0.00601  0.65724  1.0000
  O   O12       1.0  0.74093  0.34276  0.99400  1.0000
