data_image0
_chemical_formula_structural       Hg4H36C48Br8N8F4
_chemical_formula_sum              "Hg4 H36 C48 Br8 N8 F4"
_cell_length_a       4.03604
_cell_length_b       18.8336
_cell_length_c       18.8258
_cell_angle_alpha    105.162
_cell_angle_beta     90.7968
_cell_angle_gamma    94.8759

_space_group_name_H-M_alt    "P 1"
_space_group_IT_number       1

loop_
  _space_group_symop_operation_xyz
  'x, y, z'

loop_
  _atom_site_type_symbol
  _atom_site_label
  _atom_site_symmetry_multiplicity
  _atom_site_fract_x
  _atom_site_fract_y
  _atom_site_fract_z
  _atom_site_occupancy
  Hg  Hg1       1.0  0.18931  0.42298  0.55737  1.0000
  Hg  Hg2       1.0  0.81056  0.57703  0.44263  1.0000
  Hg  Hg3       1.0  0.16728  0.96992  0.60535  1.0000
  Hg  Hg4       1.0  0.83275  0.03009  0.39467  1.0000
  H   H1        1.0  0.33973  0.26255  0.57625  1.0000
  H   H2        1.0  0.66025  0.73747  0.42375  1.0000
  H   H3        1.0  0.29748  0.18169  0.66303  1.0000
  H   H4        1.0  0.70256  0.81832  0.33697  1.0000
  H   H5        1.0  0.80298  0.35140  0.81238  1.0000
  H   H6        1.0  0.19701  0.64860  0.18762  1.0000
  H   H7        1.0  0.86593  0.42596  0.71860  1.0000
  H   H8        1.0  0.13401  0.57404  0.28140  1.0000
  H   H9        1.0  0.17538  0.16743  0.78444  1.0000
  H   H10       1.0  0.82467  0.83258  0.21556  1.0000
  H   H11       1.0  0.57491  0.27156  0.97736  1.0000
  H   H12       1.0  0.42507  0.72845  0.02263  1.0000
  H   H13       1.0  0.50422  0.20187  0.07404  1.0000
  H   H14       1.0  0.49566  0.79813  0.92595  1.0000
  H   H15       1.0  0.92667  0.01708  0.92983  1.0000
  H   H16       1.0  0.07326  0.98292  0.07016  1.0000
  H   H17       1.0  0.00581  0.08685  0.83502  1.0000
  H   H18       1.0  0.99419  0.91316  0.16498  1.0000
  H   H19       1.0  0.50740  0.94171  0.75763  1.0000
  H   H20       1.0  0.49266  0.05828  0.24239  1.0000
  H   H21       1.0  0.59655  0.84025  0.81805  1.0000
  H   H22       1.0  0.40354  0.15972  0.18195  1.0000
  H   H23       1.0  0.92333  0.69596  0.65096  1.0000
  H   H24       1.0  0.07666  0.30405  0.34905  1.0000
  H   H25       1.0  0.87405  0.80179  0.59601  1.0000
  H   H26       1.0  0.12595  0.19822  0.40401  1.0000
  H   H27       1.0  0.14060  0.64625  0.74318  1.0000
  H   H28       1.0  0.85944  0.35373  0.25681  1.0000
  H   H29       1.0  0.87855  0.70339  0.93476  1.0000
  H   H30       1.0  0.12146  0.29660  0.06523  1.0000
  H   H31       1.0  0.96133  0.59976  0.99264  1.0000
  H   H32       1.0  0.03873  0.40024  0.00735  1.0000
  H   H33       1.0  0.39763  0.44837  0.81195  1.0000
  H   H34       1.0  0.60240  0.55162  0.18804  1.0000
  H   H35       1.0  0.30933  0.55043  0.75458  1.0000
  H   H36       1.0  0.69067  0.44957  0.24541  1.0000
  C   C1        1.0  0.22259  0.28007  0.62917  1.0000
  C   C2        1.0  0.77739  0.71994  0.37084  1.0000
  C   C3        1.0  0.19884  0.23555  0.67760  1.0000
  C   C4        1.0  0.80121  0.76446  0.32241  1.0000
  C   C5        1.0  0.04810  0.26088  0.74512  1.0000
  C   C6        1.0  0.95193  0.73913  0.25488  1.0000
  C   C7        1.0  0.92285  0.33050  0.76049  1.0000
  C   C8        1.0  0.07717  0.66951  0.23951  1.0000
  C   C9        1.0  0.95819  0.37151  0.70920  1.0000
  C   C10       1.0  0.04177  0.62850  0.29080  1.0000
  C   C11       1.0  0.02444  0.21492  0.79691  1.0000
  C   C12       1.0  0.97562  0.78509  0.20309  1.0000
  C   C13       1.0  0.80274  0.18546  0.90108  1.0000
  C   C14       1.0  0.19726  0.81455  0.09892  1.0000
  C   C15       1.0  0.65487  0.21612  0.96804  1.0000
  C   C16       1.0  0.34512  0.78389  0.03196  1.0000
  C   C17       1.0  0.61329  0.17751  0.02153  1.0000
  C   C18       1.0  0.38665  0.82250  0.97846  1.0000
  C   C19       1.0  0.71538  0.10671  0.00589  1.0000
  C   C20       1.0  0.28452  0.89329  0.99410  1.0000
  C   C21       1.0  0.85391  0.07306  0.93955  1.0000
  C   C22       1.0  0.14605  0.92695  0.06045  1.0000
  C   C23       1.0  0.89803  0.11280  0.88713  1.0000
  C   C24       1.0  0.10199  0.88721  0.11287  1.0000
  C   C25       1.0  0.38301  0.88616  0.73631  1.0000
  C   C26       1.0  0.61705  0.11383  0.26370  1.0000
  C   C27       1.0  0.43085  0.83003  0.76963  1.0000
  C   C28       1.0  0.56923  0.16996  0.23037  1.0000
  C   C29       1.0  0.26756  0.75936  0.73902  1.0000
  C   C30       1.0  0.73244  0.24062  0.26098  1.0000
  C   C31       1.0  0.05862  0.74942  0.67640  1.0000
  C   C32       1.0  0.94141  0.25057  0.32360  1.0000
  C   C33       1.0  0.02948  0.80825  0.64562  1.0000
  C   C34       1.0  0.97054  0.19175  0.35440  1.0000
  C   C35       1.0  0.31100  0.69572  0.76783  1.0000
  C   C36       1.0  0.68902  0.30426  0.23216  1.0000
  C   C37       1.0  0.57950  0.63509  0.84280  1.0000
  C   C38       1.0  0.42050  0.36490  0.15720  1.0000
  C   C39       1.0  0.76929  0.64747  0.90888  1.0000
  C   C40       1.0  0.23072  0.35253  0.09111  1.0000
  C   C41       1.0  0.81755  0.59037  0.94119  1.0000
  C   C42       1.0  0.18245  0.40962  0.05881  1.0000
  C   C43       1.0  0.67953  0.51991  0.90483  1.0000
  C   C44       1.0  0.32048  0.48008  0.09517  1.0000
  C   C45       1.0  0.49905  0.50477  0.83820  1.0000
  C   C46       1.0  0.50097  0.49522  0.16179  1.0000
  C   C47       1.0  0.44933  0.56240  0.80696  1.0000
  C   C48       1.0  0.55068  0.43759  0.19304  1.0000
  Br  Br1       1.0  0.55915  0.33861  0.47217  1.0000
  Br  Br2       1.0  0.44075  0.66141  0.52782  1.0000
  Br  Br3       1.0  0.84326  0.52692  0.62082  1.0000
  Br  Br4       1.0  0.15665  0.47309  0.37919  1.0000
  Br  Br5       1.0  0.72641  0.90381  0.50614  1.0000
  Br  Br6       1.0  0.27363  0.09619  0.49387  1.0000
  Br  Br7       1.0  0.60417  0.06216  0.68864  1.0000
  Br  Br8       1.0  0.39595  0.93785  0.31136  1.0000
  N   N1        1.0  0.10789  0.34705  0.64503  1.0000
  N   N2        1.0  0.89208  0.65295  0.35498  1.0000
  N   N3        1.0  0.83711  0.23056  0.85260  1.0000
  N   N4        1.0  0.16293  0.76945  0.14739  1.0000
  N   N5        1.0  0.18897  0.87530  0.67486  1.0000
  N   N6        1.0  0.81109  0.12470  0.32515  1.0000
  N   N7        1.0  0.53686  0.69771  0.81751  1.0000
  N   N8        1.0  0.46314  0.30228  0.18249  1.0000
  F   F1        1.0  0.67579  0.06803  0.05813  1.0000
  F   F2        1.0  0.32398  0.93196  0.94184  1.0000
  F   F3        1.0  0.72552  0.46227  0.93444  1.0000
  F   F4        1.0  0.27454  0.53771  0.06555  1.0000
