data_image0
_chemical_formula_structural       Hg4H36C48Br8N8Cl4
_chemical_formula_sum              "Hg4 H36 C48 Br8 N8 Cl4"
_cell_length_a       4.74195
_cell_length_b       16.4831
_cell_length_c       17.6132
_cell_angle_alpha    90.0001
_cell_angle_beta     90
_cell_angle_gamma    90.0002

_space_group_name_H-M_alt    "P 1"
_space_group_IT_number       1

loop_
  _space_group_symop_operation_xyz
  'x, y, z'

loop_
  _atom_site_type_symbol
  _atom_site_label
  _atom_site_symmetry_multiplicity
  _atom_site_fract_x
  _atom_site_fract_y
  _atom_site_fract_z
  _atom_site_occupancy
  Hg  Hg1       1.0  0.97534  0.14611  0.47483  1.0000
  Hg  Hg2       1.0  0.52466  0.85389  0.97483  1.0000
  Hg  Hg3       1.0  0.47534  0.35389  0.52517  1.0000
  Hg  Hg4       1.0  0.02466  0.64611  0.02517  1.0000
  H   H1        1.0  0.37276  0.99346  0.43789  1.0000
  H   H2        1.0  0.12723  0.00654  0.93789  1.0000
  H   H3        1.0  0.87277  0.50654  0.56211  1.0000
  H   H4        1.0  0.62723  0.49346  0.06211  1.0000
  H   H5        1.0  0.73583  0.90036  0.49327  1.0000
  H   H6        1.0  0.76417  0.09964  0.99327  1.0000
  H   H7        1.0  0.23584  0.59964  0.50673  1.0000
  H   H8        1.0  0.26417  0.40035  0.00673  1.0000
  H   H9        1.0  0.60457  0.01950  0.70907  1.0000
  H   H10       1.0  0.89543  0.98049  0.20908  1.0000
  H   H11       1.0  0.10456  0.48049  0.29093  1.0000
  H   H12       1.0  0.39543  0.51951  0.79093  1.0000
  H   H13       1.0  0.25420  0.10892  0.64435  1.0000
  H   H14       1.0  0.24580  0.89108  0.14435  1.0000
  H   H15       1.0  0.75419  0.39108  0.35565  1.0000
  H   H16       1.0  0.74580  0.60892  0.85565  1.0000
  H   H17       1.0  0.94130  0.90606  0.70275  1.0000
  H   H18       1.0  0.55870  0.09394  0.20275  1.0000
  H   H19       1.0  0.44130  0.59394  0.29726  1.0000
  H   H20       1.0  0.05869  0.40606  0.79725  1.0000
  H   H21       1.0  0.26883  0.83779  0.74743  1.0000
  H   H22       1.0  0.23118  0.16221  0.24743  1.0000
  H   H23       1.0  0.76882  0.66221  0.25257  1.0000
  H   H24       1.0  0.73117  0.33779  0.75257  1.0000
  H   H25       1.0  0.62949  0.74040  0.78755  1.0000
  H   H26       1.0  0.87051  0.25960  0.28755  1.0000
  H   H27       1.0  0.12949  0.75961  0.21245  1.0000
  H   H28       1.0  0.37050  0.24040  0.71245  1.0000
  H   H29       1.0  0.66111  0.64105  0.56075  1.0000
  H   H30       1.0  0.83889  0.35895  0.06075  1.0000
  H   H31       1.0  0.16111  0.85895  0.43925  1.0000
  H   H32       1.0  0.33888  0.14105  0.93925  1.0000
  H   H33       1.0  0.30144  0.74022  0.51966  1.0000
  H   H34       1.0  0.19856  0.25978  0.01966  1.0000
  H   H35       1.0  0.80144  0.75978  0.48034  1.0000
  H   H36       1.0  0.69856  0.24022  0.98034  1.0000
  C   C1        1.0  0.43152  0.99687  0.49771  1.0000
  C   C2        1.0  0.06848  0.00314  0.99771  1.0000
  C   C3        1.0  0.93152  0.50313  0.50229  1.0000
  C   C4        1.0  0.56848  0.49686  0.00229  1.0000
  C   C5        1.0  0.63239  0.94549  0.52857  1.0000
  C   C6        1.0  0.86761  0.05451  0.02857  1.0000
  C   C7        1.0  0.13239  0.55450  0.47143  1.0000
  C   C8        1.0  0.36761  0.44549  0.97143  1.0000
  C   C9        1.0  0.70226  0.95226  0.60585  1.0000
  C   C10       1.0  0.79774  0.04774  0.10585  1.0000
  C   C11       1.0  0.20226  0.54774  0.39415  1.0000
  C   C12       1.0  0.29773  0.45226  0.89415  1.0000
  C   C13       1.0  0.56200  0.01174  0.64864  1.0000
  C   C14       1.0  0.93801  0.98826  0.14864  1.0000
  C   C15       1.0  0.06199  0.48826  0.35136  1.0000
  C   C16       1.0  0.43801  0.51174  0.85136  1.0000
  C   C17       1.0  0.36571  0.06170  0.61311  1.0000
  C   C18       1.0  0.13429  0.93830  0.11311  1.0000
  C   C19       1.0  0.86571  0.43830  0.38689  1.0000
  C   C20       1.0  0.63429  0.56170  0.88689  1.0000
  C   C21       1.0  0.91272  0.89911  0.64095  1.0000
  C   C22       1.0  0.58728  0.10089  0.14095  1.0000
  C   C23       1.0  0.41272  0.60089  0.35905  1.0000
  C   C24       1.0  0.08727  0.39911  0.85905  1.0000
  C   C25       1.0  0.25260  0.79523  0.63009  1.0000
  C   C26       1.0  0.24741  0.20477  0.13009  1.0000
  C   C27       1.0  0.75260  0.70477  0.36991  1.0000
  C   C28       1.0  0.74739  0.29522  0.86991  1.0000
  C   C29       1.0  0.34899  0.79465  0.70580  1.0000
  C   C30       1.0  0.15103  0.20535  0.20580  1.0000
  C   C31       1.0  0.84899  0.70535  0.29420  1.0000
  C   C32       1.0  0.65101  0.29465  0.79420  1.0000
  C   C33       1.0  0.55347  0.73948  0.72917  1.0000
  C   C34       1.0  0.94653  0.26052  0.22916  1.0000
  C   C35       1.0  0.05347  0.76052  0.27084  1.0000
  C   C36       1.0  0.44652  0.23948  0.77083  1.0000
  C   C37       1.0  0.66189  0.68354  0.67704  1.0000
  C   C38       1.0  0.83812  0.31646  0.17704  1.0000
  C   C39       1.0  0.16189  0.81646  0.32296  1.0000
  C   C40       1.0  0.33811  0.18354  0.82296  1.0000
  C   C41       1.0  0.57260  0.68362  0.60156  1.0000
  C   C42       1.0  0.92740  0.31638  0.10156  1.0000
  C   C43       1.0  0.07260  0.81638  0.39844  1.0000
  C   C44       1.0  0.42739  0.18362  0.89844  1.0000
  C   C45       1.0  0.37035  0.73943  0.57867  1.0000
  C   C46       1.0  0.12965  0.26057  0.07867  1.0000
  C   C47       1.0  0.87034  0.76057  0.42133  1.0000
  C   C48       1.0  0.62965  0.23943  0.92133  1.0000
  Br  Br1       1.0  0.88324  0.06886  0.35413  1.0000
  Br  Br2       1.0  0.61676  0.93114  0.85413  1.0000
  Br  Br3       1.0  0.38324  0.43114  0.64587  1.0000
  Br  Br4       1.0  0.11676  0.56886  0.14587  1.0000
  Br  Br5       1.0  0.87136  0.23272  0.59207  1.0000
  Br  Br6       1.0  0.62865  0.76728  0.09207  1.0000
  Br  Br7       1.0  0.37136  0.26728  0.40793  1.0000
  Br  Br8       1.0  0.12864  0.73272  0.90793  1.0000
  N   N1        1.0  0.30179  0.05450  0.53917  1.0000
  N   N2        1.0  0.19821  0.94550  0.03917  1.0000
  N   N3        1.0  0.80179  0.44550  0.46083  1.0000
  N   N4        1.0  0.69821  0.55450  0.96083  1.0000
  N   N5        1.0  0.04941  0.84778  0.59989  1.0000
  N   N6        1.0  0.45060  0.15222  0.09989  1.0000
  N   N7        1.0  0.54940  0.65222  0.40011  1.0000
  N   N8        1.0  0.95060  0.34778  0.90011  1.0000
  Cl  Cl1       1.0  0.91314  0.61339  0.70499  1.0000
  Cl  Cl2       1.0  0.58687  0.38661  0.20499  1.0000
  Cl  Cl3       1.0  0.41314  0.88661  0.29501  1.0000
  Cl  Cl4       1.0  0.08686  0.11339  0.79501  1.0000
