data_image0
_chemical_formula_structural       Cu4H8C12S4N8
_chemical_formula_sum              "Cu4 H8 C12 S4 N8"
_cell_length_a       7.22932
_cell_length_b       7.23381
_cell_length_c       10.3485
_cell_angle_alpha    102.12
_cell_angle_beta     102.129
_cell_angle_gamma    113.503

_space_group_name_H-M_alt    "P 1"
_space_group_IT_number       1

loop_
  _space_group_symop_operation_xyz
  'x, y, z'

loop_
  _atom_site_type_symbol
  _atom_site_label
  _atom_site_symmetry_multiplicity
  _atom_site_fract_x
  _atom_site_fract_y
  _atom_site_fract_z
  _atom_site_occupancy
  Cu  Cu1       1.0  0.37907  0.51334  0.29440  1.0000
  Cu  Cu2       1.0  0.21903  0.08450  0.70555  1.0000
  Cu  Cu3       1.0  0.33455  0.96900  0.20564  1.0000
  Cu  Cu4       1.0  0.76337  0.12899  0.79456  1.0000
  H   H1        1.0  0.21502  0.21489  0.99979  1.0000
  H   H2        1.0  0.46499  0.96499  0.50010  1.0000
  H   H3        1.0  0.74347  0.80421  0.22242  1.0000
  H   H4        1.0  0.58166  0.52109  0.77711  1.0000
  H   H5        1.0  0.77103  0.33170  0.27753  1.0000
  H   H6        1.0  0.05422  0.49377  0.72283  1.0000
  H   H7        1.0  0.82732  0.82743  0.99984  1.0000
  H   H8        1.0  0.07732  0.57745  0.50019  1.0000
  C   C1        1.0  0.35209  0.35200  0.99981  1.0000
  C   C2        1.0  0.60206  0.10209  0.50014  1.0000
  C   C3        1.0  0.64475  0.67781  0.12242  1.0000
  C   C4        1.0  0.55522  0.52223  0.87709  1.0000
  C   C5        1.0  0.77217  0.30526  0.37752  1.0000
  C   C6        1.0  0.92786  0.39495  0.62286  1.0000
  C   C7        1.0  0.69023  0.69034  0.99979  1.0000
  C   C8        1.0  0.94030  0.44034  0.50016  1.0000
  C   C9        1.0  0.17163  0.14177  0.41718  1.0000
  C   C10       1.0  0.72451  0.75431  0.58283  1.0000
  C   C11       1.0  0.00440  0.47457  0.08281  1.0000
  C   C12       1.0  0.39189  0.92159  0.91728  1.0000
  S   S1        1.0  0.14377  0.16056  0.25935  1.0000
  S   S2        1.0  0.90123  0.88449  0.74064  1.0000
  S   S3        1.0  0.13446  0.65121  0.24060  1.0000
  S   S4        1.0  0.41055  0.89376  0.75944  1.0000
  N   N1        1.0  0.47469  0.50722  0.12283  1.0000
  N   N2        1.0  0.38433  0.35178  0.87680  1.0000
  N   N3        1.0  0.60178  0.13430  0.37714  1.0000
  N   N4        1.0  0.75730  0.22477  0.62318  1.0000
  N   N5        1.0  0.19152  0.12278  0.52922  1.0000
  N   N6        1.0  0.59363  0.66205  0.47075  1.0000
  N   N7        1.0  0.91213  0.34360  0.97080  1.0000
  N   N8        1.0  0.37325  0.94164  0.02942  1.0000
