data_image0
_chemical_formula_structural       Hg4H36C48I4Br8N8
_chemical_formula_sum              "Hg4 H36 C48 I4 Br8 N8"
_cell_length_a       4.11206
_cell_length_b       15.5854
_cell_length_c       22.9883
_cell_angle_alpha    89.9995
_cell_angle_beta     90
_cell_angle_gamma    94.7935

_space_group_name_H-M_alt    "P 1"
_space_group_IT_number       1

loop_
  _space_group_symop_operation_xyz
  'x, y, z'

loop_
  _atom_site_type_symbol
  _atom_site_label
  _atom_site_symmetry_multiplicity
  _atom_site_fract_x
  _atom_site_fract_y
  _atom_site_fract_z
  _atom_site_occupancy
  Hg  Hg1       1.0  0.22896  0.20197  0.75840  1.0000
  Hg  Hg2       1.0  0.77103  0.29802  0.25840  1.0000
  Hg  Hg3       1.0  0.77106  0.79803  0.24160  1.0000
  Hg  Hg4       1.0  0.22898  0.70198  0.74160  1.0000
  H   H1        1.0  0.95897  0.99686  0.75011  1.0000
  H   H2        1.0  0.04105  0.50313  0.25011  1.0000
  H   H3        1.0  0.04104  0.00315  0.24989  1.0000
  H   H4        1.0  0.95895  0.49687  0.74989  1.0000
  H   H5        1.0  0.99404  0.86707  0.68799  1.0000
  H   H6        1.0  0.00598  0.63293  0.18799  1.0000
  H   H7        1.0  0.00596  0.13293  0.31201  1.0000
  H   H8        1.0  0.99403  0.36707  0.81200  1.0000
  H   H9        1.0  0.61535  0.02312  0.57065  1.0000
  H   H10       1.0  0.38466  0.47688  0.07065  1.0000
  H   H11       1.0  0.38463  0.97688  0.42935  1.0000
  H   H12       1.0  0.61538  0.52312  0.92935  1.0000
  H   H13       1.0  0.54745  0.14880  0.63749  1.0000
  H   H14       1.0  0.45255  0.35120  0.13749  1.0000
  H   H15       1.0  0.45254  0.85120  0.36251  1.0000
  H   H16       1.0  0.54747  0.64880  0.86250  1.0000
  H   H17       1.0  0.19876  0.79963  0.60189  1.0000
  H   H18       1.0  0.80126  0.70036  0.10189  1.0000
  H   H19       1.0  0.80123  0.20036  0.39811  1.0000
  H   H20       1.0  0.19875  0.29964  0.89811  1.0000
  H   H21       1.0  0.92746  0.86368  0.45768  1.0000
  H   H22       1.0  0.07257  0.63632  0.95768  1.0000
  H   H23       1.0  0.07252  0.13633  0.54232  1.0000
  H   H24       1.0  0.92743  0.36368  0.04232  1.0000
  H   H25       1.0  0.06273  0.73968  0.39515  1.0000
  H   H26       1.0  0.93728  0.76032  0.89515  1.0000
  H   H27       1.0  0.93726  0.26033  0.60484  1.0000
  H   H28       1.0  0.06272  0.23968  0.10484  1.0000
  H   H29       1.0  0.48269  0.56751  0.50903  1.0000
  H   H30       1.0  0.51730  0.93248  0.00903  1.0000
  H   H31       1.0  0.51733  0.43249  0.49097  1.0000
  H   H32       1.0  0.48269  0.06752  0.99097  1.0000
  H   H33       1.0  0.34089  0.68839  0.56809  1.0000
  H   H34       1.0  0.65912  0.81161  0.06809  1.0000
  H   H35       1.0  0.65913  0.31161  0.43191  1.0000
  H   H36       1.0  0.34087  0.18839  0.93191  1.0000
  C   C1        1.0  0.10185  0.00019  0.70999  1.0000
  C   C2        1.0  0.89816  0.49980  0.20999  1.0000
  C   C3        1.0  0.89816  0.99981  0.29002  1.0000
  C   C4        1.0  0.10184  0.50020  0.79001  1.0000
  C   C5        1.0  0.12395  0.92799  0.67519  1.0000
  C   C6        1.0  0.87606  0.57200  0.17519  1.0000
  C   C7        1.0  0.87604  0.07201  0.32482  1.0000
  C   C8        1.0  0.12395  0.42799  0.82481  1.0000
  C   C9        1.0  0.31473  0.93444  0.62450  1.0000
  C   C10       1.0  0.68529  0.56555  0.12450  1.0000
  C   C11       1.0  0.68525  0.06556  0.37550  1.0000
  C   C12       1.0  0.31472  0.43445  0.87550  1.0000
  C   C13       1.0  0.46920  0.01557  0.61013  1.0000
  C   C14       1.0  0.53081  0.48443  0.11013  1.0000
  C   C15       1.0  0.53079  0.98443  0.38987  1.0000
  C   C16       1.0  0.46920  0.51557  0.88986  1.0000
  C   C17       1.0  0.43208  0.08464  0.64679  1.0000
  C   C18       1.0  0.56792  0.41536  0.14679  1.0000
  C   C19       1.0  0.56791  0.91536  0.35321  1.0000
  C   C20       1.0  0.43209  0.58464  0.85321  1.0000
  C   C21       1.0  0.35506  0.85770  0.58956  1.0000
  C   C22       1.0  0.64497  0.64230  0.08956  1.0000
  C   C23       1.0  0.64494  0.14230  0.41044  1.0000
  C   C24       1.0  0.35505  0.35770  0.91044  1.0000
  C   C25       1.0  0.62392  0.78579  0.51646  1.0000
  C   C26       1.0  0.37609  0.71421  0.01646  1.0000
  C   C27       1.0  0.37607  0.21421  0.48354  1.0000
  C   C28       1.0  0.62391  0.28579  0.98354  1.0000
  C   C29       1.0  0.82820  0.79825  0.46753  1.0000
  C   C30       1.0  0.17182  0.70175  0.96753  1.0000
  C   C31       1.0  0.17179  0.20176  0.53247  1.0000
  C   C32       1.0  0.82818  0.29825  0.03247  1.0000
  C   C33       1.0  0.90375  0.72941  0.43288  1.0000
  C   C34       1.0  0.09623  0.77058  0.93288  1.0000
  C   C35       1.0  0.09623  0.27059  0.56712  1.0000
  C   C36       1.0  0.90376  0.22941  0.06712  1.0000
  C   C37       1.0  0.78010  0.64612  0.44804  1.0000
  C   C38       1.0  0.21990  0.85387  0.94804  1.0000
  C   C39       1.0  0.21990  0.35388  0.55196  1.0000
  C   C40       1.0  0.78010  0.14613  0.05196  1.0000
  C   C41       1.0  0.57903  0.63219  0.49686  1.0000
  C   C42       1.0  0.42096  0.86780  0.99686  1.0000
  C   C43       1.0  0.42098  0.36781  0.50314  1.0000
  C   C44       1.0  0.57903  0.13219  0.00314  1.0000
  C   C45       1.0  0.49976  0.70132  0.53057  1.0000
  C   C46       1.0  0.50025  0.79868  0.03057  1.0000
  C   C47       1.0  0.50025  0.29868  0.46943  1.0000
  C   C48       1.0  0.49975  0.20132  0.96943  1.0000
  I   I1        1.0  0.90991  0.53943  0.39990  1.0000
  I   I2        1.0  0.09007  0.96057  0.89991  1.0000
  I   I3        1.0  0.09008  0.46058  0.60009  1.0000
  I   I4        1.0  0.90992  0.03943  0.10009  1.0000
  Br  Br1       1.0  0.82196  0.14590  0.83509  1.0000
  Br  Br2       1.0  0.17801  0.35409  0.33509  1.0000
  Br  Br3       1.0  0.17802  0.85409  0.16490  1.0000
  Br  Br4       1.0  0.82197  0.64591  0.66491  1.0000
  Br  Br5       1.0  0.62607  0.30877  0.70746  1.0000
  Br  Br6       1.0  0.37394  0.19122  0.20746  1.0000
  Br  Br7       1.0  0.37391  0.69124  0.29254  1.0000
  Br  Br8       1.0  0.62607  0.80878  0.79254  1.0000
  N   N1        1.0  0.25368  0.07714  0.69602  1.0000
  N   N2        1.0  0.74633  0.42285  0.19602  1.0000
  N   N3        1.0  0.74633  0.92286  0.30398  1.0000
  N   N4        1.0  0.25367  0.57715  0.80397  1.0000
  N   N5        1.0  0.56744  0.85968  0.54823  1.0000
  N   N6        1.0  0.43257  0.64032  0.04824  1.0000
  N   N7        1.0  0.43254  0.14032  0.45177  1.0000
  N   N8        1.0  0.56744  0.35968  0.95176  1.0000
