data_image0
_chemical_formula_structural       Hg4H36C48I8N8Cl4
_chemical_formula_sum              "Hg4 H36 C48 I8 N8 Cl4"
_cell_length_a       4.80418
_cell_length_b       16.9527
_cell_length_c       18.1245
_cell_angle_alpha    89.9996
_cell_angle_beta     90.0005
_cell_angle_gamma    90

_space_group_name_H-M_alt    "P 1"
_space_group_IT_number       1

loop_
  _space_group_symop_operation_xyz
  'x, y, z'

loop_
  _atom_site_type_symbol
  _atom_site_label
  _atom_site_symmetry_multiplicity
  _atom_site_fract_x
  _atom_site_fract_y
  _atom_site_fract_z
  _atom_site_occupancy
  Hg  Hg1       1.0  0.00173  0.85864  0.52233  1.0000
  Hg  Hg2       1.0  0.49827  0.14136  0.02233  1.0000
  Hg  Hg3       1.0  0.50172  0.64136  0.47767  1.0000
  Hg  Hg4       1.0  0.99826  0.35864  0.97767  1.0000
  H   H1        1.0  0.63281  0.01282  0.55759  1.0000
  H   H2        1.0  0.86720  0.98718  0.05759  1.0000
  H   H3        1.0  0.13281  0.48717  0.44241  1.0000
  H   H4        1.0  0.36720  0.51283  0.94241  1.0000
  H   H5        1.0  0.27375  0.10438  0.50535  1.0000
  H   H6        1.0  0.22625  0.89562  0.00535  1.0000
  H   H7        1.0  0.77376  0.39561  0.49465  1.0000
  H   H8        1.0  0.72626  0.60439  0.99465  1.0000
  H   H9        1.0  0.37679  0.98553  0.29617  1.0000
  H   H10       1.0  0.12324  0.01448  0.79617  1.0000
  H   H11       1.0  0.87676  0.51448  0.70383  1.0000
  H   H12       1.0  0.62322  0.48552  0.20383  1.0000
  H   H13       1.0  0.72533  0.89799  0.35716  1.0000
  H   H14       1.0  0.77470  0.10201  0.85716  1.0000
  H   H15       1.0  0.22530  0.60201  0.64284  1.0000
  H   H16       1.0  0.27468  0.39799  0.14284  1.0000
  H   H17       1.0  0.05574  0.09740  0.30289  1.0000
  H   H18       1.0  0.44426  0.90260  0.80289  1.0000
  H   H19       1.0  0.55573  0.40260  0.69711  1.0000
  H   H20       1.0  0.94426  0.59740  0.19711  1.0000
  H   H21       1.0  0.73291  0.16108  0.25983  1.0000
  H   H22       1.0  0.76708  0.83892  0.75983  1.0000
  H   H23       1.0  0.23291  0.33892  0.74017  1.0000
  H   H24       1.0  0.26709  0.66108  0.24017  1.0000
  H   H25       1.0  0.37745  0.25541  0.21916  1.0000
  H   H26       1.0  0.12254  0.74460  0.71916  1.0000
  H   H27       1.0  0.87745  0.24459  0.78084  1.0000
  H   H28       1.0  0.62254  0.75540  0.28084  1.0000
  H   H29       1.0  0.34586  0.35584  0.43801  1.0000
  H   H30       1.0  0.15414  0.64415  0.93801  1.0000
  H   H31       1.0  0.84586  0.14415  0.56199  1.0000
  H   H32       1.0  0.65413  0.85584  0.06199  1.0000
  H   H33       1.0  0.70058  0.25974  0.47962  1.0000
  H   H34       1.0  0.79942  0.74026  0.97961  1.0000
  H   H35       1.0  0.20057  0.24026  0.52038  1.0000
  H   H36       1.0  0.29943  0.75974  0.02039  1.0000
  C   C1        1.0  0.56899  0.00912  0.49987  1.0000
  C   C2        1.0  0.93102  0.99088  0.99987  1.0000
  C   C3        1.0  0.06898  0.49088  0.50013  1.0000
  C   C4        1.0  0.43102  0.50913  0.00013  1.0000
  C   C5        1.0  0.37052  0.05968  0.47083  1.0000
  C   C6        1.0  0.12949  0.94031  0.97082  1.0000
  C   C7        1.0  0.87052  0.44031  0.52918  1.0000
  C   C8        1.0  0.62949  0.55969  0.02917  1.0000
  C   C9        1.0  0.29418  0.05247  0.39636  1.0000
  C   C10       1.0  0.20583  0.94753  0.89636  1.0000
  C   C11       1.0  0.79417  0.44753  0.60364  1.0000
  C   C12       1.0  0.70582  0.55247  0.10364  1.0000
  C   C13       1.0  0.42623  0.99373  0.35439  1.0000
  C   C14       1.0  0.07379  0.00627  0.85439  1.0000
  C   C15       1.0  0.92621  0.50627  0.64561  1.0000
  C   C16       1.0  0.57378  0.49373  0.14561  1.0000
  C   C17       1.0  0.62106  0.94478  0.38797  1.0000
  C   C18       1.0  0.87896  0.05523  0.88797  1.0000
  C   C19       1.0  0.12104  0.55523  0.61203  1.0000
  C   C20       1.0  0.37894  0.44477  0.11203  1.0000
  C   C21       1.0  0.08555  0.10419  0.36289  1.0000
  C   C22       1.0  0.41446  0.89581  0.86289  1.0000
  C   C23       1.0  0.58553  0.39581  0.63711  1.0000
  C   C24       1.0  0.91446  0.60419  0.13711  1.0000
  C   C25       1.0  0.74953  0.20475  0.37305  1.0000
  C   C26       1.0  0.75047  0.79525  0.87306  1.0000
  C   C27       1.0  0.24953  0.29525  0.62695  1.0000
  C   C28       1.0  0.25047  0.70475  0.12695  1.0000
  C   C29       1.0  0.65393  0.20391  0.29954  1.0000
  C   C30       1.0  0.84607  0.79609  0.79954  1.0000
  C   C31       1.0  0.15393  0.29609  0.70046  1.0000
  C   C32       1.0  0.34608  0.70391  0.20046  1.0000
  C   C33       1.0  0.45263  0.25718  0.27588  1.0000
  C   C34       1.0  0.04736  0.74282  0.77588  1.0000
  C   C35       1.0  0.95263  0.24282  0.72412  1.0000
  C   C36       1.0  0.54737  0.75718  0.22412  1.0000
  C   C37       1.0  0.34611  0.31265  0.32558  1.0000
  C   C38       1.0  0.15388  0.68735  0.82558  1.0000
  C   C39       1.0  0.84611  0.18735  0.67442  1.0000
  C   C40       1.0  0.65389  0.81265  0.17442  1.0000
  C   C41       1.0  0.43353  0.31375  0.39901  1.0000
  C   C42       1.0  0.06647  0.68625  0.89901  1.0000
  C   C43       1.0  0.93352  0.18625  0.60099  1.0000
  C   C44       1.0  0.56648  0.81375  0.10099  1.0000
  C   C45       1.0  0.63285  0.25974  0.42222  1.0000
  C   C46       1.0  0.86715  0.74025  0.92222  1.0000
  C   C47       1.0  0.13284  0.24026  0.57778  1.0000
  C   C48       1.0  0.36715  0.75974  0.07778  1.0000
  I   I1        1.0  0.11501  0.93856  0.64718  1.0000
  I   I2        1.0  0.38500  0.06144  0.14718  1.0000
  I   I3        1.0  0.61501  0.56144  0.35282  1.0000
  I   I4        1.0  0.88498  0.43856  0.85282  1.0000
  I   I5        1.0  0.12920  0.77015  0.40164  1.0000
  I   I6        1.0  0.37078  0.22985  0.90163  1.0000
  I   I7        1.0  0.62920  0.72985  0.59836  1.0000
  I   I8        1.0  0.87080  0.27015  0.09836  1.0000
  N   N1        1.0  0.69064  0.95216  0.45938  1.0000
  N   N2        1.0  0.80938  0.04784  0.95938  1.0000
  N   N3        1.0  0.19062  0.54784  0.54062  1.0000
  N   N4        1.0  0.30937  0.45216  0.04062  1.0000
  N   N5        1.0  0.95086  0.15415  0.40286  1.0000
  N   N6        1.0  0.54915  0.84585  0.90286  1.0000
  N   N7        1.0  0.45085  0.34585  0.59714  1.0000
  N   N8        1.0  0.04915  0.65415  0.09714  1.0000
  Cl  Cl1       1.0  0.09983  0.38043  0.29652  1.0000
  Cl  Cl2       1.0  0.40016  0.61957  0.79652  1.0000
  Cl  Cl3       1.0  0.59984  0.11957  0.70348  1.0000
  Cl  Cl4       1.0  0.90016  0.88043  0.20348  1.0000
