data_image0
_chemical_formula_structural       Hg4H36C48I12N8
_chemical_formula_sum              "Hg4 H36 C48 I12 N8"
_cell_length_a       4.33973
_cell_length_b       15.54
_cell_length_c       23.3762
_cell_angle_alpha    90.0005
_cell_angle_beta     89.9998
_cell_angle_gamma    95.7847

_space_group_name_H-M_alt    "P 1"
_space_group_IT_number       1

loop_
  _space_group_symop_operation_xyz
  'x, y, z'

loop_
  _atom_site_type_symbol
  _atom_site_label
  _atom_site_symmetry_multiplicity
  _atom_site_fract_x
  _atom_site_fract_y
  _atom_site_fract_z
  _atom_site_occupancy
  Hg  Hg1       1.0  0.29309  0.79694  0.74549  1.0000
  Hg  Hg2       1.0  0.70692  0.70306  0.24549  1.0000
  Hg  Hg3       1.0  0.70692  0.20306  0.25451  1.0000
  Hg  Hg4       1.0  0.29309  0.29694  0.75450  1.0000
  H   H1        1.0  0.56552  0.00246  0.75972  1.0000
  H   H2        1.0  0.43449  0.49755  0.25972  1.0000
  H   H3        1.0  0.43448  0.99755  0.24028  1.0000
  H   H4        1.0  0.56553  0.50245  0.74028  1.0000
  H   H5        1.0  0.51595  0.13292  0.81982  1.0000
  H   H6        1.0  0.48404  0.36708  0.31982  1.0000
  H   H7        1.0  0.48407  0.86708  0.18018  1.0000
  H   H8        1.0  0.51597  0.63292  0.68018  1.0000
  H   H9        1.0  0.88657  0.97426  0.92889  1.0000
  H   H10       1.0  0.11343  0.52574  0.42889  1.0000
  H   H11       1.0  0.11344  0.02574  0.07112  1.0000
  H   H12       1.0  0.88657  0.47426  0.57111  1.0000
  H   H13       1.0  0.96701  0.84847  0.86412  1.0000
  H   H14       1.0  0.03302  0.65153  0.36413  1.0000
  H   H15       1.0  0.03298  0.15153  0.13587  1.0000
  H   H16       1.0  0.96700  0.34847  0.63587  1.0000
  H   H17       1.0  0.29295  0.20007  0.90086  1.0000
  H   H18       1.0  0.70703  0.29993  0.40085  1.0000
  H   H19       1.0  0.70707  0.79993  0.09915  1.0000
  H   H20       1.0  0.29296  0.70006  0.59914  1.0000
  H   H21       1.0  0.56211  0.13375  0.03667  1.0000
  H   H22       1.0  0.43788  0.36625  0.53666  1.0000
  H   H23       1.0  0.43789  0.86626  0.96333  1.0000
  H   H24       1.0  0.56210  0.63375  0.46333  1.0000
  H   H25       1.0  0.41359  0.25827  0.09531  1.0000
  H   H26       1.0  0.58639  0.24173  0.59531  1.0000
  H   H27       1.0  0.58640  0.74173  0.90468  1.0000
  H   H28       1.0  0.41359  0.75827  0.40469  1.0000
  H   H29       1.0  0.01660  0.43173  0.99062  1.0000
  H   H30       1.0  0.98335  0.06827  0.49063  1.0000
  H   H31       1.0  0.98341  0.56828  0.00938  1.0000
  H   H32       1.0  0.01663  0.93172  0.50938  1.0000
  H   H33       1.0  0.17085  0.31024  0.93565  1.0000
  H   H34       1.0  0.82907  0.18976  0.43565  1.0000
  H   H35       1.0  0.82913  0.68976  0.06435  1.0000
  H   H36       1.0  0.17092  0.81024  0.56435  1.0000
  C   C1        1.0  0.41745  0.99880  0.79762  1.0000
  C   C2        1.0  0.58255  0.50121  0.29762  1.0000
  C   C3        1.0  0.58255  0.00121  0.20238  1.0000
  C   C4        1.0  0.41746  0.49879  0.70238  1.0000
  C   C5        1.0  0.38807  0.07127  0.83126  1.0000
  C   C6        1.0  0.61192  0.42873  0.33126  1.0000
  C   C7        1.0  0.61195  0.92873  0.16875  1.0000
  C   C8        1.0  0.38807  0.57127  0.66874  1.0000
  C   C9        1.0  0.19131  0.06414  0.87903  1.0000
  C   C10       1.0  0.80868  0.43586  0.37903  1.0000
  C   C11       1.0  0.80870  0.93586  0.12097  1.0000
  C   C12       1.0  0.19132  0.56413  0.62097  1.0000
  C   C13       1.0  0.03767  0.98228  0.89166  1.0000
  C   C14       1.0  0.96233  0.51772  0.39166  1.0000
  C   C15       1.0  0.96234  0.01772  0.10835  1.0000
  C   C16       1.0  0.03766  0.48228  0.60834  1.0000
  C   C17       1.0  0.08178  0.91317  0.85616  1.0000
  C   C18       1.0  0.91823  0.58683  0.35616  1.0000
  C   C19       1.0  0.91822  0.08683  0.14384  1.0000
  C   C20       1.0  0.08178  0.41317  0.64384  1.0000
  C   C21       1.0  0.14438  0.14101  0.91265  1.0000
  C   C22       1.0  0.85560  0.35899  0.41265  1.0000
  C   C23       1.0  0.85564  0.85899  0.08735  1.0000
  C   C24       1.0  0.14438  0.64100  0.58735  1.0000
  C   C25       1.0  0.87515  0.21220  0.98246  1.0000
  C   C26       1.0  0.12483  0.28780  0.48245  1.0000
  C   C27       1.0  0.12486  0.78780  0.01754  1.0000
  C   C28       1.0  0.87516  0.71220  0.51754  1.0000
  C   C29       1.0  0.66195  0.19959  0.02782  1.0000
  C   C30       1.0  0.33804  0.30041  0.52781  1.0000
  C   C31       1.0  0.33805  0.80041  0.97218  1.0000
  C   C32       1.0  0.66195  0.69959  0.47218  1.0000
  C   C33       1.0  0.57902  0.26882  0.06028  1.0000
  C   C34       1.0  0.42096  0.23118  0.56027  1.0000
  C   C35       1.0  0.42097  0.73118  0.93972  1.0000
  C   C36       1.0  0.57903  0.76882  0.43972  1.0000
  C   C37       1.0  0.70588  0.35256  0.04656  1.0000
  C   C38       1.0  0.29408  0.14744  0.54656  1.0000
  C   C39       1.0  0.29411  0.64744  0.95344  1.0000
  C   C40       1.0  0.70591  0.85256  0.45344  1.0000
  C   C41       1.0  0.91740  0.36668  0.00157  1.0000
  C   C42       1.0  0.08256  0.13332  0.50157  1.0000
  C   C43       1.0  0.08259  0.63332  0.99843  1.0000
  C   C44       1.0  0.91743  0.86668  0.49843  1.0000
  C   C45       1.0  0.00307  0.29720  0.97006  1.0000
  C   C46       1.0  0.99688  0.20280  0.47006  1.0000
  C   C47       1.0  0.99693  0.70281  0.02994  1.0000
  C   C48       1.0  0.00310  0.79719  0.52994  1.0000
  I   I1        1.0  0.70684  0.86156  0.66627  1.0000
  I   I2        1.0  0.29318  0.63844  0.16627  1.0000
  I   I3        1.0  0.29318  0.13844  0.33373  1.0000
  I   I4        1.0  0.70683  0.36156  0.83373  1.0000
  I   I5        1.0  0.90289  0.67689  0.79734  1.0000
  I   I6        1.0  0.09715  0.82311  0.29734  1.0000
  I   I7        1.0  0.09714  0.32311  0.20266  1.0000
  I   I8        1.0  0.90286  0.17689  0.70266  1.0000
  I   I9        1.0  0.57294  0.45988  0.09198  1.0000
  I   I10       1.0  0.42704  0.04012  0.59198  1.0000
  I   I11       1.0  0.42706  0.54012  0.90802  1.0000
  I   I12       1.0  0.57295  0.95988  0.40803  1.0000
  N   N1        1.0  0.26654  0.92124  0.80973  1.0000
  N   N2        1.0  0.73347  0.57877  0.30973  1.0000
  N   N3        1.0  0.73346  0.07877  0.19027  1.0000
  N   N4        1.0  0.26653  0.42124  0.69027  1.0000
  N   N5        1.0  0.93592  0.13811  0.95208  1.0000
  N   N6        1.0  0.06405  0.36189  0.45208  1.0000
  N   N7        1.0  0.06409  0.86189  0.04792  1.0000
  N   N8        1.0  0.93593  0.63811  0.54792  1.0000
