data_image0
_chemical_formula_structural       Hg4H36C48I8N8F4
_chemical_formula_sum              "Hg4 H36 C48 I8 N8 F4"
_cell_length_a       4.29795
_cell_length_b       18.8856
_cell_length_c       18.5234
_cell_angle_alpha    89.2428
_cell_angle_beta     83.348
_cell_angle_gamma    83.4417

_space_group_name_H-M_alt    "P 1"
_space_group_IT_number       1

loop_
  _space_group_symop_operation_xyz
  'x, y, z'

loop_
  _atom_site_type_symbol
  _atom_site_label
  _atom_site_symmetry_multiplicity
  _atom_site_fract_x
  _atom_site_fract_y
  _atom_site_fract_z
  _atom_site_occupancy
  Hg  Hg1       1.0  0.66149  0.12140  0.34510  1.0000
  Hg  Hg2       1.0  0.12765  0.87856  0.65513  1.0000
  Hg  Hg3       1.0  0.53099  0.37852  0.84480  1.0000
  Hg  Hg4       1.0  0.75609  0.62116  0.15493  1.0000
  H   H1        1.0  0.43783  0.10596  0.17863  1.0000
  H   H2        1.0  0.72239  0.89403  0.82171  1.0000
  H   H3        1.0  0.29106  0.39421  0.67829  1.0000
  H   H4        1.0  0.36742  0.60591  0.32151  1.0000
  H   H5        1.0  0.44755  0.01518  0.07979  1.0000
  H   H6        1.0  0.54254  0.98485  0.92051  1.0000
  H   H7        1.0  0.20982  0.48510  0.57957  1.0000
  H   H8        1.0  0.27784  0.51529  0.42044  1.0000
  H   H9        1.0  0.99618  0.86751  0.20876  1.0000
  H   H10       1.0  0.06920  0.13268  0.79116  1.0000
  H   H11       1.0  0.60990  0.63259  0.70879  1.0000
  H   H12       1.0  0.95419  0.36727  0.29158  1.0000
  H   H13       1.0  0.97053  0.96407  0.30086  1.0000
  H   H14       1.0  0.23216  0.03609  0.69910  1.0000
  H   H15       1.0  0.68093  0.53589  0.80079  1.0000
  H   H16       1.0  0.02111  0.46375  0.19938  1.0000
  H   H17       1.0  0.87284  0.82624  0.09688  1.0000
  H   H18       1.0  0.79316  0.17387  0.90328  1.0000
  H   H19       1.0  0.44583  0.67395  0.59680  1.0000
  H   H20       1.0  0.71827  0.32619  0.40353  1.0000
  H   H21       1.0  0.83053  0.74080  0.03834  1.0000
  H   H22       1.0  0.60717  0.25912  0.96181  1.0000
  H   H23       1.0  0.31791  0.75937  0.53825  1.0000
  H   H24       1.0  0.61617  0.24077  0.46174  1.0000
  H   H25       1.0  0.75136  0.64511  0.95441  1.0000
  H   H26       1.0  0.34840  0.35477  0.04581  1.0000
  H   H27       1.0  0.14264  0.85507  0.45430  1.0000
  H   H28       1.0  0.45179  0.14506  0.54546  1.0000
  H   H29       1.0  0.13648  0.79214  0.84179  1.0000
  H   H30       1.0  0.76854  0.20775  0.15843  1.0000
  H   H31       1.0  0.67657  0.70794  0.34148  1.0000
  H   H32       1.0  0.72369  0.29211  0.65783  1.0000
  H   H33       1.0  0.20560  0.88964  0.92867  1.0000
  H   H34       1.0  0.02244  0.11023  0.07148  1.0000
  H   H35       1.0  0.84411  0.61039  0.42833  1.0000
  H   H36       1.0  0.88160  0.38971  0.57123  1.0000
  C   C1        1.0  0.56174  0.05243  0.18232  1.0000
  C   C2        1.0  0.79556  0.94761  0.81789  1.0000
  C   C3        1.0  0.36091  0.44774  0.68210  1.0000
  C   C4        1.0  0.49441  0.55231  0.31783  1.0000
  C   C5        1.0  0.56467  0.00213  0.12818  1.0000
  C   C6        1.0  0.69406  0.99792  0.87200  1.0000
  C   C7        1.0  0.31367  0.49809  0.62801  1.0000
  C   C8        1.0  0.44293  0.50210  0.37203  1.0000
  C   C9        1.0  0.72045  0.93340  0.13695  1.0000
  C   C10       1.0  0.78888  0.06671  0.86312  1.0000
  C   C11       1.0  0.40047  0.56679  0.63689  1.0000
  C   C12       1.0  0.60688  0.43331  0.36331  1.0000
  C   C13       1.0  0.87238  0.91989  0.19958  1.0000
  C   C14       1.0  0.98903  0.08030  0.80041  1.0000
  C   C15       1.0  0.53860  0.58024  0.69956  1.0000
  C   C16       1.0  0.82146  0.41969  0.30072  1.0000
  C   C17       1.0  0.85896  0.97327  0.25100  1.0000
  C   C18       1.0  0.08034  0.02689  0.74900  1.0000
  C   C19       1.0  0.57839  0.52679  0.75094  1.0000
  C   C20       1.0  0.85965  0.47301  0.24921  1.0000
  C   C21       1.0  0.71925  0.87503  0.08596  1.0000
  C   C22       1.0  0.67802  0.12502  0.91415  1.0000
  C   C23       1.0  0.34134  0.62516  0.58586  1.0000
  C   C24       1.0  0.55394  0.37499  0.41432  1.0000
  C   C25       1.0  0.52232  0.82272  0.98904  1.0000
  C   C26       1.0  0.33191  0.17722  0.01109  1.0000
  C   C27       1.0  0.09265  0.67742  0.48881  1.0000
  C   C28       1.0  0.25883  0.32273  0.51099  1.0000
  C   C29       1.0  0.67549  0.75318  0.99623  1.0000
  C   C30       1.0  0.42248  0.24674  0.00390  1.0000
  C   C31       1.0  0.17580  0.74696  0.49605  1.0000
  C   C32       1.0  0.41885  0.25318  0.50378  1.0000
  C   C33       1.0  0.63444  0.69900  0.94936  1.0000
  C   C34       1.0  0.28039  0.30089  0.05081  1.0000
  C   C35       1.0  0.08044  0.80113  0.44919  1.0000
  C   C36       1.0  0.33008  0.19898  0.55050  1.0000
  C   C37       1.0  0.44030  0.71503  0.89486  1.0000
  C   C38       1.0  0.04808  0.28482  0.10532  1.0000
  C   C39       1.0  0.90283  0.78506  0.39462  1.0000
  C   C40       1.0  0.08101  0.21501  0.60488  1.0000
  C   C41       1.0  0.28778  0.78279  0.88505  1.0000
  C   C42       1.0  0.95362  0.21707  0.11513  1.0000
  C   C43       1.0  0.81835  0.71728  0.38479  1.0000
  C   C44       1.0  0.91869  0.28279  0.61466  1.0000
  C   C45       1.0  0.32842  0.83622  0.93298  1.0000
  C   C46       1.0  0.09568  0.16366  0.06717  1.0000
  C   C47       1.0  0.91269  0.66386  0.43269  1.0000
  C   C48       1.0  0.00827  0.33624  0.56691  1.0000
  I   I1        1.0  0.29128  0.23173  0.29555  1.0000
  I   I2        1.0  0.81895  0.76812  0.70454  1.0000
  I   I3        1.0  0.27039  0.26823  0.79540  1.0000
  I   I4        1.0  0.33504  0.73144  0.20420  1.0000
  I   I5        1.0  0.05287  0.05207  0.43293  1.0000
  I   I6        1.0  0.53817  0.94786  0.56747  1.0000
  I   I7        1.0  0.85457  0.44772  0.93239  1.0000
  I   I8        1.0  0.23538  0.55187  0.06704  1.0000
  N   N1        1.0  0.70491  0.03826  0.24276  1.0000
  N   N2        1.0  0.98412  0.96184  0.75734  1.0000
  N   N3        1.0  0.48973  0.46183  0.74259  1.0000
  N   N4        1.0  0.69767  0.53802  0.25736  1.0000
  N   N5        1.0  0.54071  0.88063  0.03442  1.0000
  N   N6        1.0  0.45393  0.11932  0.96571  1.0000
  N   N7        1.0  0.16896  0.61954  0.53423  1.0000
  N   N8        1.0  0.32337  0.38065  0.46570  1.0000
  F   F1        1.0  0.39505  0.66162  0.84953  1.0000
  F   F2        1.0  0.90406  0.33822  0.15071  1.0000
  F   F3        1.0  0.80405  0.83842  0.34923  1.0000
  F   F4        1.0  0.98975  0.16156  0.65008  1.0000
