data_image0
_chemical_formula_structural       Hg4H36C48I8Br4N8
_chemical_formula_sum              "Hg4 H36 C48 I8 Br4 N8"
_cell_length_a       4.26022
_cell_length_b       16.1625
_cell_length_c       22.5735
_cell_angle_alpha    89.9998
_cell_angle_beta     90.0003
_cell_angle_gamma    90.0007

_space_group_name_H-M_alt    "P 1"
_space_group_IT_number       1

loop_
  _space_group_symop_operation_xyz
  'x, y, z'

loop_
  _atom_site_type_symbol
  _atom_site_label
  _atom_site_symmetry_multiplicity
  _atom_site_fract_x
  _atom_site_fract_y
  _atom_site_fract_z
  _atom_site_occupancy
  Hg  Hg1       1.0  0.07427  0.48074  0.89075  1.0000
  Hg  Hg2       1.0  0.57428  0.51926  0.10925  1.0000
  Hg  Hg3       1.0  0.57427  0.01927  0.39075  1.0000
  Hg  Hg4       1.0  0.07427  0.98074  0.60925  1.0000
  H   H1        1.0  0.78461  0.64348  0.81940  1.0000
  H   H2        1.0  0.28462  0.35652  0.18060  1.0000
  H   H3        1.0  0.28461  0.85652  0.31940  1.0000
  H   H4        1.0  0.78463  0.14348  0.68060  1.0000
  H   H5        1.0  0.71541  0.70313  0.71795  1.0000
  H   H6        1.0  0.21542  0.29687  0.28205  1.0000
  H   H7        1.0  0.21542  0.79687  0.21795  1.0000
  H   H8        1.0  0.71541  0.20313  0.78204  1.0000
  H   H9        1.0  0.25950  0.49876  0.64973  1.0000
  H   H10       1.0  0.75954  0.50124  0.35027  1.0000
  H   H11       1.0  0.75955  0.00124  0.14973  1.0000
  H   H12       1.0  0.25954  0.99877  0.85027  1.0000
  H   H13       1.0  0.31220  0.44774  0.75470  1.0000
  H   H14       1.0  0.81224  0.55226  0.24530  1.0000
  H   H15       1.0  0.81223  0.05226  0.25470  1.0000
  H   H16       1.0  0.31226  0.94775  0.74530  1.0000
  H   H17       1.0  0.77949  0.69273  0.61322  1.0000
  H   H18       1.0  0.27953  0.30727  0.38678  1.0000
  H   H19       1.0  0.27952  0.80727  0.11322  1.0000
  H   H20       1.0  0.77948  0.19273  0.88678  1.0000
  H   H21       1.0  0.68711  0.73552  0.53148  1.0000
  H   H22       1.0  0.18713  0.26448  0.46851  1.0000
  H   H23       1.0  0.18713  0.76448  0.03149  1.0000
  H   H24       1.0  0.68712  0.23552  0.96851  1.0000
  H   H25       1.0  0.61070  0.77299  0.42730  1.0000
  H   H26       1.0  0.11069  0.22701  0.57269  1.0000
  H   H27       1.0  0.11069  0.72701  0.92731  1.0000
  H   H28       1.0  0.61071  0.27299  0.07270  1.0000
  H   H29       1.0  0.23578  0.57638  0.37306  1.0000
  H   H30       1.0  0.73578  0.42363  0.62695  1.0000
  H   H31       1.0  0.73579  0.92362  0.87306  1.0000
  H   H32       1.0  0.23577  0.07638  0.12695  1.0000
  H   H33       1.0  0.30312  0.53587  0.47868  1.0000
  H   H34       1.0  0.80314  0.46413  0.52133  1.0000
  H   H35       1.0  0.80314  0.96413  0.97867  1.0000
  H   H36       1.0  0.30311  0.03586  0.02133  1.0000
  C   C1        1.0  0.88810  0.61353  0.78068  1.0000
  C   C2        1.0  0.38812  0.38647  0.21932  1.0000
  C   C3        1.0  0.38812  0.88647  0.28068  1.0000
  C   C4        1.0  0.88813  0.11353  0.71932  1.0000
  C   C5        1.0  0.84824  0.64604  0.72414  1.0000
  C   C6        1.0  0.34825  0.35396  0.27586  1.0000
  C   C7        1.0  0.34825  0.85396  0.22414  1.0000
  C   C8        1.0  0.84825  0.14604  0.77586  1.0000
  C   C9        1.0  0.97980  0.60473  0.67543  1.0000
  C   C10       1.0  0.47983  0.39527  0.32457  1.0000
  C   C11       1.0  0.47984  0.89527  0.17543  1.0000
  C   C12       1.0  0.97982  0.10473  0.82457  1.0000
  C   C13       1.0  0.15242  0.53216  0.68644  1.0000
  C   C14       1.0  0.65245  0.46784  0.31356  1.0000
  C   C15       1.0  0.65246  0.96784  0.18644  1.0000
  C   C16       1.0  0.15246  0.03217  0.81356  1.0000
  C   C17       1.0  0.18213  0.50413  0.74426  1.0000
  C   C18       1.0  0.68215  0.49587  0.25574  1.0000
  C   C19       1.0  0.68215  0.99587  0.24426  1.0000
  C   C20       1.0  0.18217  0.00413  0.75574  1.0000
  C   C21       1.0  0.92969  0.63727  0.61573  1.0000
  C   C22       1.0  0.42973  0.36272  0.38427  1.0000
  C   C23       1.0  0.42973  0.86273  0.11573  1.0000
  C   C24       1.0  0.92970  0.13727  0.88427  1.0000
  C   C25       1.0  0.00100  0.63163  0.51267  1.0000
  C   C26       1.0  0.50103  0.36837  0.48733  1.0000
  C   C27       1.0  0.50103  0.86837  0.01267  1.0000
  C   C28       1.0  0.00101  0.13162  0.98733  1.0000
  C   C29       1.0  0.80915  0.69967  0.49762  1.0000
  C   C30       1.0  0.30917  0.30032  0.50238  1.0000
  C   C31       1.0  0.30917  0.80033  0.99763  1.0000
  C   C32       1.0  0.80916  0.19967  0.00238  1.0000
  C   C33       1.0  0.76608  0.72181  0.43871  1.0000
  C   C34       1.0  0.26609  0.27819  0.56128  1.0000
  C   C35       1.0  0.26608  0.77818  0.93872  1.0000
  C   C36       1.0  0.76608  0.22181  0.06129  1.0000
  C   C37       1.0  0.91845  0.67666  0.39438  1.0000
  C   C38       1.0  0.41845  0.32334  0.60561  1.0000
  C   C39       1.0  0.41845  0.82334  0.89439  1.0000
  C   C40       1.0  0.91845  0.17666  0.10562  1.0000
  C   C41       1.0  0.11370  0.61007  0.40791  1.0000
  C   C42       1.0  0.61370  0.38993  0.59209  1.0000
  C   C43       1.0  0.61371  0.88993  0.90791  1.0000
  C   C44       1.0  0.11369  0.11006  0.09209  1.0000
  C   C45       1.0  0.15219  0.58778  0.46702  1.0000
  C   C46       1.0  0.65222  0.41222  0.53298  1.0000
  C   C47       1.0  0.65222  0.91222  0.96702  1.0000
  C   C48       1.0  0.15219  0.08778  0.03298  1.0000
  I   I1        1.0  0.35819  0.33565  0.86641  1.0000
  I   I2        1.0  0.85820  0.66435  0.13359  1.0000
  I   I3        1.0  0.85816  0.16436  0.36640  1.0000
  I   I4        1.0  0.35821  0.83565  0.63359  1.0000
  I   I5        1.0  0.64642  0.58248  0.94220  1.0000
  I   I6        1.0  0.14641  0.41752  0.05780  1.0000
  I   I7        1.0  0.14641  0.91752  0.44220  1.0000
  I   I8        1.0  0.64642  0.08248  0.55780  1.0000
  Br  Br1       1.0  0.84922  0.70527  0.31356  1.0000
  Br  Br2       1.0  0.34921  0.29473  0.68644  1.0000
  Br  Br3       1.0  0.34921  0.79473  0.81356  1.0000
  Br  Br4       1.0  0.84923  0.20527  0.18644  1.0000
  N   N1        1.0  0.05078  0.54374  0.79053  1.0000
  N   N2        1.0  0.55079  0.45626  0.20947  1.0000
  N   N3        1.0  0.55079  0.95627  0.29053  1.0000
  N   N4        1.0  0.05081  0.04374  0.70947  1.0000
  N   N5        1.0  0.05297  0.60193  0.57019  1.0000
  N   N6        1.0  0.55300  0.39807  0.42980  1.0000
  N   N7        1.0  0.55300  0.89807  0.07020  1.0000
  N   N8        1.0  0.05298  0.10193  0.92981  1.0000
