data_image0
_chemical_formula_structural       Zn4H20C18N8O6
_chemical_formula_sum              "Zn4 H20 C18 N8 O6"
_cell_length_a       4.68805
_cell_length_b       10.5639
_cell_length_c       12.3051
_cell_angle_alpha    90
_cell_angle_beta     90
_cell_angle_gamma    90

_space_group_name_H-M_alt    "P 1"
_space_group_IT_number       1

loop_
  _space_group_symop_operation_xyz
  'x, y, z'

loop_
  _atom_site_type_symbol
  _atom_site_label
  _atom_site_symmetry_multiplicity
  _atom_site_fract_x
  _atom_site_fract_y
  _atom_site_fract_z
  _atom_site_occupancy
  Zn  Zn1       1.0  0.94754  0.05235  0.13845  1.0000
  Zn  Zn2       1.0  0.94754  0.94765  0.86155  1.0000
  Zn  Zn3       1.0  0.94754  0.55235  0.36155  1.0000
  Zn  Zn4       1.0  0.94754  0.44765  0.63845  1.0000
  H   H1        1.0  0.30748  0.28231  0.04083  1.0000
  H   H2        1.0  0.30748  0.71769  0.95917  1.0000
  H   H3        1.0  0.30748  0.78231  0.45917  1.0000
  H   H4        1.0  0.30748  0.21769  0.54083  1.0000
  H   H5        1.0  0.28640  0.51761  0.14099  1.0000
  H   H6        1.0  0.28640  0.48239  0.85901  1.0000
  H   H7        1.0  0.28640  0.01761  0.35901  1.0000
  H   H8        1.0  0.28640  0.98239  0.64099  1.0000
  H   H9        1.0  0.74927  0.29059  0.41784  1.0000
  H   H10       1.0  0.74927  0.70940  0.58216  1.0000
  H   H11       1.0  0.74927  0.79060  0.08216  1.0000
  H   H12       1.0  0.74927  0.20941  0.91784  1.0000
  H   H13       1.0  0.76107  0.14252  0.34963  1.0000
  H   H14       1.0  0.76107  0.85748  0.65037  1.0000
  H   H15       1.0  0.76107  0.64252  0.15037  1.0000
  H   H16       1.0  0.76107  0.35748  0.84963  1.0000
  H   H17       1.0  0.49601  0.25608  0.31416  1.0000
  H   H18       1.0  0.49601  0.74393  0.68584  1.0000
  H   H19       1.0  0.49601  0.75607  0.18584  1.0000
  H   H20       1.0  0.49601  0.24393  0.81416  1.0000
  C   C1        1.0  0.91662  0.29794  0.25587  1.0000
  C   C2        1.0  0.91662  0.70206  0.74413  1.0000
  C   C3        1.0  0.91662  0.79794  0.24413  1.0000
  C   C4        1.0  0.91662  0.20206  0.75587  1.0000
  C   C5        1.0  0.19027  0.31349  0.11179  1.0000
  C   C6        1.0  0.19027  0.68651  0.88821  1.0000
  C   C7        1.0  0.19027  0.81349  0.38821  1.0000
  C   C8        1.0  0.19027  0.18651  0.61179  1.0000
  C   C9        1.0  0.18070  0.42964  0.16168  1.0000
  C   C10       1.0  0.18070  0.57036  0.83832  1.0000
  C   C11       1.0  0.18069  0.92964  0.33832  1.0000
  C   C12       1.0  0.18069  0.07036  0.66168  1.0000
  C   C13       1.0  0.42462  1.00000  0.00000  1.0000
  C   C14       1.0  0.42462  0.50000  0.50000  1.0000
  C   C15       1.0  0.72002  0.24412  0.33894  1.0000
  C   C16       1.0  0.72002  0.75588  0.66106  1.0000
  C   C17       1.0  0.72002  0.74412  0.16106  1.0000
  C   C18       1.0  0.72002  0.25588  0.83894  1.0000
  N   N1        1.0  0.00790  0.41930  0.25252  1.0000
  N   N2        1.0  0.00790  0.58070  0.74748  1.0000
  N   N3        1.0  0.00790  0.91930  0.24748  1.0000
  N   N4        1.0  0.00790  0.08070  0.75252  1.0000
  N   N5        1.0  0.02371  0.23090  0.17170  1.0000
  N   N6        1.0  0.02371  0.76910  0.82830  1.0000
  N   N7        1.0  0.02371  0.73090  0.32830  1.0000
  N   N8        1.0  0.02371  0.26910  0.67170  1.0000
  O   O1        1.0  0.54515  0.04232  0.08573  1.0000
  O   O2        1.0  0.54515  0.95768  0.91427  1.0000
  O   O3        1.0  0.54515  0.54232  0.41427  1.0000
  O   O4        1.0  0.54515  0.45768  0.58573  1.0000
  O   O5        1.0  0.14074  0.00000  0.00000  1.0000
  O   O6        1.0  0.14074  0.50000  0.50000  1.0000
