data_image0
_chemical_formula_structural       Ag4H32C32N20O8
_chemical_formula_sum              "Ag4 H32 C32 N20 O8"
_cell_length_a       8.11888
_cell_length_b       9.98843
_cell_length_c       12.562
_cell_angle_alpha    82.4383
_cell_angle_beta     89.9855
_cell_angle_gamma    74.0058

_space_group_name_H-M_alt    "P 1"
_space_group_IT_number       1

loop_
  _space_group_symop_operation_xyz
  'x, y, z'

loop_
  _atom_site_type_symbol
  _atom_site_label
  _atom_site_symmetry_multiplicity
  _atom_site_fract_x
  _atom_site_fract_y
  _atom_site_fract_z
  _atom_site_occupancy
  Ag  Ag1       1.0  0.48703  0.00428  0.75830  1.0000
  Ag  Ag2       1.0  0.51297  0.99572  0.24170  1.0000
  Ag  Ag3       1.0  0.53415  0.55759  0.39298  1.0000
  Ag  Ag4       1.0  0.46585  0.44243  0.60702  1.0000
  H   H1        1.0  0.07758  0.86786  0.23245  1.0000
  H   H2        1.0  0.92241  0.13214  0.76755  1.0000
  H   H3        1.0  0.22405  0.70206  0.28291  1.0000
  H   H4        1.0  0.77595  0.29794  0.71709  1.0000
  H   H5        1.0  0.56716  0.25171  0.90252  1.0000
  H   H6        1.0  0.43284  0.74829  0.09748  1.0000
  H   H7        1.0  0.95241  0.12645  0.26198  1.0000
  H   H8        1.0  0.04758  0.87355  0.73803  1.0000
  H   H9        1.0  0.81346  0.29495  0.20963  1.0000
  H   H10       1.0  0.18654  0.70506  0.79037  1.0000
  H   H11       1.0  0.98423  0.71477  0.15832  1.0000
  H   H12       1.0  0.01577  0.28523  0.84168  1.0000
  H   H13       1.0  0.07073  0.65058  0.03940  1.0000
  H   H14       1.0  0.92927  0.34942  0.96060  1.0000
  H   H15       1.0  0.96594  0.46612  0.12804  1.0000
  H   H16       1.0  0.03407  0.53388  0.87197  1.0000
  H   H17       1.0  0.79867  0.55106  0.03377  1.0000
  H   H18       1.0  0.20133  0.44894  0.96623  1.0000
  H   H19       1.0  0.74424  0.72428  0.89290  1.0000
  H   H20       1.0  0.25576  0.27573  0.10710  1.0000
  H   H21       1.0  0.98529  0.45352  0.30780  1.0000
  H   H22       1.0  0.01472  0.54646  0.69219  1.0000
  H   H23       1.0  0.14734  0.29925  0.29425  1.0000
  H   H24       1.0  0.85268  0.70073  0.70575  1.0000
  H   H25       1.0  0.48909  0.75080  0.58065  1.0000
  H   H26       1.0  0.51091  0.24920  0.41935  1.0000
  H   H27       1.0  0.94419  0.36520  0.49701  1.0000
  H   H28       1.0  0.05581  0.63480  0.50299  1.0000
  H   H29       1.0  0.90166  0.25917  0.40493  1.0000
  H   H30       1.0  0.09834  0.74084  0.59507  1.0000
  H   H31       1.0  0.19174  0.25520  0.63883  1.0000
  H   H32       1.0  0.80826  0.74480  0.36117  1.0000
  C   C1        1.0  0.81313  0.94702  0.04203  1.0000
  C   C2        1.0  0.18686  0.05298  0.95797  1.0000
  C   C3        1.0  0.30941  0.96016  0.54451  1.0000
  C   C4        1.0  0.69058  0.03983  0.45549  1.0000
  C   C5        1.0  0.18524  0.04177  0.46561  1.0000
  C   C6        1.0  0.81476  0.95823  0.53439  1.0000
  C   C7        1.0  0.21975  0.86291  0.36877  1.0000
  C   C8        1.0  0.78025  0.13709  0.63122  1.0000
  C   C9        1.0  0.69903  0.03248  0.95962  1.0000
  C   C10       1.0  0.30096  0.96752  0.04039  1.0000
  C   C11       1.0  0.82013  0.13440  0.12160  1.0000
  C   C12       1.0  0.17987  0.86561  0.87840  1.0000
  C   C13       1.0  0.65198  0.17700  0.96406  1.0000
  C   C14       1.0  0.34802  0.82300  0.03594  1.0000
  C   C15       1.0  0.95163  0.68354  0.08254  1.0000
  C   C16       1.0  0.04837  0.31646  0.91746  1.0000
  C   C17       1.0  0.86586  0.56546  0.10565  1.0000
  C   C18       1.0  0.13415  0.43454  0.89436  1.0000
  C   C19       1.0  0.73741  0.58465  0.19600  1.0000
  C   C20       1.0  0.26259  0.41535  0.80401  1.0000
  C   C21       1.0  0.74742  0.81686  0.92835  1.0000
  C   C22       1.0  0.25258  0.18315  0.07165  1.0000
  C   C23       1.0  0.22080  0.43584  0.39134  1.0000
  C   C24       1.0  0.77920  0.56417  0.60865  1.0000
  C   C25       1.0  0.08762  0.36975  0.35238  1.0000
  C   C26       1.0  0.91239  0.63024  0.64761  1.0000
  C   C27       1.0  0.39039  0.82399  0.52605  1.0000
  C   C28       1.0  0.60961  0.17601  0.47395  1.0000
  C   C29       1.0  0.00356  0.29427  0.43996  1.0000
  C   C30       1.0  0.99645  0.70573  0.56004  1.0000
  C   C31       1.0  0.21026  0.16666  0.59436  1.0000
  C   C32       1.0  0.78974  0.83334  0.40564  1.0000
  N   N1        1.0  0.87814  0.99202  0.12330  1.0000
  N   N2        1.0  0.12185  0.00798  0.87670  1.0000
  N   N3        1.0  0.13594  0.99888  0.37817  1.0000
  N   N4        1.0  0.86405  0.00111  0.62183  1.0000
  N   N5        1.0  0.17431  0.80757  0.28512  1.0000
  N   N6        1.0  0.82569  0.19243  0.71488  1.0000
  N   N7        1.0  0.34690  0.77710  0.43824  1.0000
  N   N8        1.0  0.65310  0.22290  0.56176  1.0000
  N   N9        1.0  0.71198  0.22698  0.04435  1.0000
  N   N10       1.0  0.28801  0.77303  0.95565  1.0000
  N   N11       1.0  0.84113  0.81056  0.02039  1.0000
  N   N12       1.0  0.15886  0.18944  0.97962  1.0000
  N   N13       1.0  0.32142  0.04210  0.62408  1.0000
  N   N14       1.0  0.67858  0.95790  0.37592  1.0000
  N   N15       1.0  0.12508  0.17160  0.49922  1.0000
  N   N16       1.0  0.87492  0.82840  0.50078  1.0000
  N   N17       1.0  0.66057  0.94747  0.88958  1.0000
  N   N18       1.0  0.33943  0.05254  0.11042  1.0000
  N   N19       1.0  0.87484  0.19163  0.20111  1.0000
  N   N20       1.0  0.12516  0.80838  0.79890  1.0000
  O   O1        1.0  0.24375  0.42797  0.49227  1.0000
  O   O2        1.0  0.75626  0.57202  0.50773  1.0000
  O   O3        1.0  0.67599  0.70670  0.22112  1.0000
  O   O4        1.0  0.32401  0.29330  0.77888  1.0000
  O   O5        1.0  0.70382  0.47353  0.24112  1.0000
  O   O6        1.0  0.29618  0.52647  0.75888  1.0000
  O   O7        1.0  0.29799  0.49341  0.31847  1.0000
  O   O8        1.0  0.70199  0.50661  0.68152  1.0000
