data_image0
_chemical_formula_structural       Cd4H40C32N24O24
_chemical_formula_sum              "Cd4 H40 C32 N24 O24"
_cell_length_a       9.87876
_cell_length_b       11.176
_cell_length_c       12.5545
_cell_angle_alpha    108.824
_cell_angle_beta     90.0426
_cell_angle_gamma    89.9844

_space_group_name_H-M_alt    "P 1"
_space_group_IT_number       1

loop_
  _space_group_symop_operation_xyz
  'x, y, z'

loop_
  _atom_site_type_symbol
  _atom_site_label
  _atom_site_symmetry_multiplicity
  _atom_site_fract_x
  _atom_site_fract_y
  _atom_site_fract_z
  _atom_site_occupancy
  Cd  Cd1       1.0  0.64006  0.37886  0.64165  1.0000
  Cd  Cd2       1.0  0.35993  0.62114  0.35835  1.0000
  Cd  Cd3       1.0  0.14010  0.12150  0.85836  1.0000
  Cd  Cd4       1.0  0.85990  0.87850  0.14164  1.0000
  H   H1        1.0  0.33423  0.27376  0.18821  1.0000
  H   H2        1.0  0.66577  0.72624  0.81179  1.0000
  H   H3        1.0  0.20030  0.22959  0.09205  1.0000
  H   H4        1.0  0.79970  0.77041  0.90795  1.0000
  H   H5        1.0  0.69972  0.27019  0.40778  1.0000
  H   H6        1.0  0.30028  0.72981  0.59222  1.0000
  H   H7        1.0  0.83326  0.22562  0.31143  1.0000
  H   H8        1.0  0.16674  0.77438  0.68857  1.0000
  H   H9        1.0  0.47677  0.58843  0.77614  1.0000
  H   H10       1.0  0.52323  0.41158  0.22386  1.0000
  H   H11       1.0  0.47353  0.58936  0.64737  1.0000
  H   H12       1.0  0.52647  0.41064  0.35263  1.0000
  H   H13       1.0  0.97699  0.91187  0.72391  1.0000
  H   H14       1.0  0.02302  0.08813  0.27609  1.0000
  H   H15       1.0  0.97333  0.91101  0.85267  1.0000
  H   H16       1.0  0.02667  0.08899  0.14733  1.0000
  H   H17       1.0  0.23269  0.01281  0.32607  1.0000
  H   H18       1.0  0.76731  0.98718  0.67393  1.0000
  H   H19       1.0  0.37167  0.99864  0.41124  1.0000
  H   H20       1.0  0.62833  0.00136  0.58876  1.0000
  H   H21       1.0  0.86513  0.23363  0.73420  1.0000
  H   H22       1.0  0.13487  0.76636  0.26579  1.0000
  H   H23       1.0  0.73310  0.48724  0.17404  1.0000
  H   H24       1.0  0.26690  0.51276  0.82596  1.0000
  H   H25       1.0  0.87197  0.50147  0.08892  1.0000
  H   H26       1.0  0.12803  0.49853  0.91109  1.0000
  H   H27       1.0  0.90062  0.34194  0.19597  1.0000
  H   H28       1.0  0.09938  0.65806  0.80403  1.0000
  H   H29       1.0  0.77226  0.24764  0.11042  1.0000
  H   H30       1.0  0.22774  0.75236  0.88958  1.0000
  H   H31       1.0  0.39979  0.15845  0.30436  1.0000
  H   H32       1.0  0.60021  0.84155  0.69564  1.0000
  H   H33       1.0  0.27150  0.25253  0.39001  1.0000
  H   H34       1.0  0.72850  0.74747  0.60998  1.0000
  H   H35       1.0  0.36519  0.26661  0.76567  1.0000
  H   H36       1.0  0.63481  0.73339  0.23433  1.0000
  H   H37       1.0  0.33471  0.05126  0.62126  1.0000
  H   H38       1.0  0.66529  0.94874  0.37874  1.0000
  H   H39       1.0  0.83485  0.44893  0.87896  1.0000
  H   H40       1.0  0.16515  0.55107  0.12105  1.0000
  C   C1        1.0  0.37380  0.29491  0.03734  1.0000
  C   C2        1.0  0.62620  0.70509  0.96266  1.0000
  C   C3        1.0  0.87337  0.20494  0.46248  1.0000
  C   C4        1.0  0.12663  0.79506  0.53752  1.0000
  C   C5        1.0  0.07338  0.13717  0.50747  1.0000
  C   C6        1.0  0.92661  0.86283  0.49253  1.0000
  C   C7        1.0  0.57372  0.36279  0.99248  1.0000
  C   C8        1.0  0.42628  0.63721  0.00752  1.0000
  C   C9        1.0  0.53495  0.33673  0.87886  1.0000
  C   C10       1.0  0.46505  0.66327  0.12114  1.0000
  C   C11       1.0  0.03475  0.16339  0.62109  1.0000
  C   C12       1.0  0.96524  0.83661  0.37891  1.0000
  C   C13       1.0  0.29220  0.06272  0.40117  1.0000
  C   C14       1.0  0.70780  0.93728  0.59883  1.0000
  C   C15       1.0  0.90556  0.21166  0.64926  1.0000
  C   C16       1.0  0.09444  0.78834  0.35074  1.0000
  C   C17       1.0  0.79260  0.43735  0.09898  1.0000
  C   C18       1.0  0.20740  0.56265  0.90103  1.0000
  C   C19       1.0  0.85226  0.31728  0.11274  1.0000
  C   C20       1.0  0.14774  0.68272  0.88726  1.0000
  C   C21       1.0  0.35162  0.18293  0.38758  1.0000
  C   C22       1.0  0.64839  0.81706  0.61242  1.0000
  C   C23       1.0  0.40571  0.28851  0.85062  1.0000
  C   C24       1.0  0.59429  0.71150  0.14938  1.0000
  C   C25       1.0  0.23808  0.08700  0.60397  1.0000
  C   C26       1.0  0.76192  0.91300  0.39603  1.0000
  C   C27       1.0  0.73827  0.41311  0.89614  1.0000
  C   C28       1.0  0.26173  0.58689  0.10386  1.0000
  C   C29       1.0  0.95800  0.25186  0.02666  1.0000
  C   C30       1.0  0.04201  0.74814  0.97334  1.0000
  C   C31       1.0  0.45751  0.24831  0.47366  1.0000
  C   C32       1.0  0.54249  0.75169  0.52633  1.0000
  N   N1        1.0  0.20280  0.08910  0.49891  1.0000
  N   N2        1.0  0.79719  0.91090  0.50109  1.0000
  N   N3        1.0  0.29188  0.27359  0.11468  1.0000
  N   N4        1.0  0.70812  0.72640  0.88532  1.0000
  N   N5        1.0  0.79120  0.22604  0.38509  1.0000
  N   N6        1.0  0.20880  0.77396  0.61491  1.0000
  N   N7        1.0  0.70314  0.41086  0.00115  1.0000
  N   N8        1.0  0.29686  0.58915  0.99885  1.0000
  N   N9        1.0  0.32640  0.26664  0.92925  1.0000
  N   N10       1.0  0.67359  0.73336  0.07075  1.0000
  N   N11       1.0  0.82612  0.23340  0.57056  1.0000
  N   N12       1.0  0.17388  0.76660  0.42944  1.0000
  N   N13       1.0  0.49678  0.34651  0.07309  1.0000
  N   N14       1.0  0.50322  0.65349  0.92691  1.0000
  N   N15       1.0  0.14085  0.13032  0.67923  1.0000
  N   N16       1.0  0.85914  0.86968  0.32077  1.0000
  N   N17       1.0  0.99633  0.15332  0.42677  1.0000
  N   N18       1.0  0.00367  0.84668  0.57322  1.0000
  N   N19       1.0  0.64099  0.36988  0.82081  1.0000
  N   N20       1.0  0.35901  0.63012  0.17919  1.0000
  N   N21       1.0  0.88271  0.55728  0.67221  1.0000
  N   N22       1.0  0.11729  0.44272  0.32779  1.0000
  N   N23       1.0  0.38280  0.94202  0.82654  1.0000
  N   N24       1.0  0.61720  0.05799  0.17346  1.0000
  O   O1        1.0  0.47358  0.21859  0.56247  1.0000
  O   O2        1.0  0.52642  0.78140  0.43752  1.0000
  O   O3        1.0  0.97399  0.28168  0.93791  1.0000
  O   O4        1.0  0.02601  0.71833  0.06209  1.0000
  O   O5        1.0  0.53110  0.33404  0.45420  1.0000
  O   O6        1.0  0.46889  0.66596  0.54580  1.0000
  O   O7        1.0  0.03152  0.16599  0.04607  1.0000
  O   O8        1.0  0.96849  0.83401  0.95393  1.0000
  O   O9        1.0  0.77267  0.53436  0.61237  1.0000
  O   O10       1.0  0.22733  0.46565  0.38764  1.0000
  O   O11       1.0  0.47029  0.53415  0.69572  1.0000
  O   O12       1.0  0.52971  0.46585  0.30428  1.0000
  O   O13       1.0  0.97019  0.96620  0.80429  1.0000
  O   O14       1.0  0.02981  0.03380  0.19571  1.0000
  O   O15       1.0  0.91193  0.48984  0.73243  1.0000
  O   O16       1.0  0.08807  0.51015  0.26757  1.0000
  O   O17       1.0  0.27262  0.96503  0.88609  1.0000
  O   O18       1.0  0.72739  0.03497  0.11392  1.0000
  O   O19       1.0  0.41328  0.01037  0.76750  1.0000
  O   O20       1.0  0.58672  0.98964  0.23249  1.0000
  O   O21       1.0  0.95547  0.64719  0.66846  1.0000
  O   O22       1.0  0.04453  0.35281  0.33155  1.0000
  O   O23       1.0  0.45441  0.85100  0.82943  1.0000
  O   O24       1.0  0.54560  0.14901  0.17056  1.0000
