data_image0
_chemical_formula_structural       Al4P6H12C18O18
_chemical_formula_sum              "Al4 P6 H12 C18 O18"
_cell_length_a       4.9949
_cell_length_b       8.67317
_cell_length_c       19.0246
_cell_angle_alpha    80.0029
_cell_angle_beta     84.0335
_cell_angle_gamma    89.0786

_space_group_name_H-M_alt    "P 1"
_space_group_IT_number       1

loop_
  _space_group_symop_operation_xyz
  'x, y, z'

loop_
  _atom_site_type_symbol
  _atom_site_label
  _atom_site_symmetry_multiplicity
  _atom_site_fract_x
  _atom_site_fract_y
  _atom_site_fract_z
  _atom_site_occupancy
  Al  Al1       1.0  0.12494  0.88854  0.75069  1.0000
  Al  Al2       1.0  0.87506  0.11146  0.24931  1.0000
  Al  Al3       1.0  0.56869  0.32487  0.71580  1.0000
  Al  Al4       1.0  0.43131  0.67513  0.28420  1.0000
  P   P1        1.0  0.36044  0.31051  0.30019  1.0000
  P   P2        1.0  0.63956  0.68949  0.69981  1.0000
  P   P3        1.0  0.11085  0.21248  0.64252  1.0000
  P   P4        1.0  0.88915  0.78752  0.35748  1.0000
  P   P5        1.0  0.58390  0.02570  0.82959  1.0000
  P   P6        1.0  0.41610  0.97430  0.17041  1.0000
  H   H1        1.0  0.82362  0.11610  0.53226  1.0000
  H   H2        1.0  0.17638  0.88390  0.46774  1.0000
  H   H3        1.0  0.64287  0.40298  0.41125  1.0000
  H   H4        1.0  0.35713  0.59702  0.58875  1.0000
  H   H5        1.0  0.76244  0.79682  0.94512  1.0000
  H   H6        1.0  0.23757  0.20318  0.05488  1.0000
  H   H7        1.0  0.31347  0.22844  0.92215  1.0000
  H   H8        1.0  0.68653  0.77156  0.07785  1.0000
  H   H9        1.0  0.55314  0.36483  0.54321  1.0000
  H   H10       1.0  0.44686  0.63517  0.45679  1.0000
  H   H11       1.0  0.91715  0.15042  0.40042  1.0000
  H   H12       1.0  0.08285  0.84958  0.59958  1.0000
  C   C1        1.0  0.41228  0.31907  0.51206  1.0000
  C   C2        1.0  0.58772  0.68094  0.48794  1.0000
  C   C3        1.0  0.18096  0.23924  0.54684  1.0000
  C   C4        1.0  0.81904  0.76076  0.45316  1.0000
  C   C5        1.0  0.00383  0.17875  0.50597  1.0000
  C   C6        1.0  0.99617  0.82126  0.49403  1.0000
  C   C7        1.0  0.05606  0.19831  0.43153  1.0000
  C   C8        1.0  0.94394  0.80169  0.56847  1.0000
  C   C9        1.0  0.28540  0.28007  0.39663  1.0000
  C   C10       1.0  0.71460  0.71993  0.60337  1.0000
  C   C11       1.0  0.46286  0.34006  0.43770  1.0000
  C   C12       1.0  0.53714  0.65995  0.56230  1.0000
  C   C13       1.0  0.54136  0.01398  0.92523  1.0000
  C   C14       1.0  0.45864  0.98602  0.07477  1.0000
  C   C15       1.0  0.64663  0.88552  0.96920  1.0000
  C   C16       1.0  0.35337  0.11448  0.03080  1.0000
  C   C17       1.0  0.39452  0.12851  0.95640  1.0000
  C   C18       1.0  0.60548  0.87149  0.04360  1.0000
  O   O1        1.0  0.65034  0.25826  0.28540  1.0000
  O   O2        1.0  0.34966  0.74173  0.71461  1.0000
  O   O3        1.0  0.15259  0.22581  0.26869  1.0000
  O   O4        1.0  0.84741  0.77419  0.73131  1.0000
  O   O5        1.0  0.34035  0.48940  0.27296  1.0000
  O   O6        1.0  0.65965  0.51060  0.72704  1.0000
  O   O7        1.0  0.18446  0.04465  0.67352  1.0000
  O   O8        1.0  0.81554  0.95535  0.32648  1.0000
  O   O9        1.0  0.27524  0.33401  0.67065  1.0000
  O   O10       1.0  0.72476  0.66599  0.32935  1.0000
  O   O11       1.0  0.52192  0.19909  0.79796  1.0000
  O   O12       1.0  0.47808  0.80091  0.20204  1.0000
  O   O13       1.0  0.87685  0.98674  0.80784  1.0000
  O   O14       1.0  0.12315  0.01326  0.19216  1.0000
  O   O15       1.0  0.37857  0.91538  0.81025  1.0000
  O   O16       1.0  0.62143  0.08462  0.18974  1.0000
  O   O17       1.0  0.80870  0.24580  0.65730  1.0000
  O   O18       1.0  0.19130  0.75420  0.34270  1.0000
