data_image0
_chemical_formula_structural       Al4P8H28C24O28
_chemical_formula_sum              "Al4 P8 H28 C24 O28"
_cell_length_a       9.1621
_cell_length_b       10.1035
_cell_length_c       10.1665
_cell_angle_alpha    105.136
_cell_angle_beta     89.9999
_cell_angle_gamma    90.0002

_space_group_name_H-M_alt    "P 1"
_space_group_IT_number       1

loop_
  _space_group_symop_operation_xyz
  'x, y, z'

loop_
  _atom_site_type_symbol
  _atom_site_label
  _atom_site_symmetry_multiplicity
  _atom_site_fract_x
  _atom_site_fract_y
  _atom_site_fract_z
  _atom_site_occupancy
  Al  Al1       1.0  0.10050  0.00848  0.78755  1.0000
  Al  Al2       1.0  0.60050  0.99152  0.71245  1.0000
  Al  Al3       1.0  0.89950  0.99152  0.21245  1.0000
  Al  Al4       1.0  0.39950  0.00848  0.28755  1.0000
  P   P1        1.0  0.17031  0.13781  0.09752  1.0000
  P   P2        1.0  0.67031  0.86218  0.40249  1.0000
  P   P3        1.0  0.82969  0.86218  0.90248  1.0000
  P   P4        1.0  0.32969  0.13782  0.59751  1.0000
  P   P5        1.0  0.17113  0.77994  0.13343  1.0000
  P   P6        1.0  0.67113  0.22006  0.36657  1.0000
  P   P7        1.0  0.82887  0.22006  0.86657  1.0000
  P   P8        1.0  0.32887  0.77994  0.63343  1.0000
  H   H1        1.0  0.16878  0.81297  0.92569  1.0000
  H   H2        1.0  0.66878  0.18703  0.57431  1.0000
  H   H3        1.0  0.83122  0.18703  0.07431  1.0000
  H   H4        1.0  0.33122  0.81297  0.42569  1.0000
  H   H5        1.0  0.88631  0.93500  0.59198  1.0000
  H   H6        1.0  0.38631  0.06500  0.90802  1.0000
  H   H7        1.0  0.11369  0.06500  0.40802  1.0000
  H   H8        1.0  0.61369  0.93500  0.09198  1.0000
  H   H9        1.0  0.05288  0.89507  0.53674  1.0000
  H   H10       1.0  0.55288  0.10492  0.96326  1.0000
  H   H11       1.0  0.94712  0.10492  0.46326  1.0000
  H   H12       1.0  0.44712  0.89507  0.03674  1.0000
  H   H13       1.0  0.98280  0.36422  0.24669  1.0000
  H   H14       1.0  0.48280  0.63578  0.25331  1.0000
  H   H15       1.0  0.01720  0.63578  0.75331  1.0000
  H   H16       1.0  0.51720  0.36422  0.74669  1.0000
  H   H17       1.0  0.34857  0.55507  0.98479  1.0000
  H   H18       1.0  0.84857  0.44493  0.51521  1.0000
  H   H19       1.0  0.65143  0.44493  0.01521  1.0000
  H   H20       1.0  0.15143  0.55507  0.48479  1.0000
  H   H21       1.0  0.97868  0.61238  0.25660  1.0000
  H   H22       1.0  0.47868  0.38762  0.24340  1.0000
  H   H23       1.0  0.02132  0.38762  0.74340  1.0000
  H   H24       1.0  0.52132  0.61238  0.75660  1.0000
  H   H25       1.0  0.35002  0.30797  0.97178  1.0000
  H   H26       1.0  0.85002  0.69203  0.52822  1.0000
  H   H27       1.0  0.64998  0.69203  0.02822  1.0000
  H   H28       1.0  0.14998  0.30797  0.47178  1.0000
  C   C1        1.0  0.06509  0.40668  0.19168  1.0000
  C   C2        1.0  0.56508  0.59332  0.30832  1.0000
  C   C3        1.0  0.93492  0.59332  0.80832  1.0000
  C   C4        1.0  0.43492  0.40668  0.69168  1.0000
  C   C5        1.0  0.27088  0.51397  0.04506  1.0000
  C   C6        1.0  0.77088  0.48603  0.45494  1.0000
  C   C7        1.0  0.72912  0.48603  0.95494  1.0000
  C   C8        1.0  0.22912  0.51397  0.54506  1.0000
  C   C9        1.0  0.16960  0.31994  0.11229  1.0000
  C   C10       1.0  0.66960  0.68006  0.38771  1.0000
  C   C11       1.0  0.83040  0.68006  0.88771  1.0000
  C   C12       1.0  0.33040  0.31994  0.61229  1.0000
  C   C13       1.0  0.06282  0.54628  0.19765  1.0000
  C   C14       1.0  0.56282  0.45372  0.30235  1.0000
  C   C15       1.0  0.93718  0.45372  0.80235  1.0000
  C   C16       1.0  0.43718  0.54628  0.69765  1.0000
  C   C17       1.0  0.27189  0.37482  0.03836  1.0000
  C   C18       1.0  0.77189  0.62518  0.46164  1.0000
  C   C19       1.0  0.72810  0.62518  0.96164  1.0000
  C   C20       1.0  0.22811  0.37482  0.53836  1.0000
  C   C21       1.0  0.16649  0.60066  0.12496  1.0000
  C   C22       1.0  0.66649  0.39934  0.37504  1.0000
  C   C23       1.0  0.83351  0.39934  0.87504  1.0000
  C   C24       1.0  0.33350  0.60066  0.62496  1.0000
  O   O1        1.0  0.21671  0.06855  0.94802  1.0000
  O   O2        1.0  0.71671  0.93145  0.55198  1.0000
  O   O3        1.0  0.78329  0.93145  0.05198  1.0000
  O   O4        1.0  0.28329  0.06855  0.44802  1.0000
  O   O5        1.0  0.01881  0.83793  0.15727  1.0000
  O   O6        1.0  0.51881  0.16207  0.34273  1.0000
  O   O7        1.0  0.98119  0.16208  0.84273  1.0000
  O   O8        1.0  0.48119  0.83793  0.65727  1.0000
  O   O9        1.0  0.01493  0.10014  0.12767  1.0000
  O   O10       1.0  0.51493  0.89986  0.37233  1.0000
  O   O11       1.0  0.98507  0.89986  0.87233  1.0000
  O   O12       1.0  0.48507  0.10014  0.62767  1.0000
  O   O13       1.0  0.23741  0.78832  0.99067  1.0000
  O   O14       1.0  0.73741  0.21168  0.50933  1.0000
  O   O15       1.0  0.76259  0.21167  0.00933  1.0000
  O   O16       1.0  0.26259  0.78832  0.49067  1.0000
  O   O17       1.0  0.28257  0.10690  0.19539  1.0000
  O   O18       1.0  0.78257  0.89310  0.30461  1.0000
  O   O19       1.0  0.71743  0.89310  0.80461  1.0000
  O   O20       1.0  0.21743  0.10690  0.69539  1.0000
  O   O21       1.0  0.28306  0.84816  0.23945  1.0000
  O   O22       1.0  0.78306  0.15183  0.26054  1.0000
  O   O23       1.0  0.71694  0.15184  0.76055  1.0000
  O   O24       1.0  0.21694  0.84816  0.73946  1.0000
  O   O25       1.0  0.99349  0.93636  0.61660  1.0000
  O   O26       1.0  0.49349  0.06365  0.88340  1.0000
  O   O27       1.0  0.00651  0.06365  0.38340  1.0000
  O   O28       1.0  0.50651  0.93636  0.11660  1.0000
