data_image0
_chemical_formula_structural       Al4P8H20C24O24
_chemical_formula_sum              "Al4 P8 H20 C24 O24"
_cell_length_a       8.8296
_cell_length_b       9.90234
_cell_length_c       9.93054
_cell_angle_alpha    105.385
_cell_angle_beta     90
_cell_angle_gamma    90.0001

_space_group_name_H-M_alt    "P 1"
_space_group_IT_number       1

loop_
  _space_group_symop_operation_xyz
  'x, y, z'

loop_
  _atom_site_type_symbol
  _atom_site_label
  _atom_site_symmetry_multiplicity
  _atom_site_fract_x
  _atom_site_fract_y
  _atom_site_fract_z
  _atom_site_occupancy
  Al  Al1       1.0  0.09066  0.01729  0.81915  1.0000
  Al  Al2       1.0  0.59066  0.98271  0.68085  1.0000
  Al  Al3       1.0  0.90934  0.98271  0.18085  1.0000
  Al  Al4       1.0  0.40934  0.01729  0.31914  1.0000
  P   P1        1.0  0.80047  0.86187  0.87155  1.0000
  P   P2        1.0  0.30047  0.13814  0.62845  1.0000
  P   P3        1.0  0.19953  0.13814  0.12845  1.0000
  P   P4        1.0  0.69953  0.86186  0.37155  1.0000
  P   P5        1.0  0.80094  0.22118  0.88605  1.0000
  P   P6        1.0  0.30094  0.77882  0.61394  1.0000
  P   P7        1.0  0.19906  0.77882  0.11394  1.0000
  P   P8        1.0  0.69906  0.22117  0.38606  1.0000
  H   H1        1.0  0.72614  0.17826  0.08633  1.0000
  H   H2        1.0  0.22614  0.82174  0.41367  1.0000
  H   H3        1.0  0.27386  0.82174  0.91366  1.0000
  H   H4        1.0  0.77386  0.17826  0.58634  1.0000
  H   H5        1.0  0.61070  0.70559  0.01068  1.0000
  H   H6        1.0  0.11070  0.29441  0.48933  1.0000
  H   H7        1.0  0.38930  0.29441  0.98932  1.0000
  H   H8        1.0  0.88930  0.70559  0.51068  1.0000
  H   H9        1.0  0.61769  0.45846  0.02370  1.0000
  H   H10       1.0  0.11769  0.54153  0.47630  1.0000
  H   H11       1.0  0.38231  0.54154  0.97630  1.0000
  H   H12       1.0  0.88231  0.45847  0.52371  1.0000
  H   H13       1.0  0.01176  0.38124  0.75873  1.0000
  H   H14       1.0  0.51176  0.61877  0.74127  1.0000
  H   H15       1.0  0.98824  0.61877  0.24127  1.0000
  H   H16       1.0  0.48824  0.38123  0.25873  1.0000
  H   H17       1.0  0.00836  0.62990  0.74944  1.0000
  H   H18       1.0  0.50836  0.37011  0.75056  1.0000
  H   H19       1.0  0.99164  0.37011  0.25056  1.0000
  H   H20       1.0  0.49164  0.62989  0.24944  1.0000
  C   C1        1.0  0.80581  0.68130  0.87385  1.0000
  C   C2        1.0  0.30581  0.31870  0.62615  1.0000
  C   C3        1.0  0.19418  0.31870  0.12615  1.0000
  C   C4        1.0  0.69419  0.68130  0.37385  1.0000
  C   C5        1.0  0.69707  0.63397  0.95367  1.0000
  C   C6        1.0  0.19707  0.36603  0.54633  1.0000
  C   C7        1.0  0.30293  0.36603  0.04633  1.0000
  C   C8        1.0  0.80293  0.63397  0.45367  1.0000
  C   C9        1.0  0.70000  0.49542  0.96019  1.0000
  C   C10       1.0  0.20000  0.50458  0.53981  1.0000
  C   C11       1.0  0.30000  0.50458  0.03981  1.0000
  C   C12       1.0  0.80000  0.49542  0.46019  1.0000
  C   C13       1.0  0.81055  0.40267  0.88714  1.0000
  C   C14       1.0  0.31055  0.59733  0.61286  1.0000
  C   C15       1.0  0.18945  0.59734  0.11286  1.0000
  C   C16       1.0  0.68945  0.40266  0.38714  1.0000
  C   C17       1.0  0.92261  0.45153  0.81191  1.0000
  C   C18       1.0  0.42261  0.54847  0.68809  1.0000
  C   C19       1.0  0.07739  0.54847  0.18809  1.0000
  C   C20       1.0  0.57739  0.45153  0.31191  1.0000
  C   C21       1.0  0.92018  0.59059  0.80583  1.0000
  C   C22       1.0  0.42018  0.40941  0.69417  1.0000
  C   C23       1.0  0.07982  0.40942  0.19417  1.0000
  C   C24       1.0  0.57982  0.59059  0.30583  1.0000
  O   O1        1.0  0.93844  0.89065  0.78910  1.0000
  O   O2        1.0  0.43844  0.10934  0.71090  1.0000
  O   O3        1.0  0.06156  0.10935  0.21090  1.0000
  O   O4        1.0  0.56156  0.89065  0.28910  1.0000
  O   O5        1.0  0.79920  0.94992  0.02416  1.0000
  O   O6        1.0  0.29920  0.05008  0.47584  1.0000
  O   O7        1.0  0.20080  0.05008  0.97584  1.0000
  O   O8        1.0  0.70080  0.94992  0.52416  1.0000
  O   O9        1.0  0.65139  0.88864  0.80282  1.0000
  O   O10       1.0  0.15139  0.11135  0.69718  1.0000
  O   O11       1.0  0.34861  0.11136  0.19718  1.0000
  O   O12       1.0  0.84861  0.88864  0.30282  1.0000
  O   O13       1.0  0.69116  0.22153  0.01195  1.0000
  O   O14       1.0  0.19116  0.77847  0.48805  1.0000
  O   O15       1.0  0.30884  0.77848  0.98805  1.0000
  O   O16       1.0  0.80884  0.22152  0.51195  1.0000
  O   O17       1.0  0.72402  0.14133  0.74929  1.0000
  O   O18       1.0  0.22401  0.85867  0.75070  1.0000
  O   O19       1.0  0.27598  0.85867  0.25070  1.0000
  O   O20       1.0  0.77598  0.14133  0.24929  1.0000
  O   O21       1.0  0.95767  0.16578  0.90508  1.0000
  O   O22       1.0  0.45767  0.83421  0.59492  1.0000
  O   O23       1.0  0.04233  0.83422  0.09492  1.0000
  O   O24       1.0  0.54233  0.16578  0.40508  1.0000
