data_image0
_chemical_formula_structural       Li2H4C10O8
_chemical_formula_sum              "Li2 H4 C10 O8"
_cell_length_a       5.07743
_cell_length_b       7.15688
_cell_length_c       7.19254
_cell_angle_alpha    83.8775
_cell_angle_beta     76.553
_cell_angle_gamma    81.8576

_space_group_name_H-M_alt    "P 1"
_space_group_IT_number       1

loop_
  _space_group_symop_operation_xyz
  'x, y, z'

loop_
  _atom_site_type_symbol
  _atom_site_label
  _atom_site_symmetry_multiplicity
  _atom_site_fract_x
  _atom_site_fract_y
  _atom_site_fract_z
  _atom_site_occupancy
  Li  Li1       1.0  0.74553  0.53507  0.38691  1.0000
  Li  Li2       1.0  0.25446  0.46493  0.61309  1.0000
  H   H1        1.0  0.84956  0.93898  0.32943  1.0000
  H   H2        1.0  0.15043  0.06102  0.67058  1.0000
  H   H3        1.0  0.32653  0.33656  0.95819  1.0000
  H   H4        1.0  0.67347  0.66344  0.04181  1.0000
  C   C1        1.0  0.99082  0.17973  0.22838  1.0000
  C   C2        1.0  0.00918  0.82026  0.77162  1.0000
  C   C3        1.0  0.24913  0.07413  0.11780  1.0000
  C   C4        1.0  0.75088  0.92587  0.88220  1.0000
  C   C5        1.0  0.40386  0.18738  0.97489  1.0000
  C   C6        1.0  0.59614  0.81261  0.02511  1.0000
  C   C7        1.0  0.64992  0.11965  0.85526  1.0000
  C   C8        1.0  0.35008  0.88035  0.14474  1.0000
  C   C9        1.0  0.77973  0.26506  0.70768  1.0000
  C   C10       1.0  0.22026  0.73494  0.29232  1.0000
  O   O1        1.0  0.96469  0.35521  0.21753  1.0000
  O   O2        1.0  0.03532  0.64480  0.78247  1.0000
  O   O3        1.0  0.79430  0.08661  0.33135  1.0000
  O   O4        1.0  0.20571  0.91339  0.66865  1.0000
  O   O5        1.0  0.62636  0.39670  0.64172  1.0000
  O   O6        1.0  0.37363  0.60330  0.35828  1.0000
  O   O7        1.0  0.04109  0.25316  0.65833  1.0000
  O   O8        1.0  0.95891  0.74684  0.34166  1.0000
