data_image0
_chemical_formula_structural       Co4H28C12N32O2
_chemical_formula_sum              "Co4 H28 C12 N32 O2"
_cell_length_a       8.49773
_cell_length_b       8.48632
_cell_length_c       9.41634
_cell_angle_alpha    90.2825
_cell_angle_beta     90.2876
_cell_angle_gamma    96.2509

_space_group_name_H-M_alt    "P 1"
_space_group_IT_number       1

loop_
  _space_group_symop_operation_xyz
  'x, y, z'

loop_
  _atom_site_type_symbol
  _atom_site_label
  _atom_site_symmetry_multiplicity
  _atom_site_fract_x
  _atom_site_fract_y
  _atom_site_fract_z
  _atom_site_occupancy
  Co  Co1       1.0  0.86409  0.86533  0.93696  1.0000
  Co  Co2       1.0  0.13581  0.13471  0.06300  1.0000
  Co  Co3       1.0  0.50012  0.99990  0.50009  1.0000
  Co  Co4       1.0  0.99998  0.50004  0.50000  1.0000
  H   H1        1.0  0.85593  0.98150  0.66252  1.0000
  H   H2        1.0  0.01982  0.14739  0.33658  1.0000
  H   H3        1.0  0.14440  0.01877  0.33728  1.0000
  H   H4        1.0  0.98044  0.85281  0.66327  1.0000
  H   H5        1.0  0.44245  0.63344  0.40693  1.0000
  H   H6        1.0  0.36757  0.55619  0.59242  1.0000
  H   H7        1.0  0.55751  0.36656  0.59316  1.0000
  H   H8        1.0  0.63249  0.44375  0.40762  1.0000
  H   H9        1.0  0.40588  0.73630  0.24737  1.0000
  H   H10       1.0  0.26490  0.59363  0.75144  1.0000
  H   H11       1.0  0.59414  0.26373  0.75272  1.0000
  H   H12       1.0  0.73510  0.40637  0.24856  1.0000
  H   H13       1.0  0.60283  0.93365  0.15667  1.0000
  H   H14       1.0  0.06739  0.39653  0.84241  1.0000
  H   H15       1.0  0.39718  0.06637  0.84346  1.0000
  H   H16       1.0  0.93259  0.60351  0.15761  1.0000
  H   H17       1.0  0.78656  0.98059  0.25110  1.0000
  H   H18       1.0  0.02073  0.21258  0.74862  1.0000
  H   H19       1.0  0.21348  0.01939  0.74900  1.0000
  H   H20       1.0  0.97924  0.78744  0.25141  1.0000
  H   H21       1.0  0.54595  0.68802  0.03694  1.0000
  H   H22       1.0  0.31227  0.45366  0.96261  1.0000
  H   H23       1.0  0.45396  0.31199  0.96319  1.0000
  H   H24       1.0  0.68763  0.54635  0.03745  1.0000
  H   H25       1.0  0.69153  0.69260  0.53181  1.0000
  H   H26       1.0  0.30849  0.30731  0.46825  1.0000
  H   H27       1.0  0.83809  0.83943  0.46149  1.0000
  H   H28       1.0  0.16195  0.16051  0.53862  1.0000
  C   C1        1.0  0.49664  0.68605  0.31055  1.0000
  C   C2        1.0  0.31494  0.50228  0.68891  1.0000
  C   C3        1.0  0.50336  0.31394  0.68955  1.0000
  C   C4        1.0  0.68507  0.49770  0.31114  1.0000
  C   C5        1.0  0.69348  0.88636  0.22228  1.0000
  C   C6        1.0  0.11496  0.30563  0.77726  1.0000
  C   C7        1.0  0.30654  0.11364  0.77780  1.0000
  C   C8        1.0  0.88501  0.69439  0.22276  1.0000
  C   C9        1.0  0.63569  0.63636  0.09982  1.0000
  C   C10       1.0  0.36424  0.36364  0.90028  1.0000
  C   C11       1.0  0.74400  0.74515  0.43463  1.0000
  C   C12       1.0  0.25602  0.25481  0.56545  1.0000
  N   N1        1.0  0.90246  0.09961  0.99987  1.0000
  N   N2        1.0  0.09714  0.90013  0.00007  1.0000
  N   N3        1.0  0.80580  0.19399  0.00289  1.0000
  N   N4        1.0  0.19371  0.80565  0.99668  1.0000
  N   N5        1.0  0.71191  0.28408  0.00521  1.0000
  N   N6        1.0  0.28764  0.71562  0.99404  1.0000
  N   N7        1.0  0.64516  0.89063  0.87197  1.0000
  N   N8        1.0  0.11842  0.35490  0.13210  1.0000
  N   N9        1.0  0.35509  0.10923  0.12815  1.0000
  N   N10       1.0  0.88122  0.64537  0.86776  1.0000
  N   N11       1.0  0.57655  0.87018  0.76278  1.0000
  N   N12       1.0  0.13222  0.42546  0.24047  1.0000
  N   N13       1.0  0.42376  0.12969  0.23729  1.0000
  N   N14       1.0  0.86754  0.57477  0.75941  1.0000
  N   N15       1.0  0.50025  0.84978  0.65608  1.0000
  N   N16       1.0  0.14980  0.50329  0.34672  1.0000
  N   N17       1.0  0.50013  0.15019  0.34395  1.0000
  N   N18       1.0  0.85012  0.49688  0.65318  1.0000
  N   N19       1.0  0.72201  0.09513  0.55495  1.0000
  N   N20       1.0  0.90932  0.28435  0.44515  1.0000
  N   N21       1.0  0.27817  0.90490  0.44518  1.0000
  N   N22       1.0  0.09077  0.71570  0.55488  1.0000
  N   N23       1.0  0.81138  0.19440  0.50105  1.0000
  N   N24       1.0  0.18877  0.80563  0.49903  1.0000
  N   N25       1.0  0.76467  0.76562  0.13613  1.0000
  N   N26       1.0  0.23527  0.23436  0.86394  1.0000
  N   N27       1.0  0.61999  0.81630  0.35327  1.0000
  N   N28       1.0  0.18524  0.37876  0.64657  1.0000
  N   N29       1.0  0.38004  0.18367  0.64683  1.0000
  N   N30       1.0  0.81478  0.62122  0.35347  1.0000
  N   N31       1.0  0.56377  0.56454  0.22765  1.0000
  N   N32       1.0  0.43620  0.43544  0.77245  1.0000
  O   O1        1.0  0.94313  0.94185  0.71754  1.0000
  O   O2        1.0  0.05715  0.05838  0.28228  1.0000
