data_image0
_chemical_formula_structural       Cd4H24C20N8O24
_chemical_formula_sum              "Cd4 H24 C20 N8 O24"
_cell_length_a       7.45389
_cell_length_b       10.4995
_cell_length_c       11.7059
_cell_angle_alpha    84.1466
_cell_angle_beta     71.4692
_cell_angle_gamma    71.2437

_space_group_name_H-M_alt    "P 1"
_space_group_IT_number       1

loop_
  _space_group_symop_operation_xyz
  'x, y, z'

loop_
  _atom_site_type_symbol
  _atom_site_label
  _atom_site_symmetry_multiplicity
  _atom_site_fract_x
  _atom_site_fract_y
  _atom_site_fract_z
  _atom_site_occupancy
  Cd  Cd1       1.0  0.99732  0.40229  0.15625  1.0000
  Cd  Cd2       1.0  0.84617  0.09785  0.15631  1.0000
  Cd  Cd3       1.0  0.00268  0.59771  0.84375  1.0000
  Cd  Cd4       1.0  0.15383  0.90215  0.84369  1.0000
  H   H1        1.0  0.77796  0.48694  0.44688  1.0000
  H   H2        1.0  0.77516  0.01307  0.44677  1.0000
  H   H3        1.0  0.22205  0.51306  0.55312  1.0000
  H   H4        1.0  0.22484  0.98693  0.55323  1.0000
  H   H5        1.0  0.44444  0.87213  0.35272  1.0000
  H   H6        1.0  0.20318  0.62807  0.35256  1.0000
  H   H7        1.0  0.55556  0.12787  0.64728  1.0000
  H   H8        1.0  0.79682  0.37193  0.64744  1.0000
  H   H9        1.0  0.28890  0.52271  0.14057  1.0000
  H   H10       1.0  0.57054  0.97726  0.14047  1.0000
  H   H11       1.0  0.71110  0.47729  0.85943  1.0000
  H   H12       1.0  0.42946  0.02274  0.85953  1.0000
  H   H13       1.0  0.30874  0.41078  0.24400  1.0000
  H   H14       1.0  0.44710  0.08930  0.24381  1.0000
  H   H15       1.0  0.69126  0.58922  0.75600  1.0000
  H   H16       1.0  0.55290  0.91070  0.75619  1.0000
  H   H17       1.0  0.69609  0.34784  0.06648  1.0000
  H   H18       1.0  0.23744  0.15223  0.06636  1.0000
  H   H19       1.0  0.30391  0.65216  0.93352  1.0000
  H   H20       1.0  0.76256  0.84777  0.93364  1.0000
  H   H21       1.0  0.60870  0.36312  0.21725  1.0000
  H   H22       1.0  0.17468  0.13691  0.21695  1.0000
  H   H23       1.0  0.39130  0.63688  0.78275  1.0000
  H   H24       1.0  0.82532  0.86309  0.78305  1.0000
  C   C1        1.0  0.67551  0.69236  0.24914  1.0000
  C   C2        1.0  0.07513  0.80764  0.24900  1.0000
  C   C3        1.0  0.32449  0.30764  0.75086  1.0000
  C   C4        1.0  0.92487  0.19236  0.75100  1.0000
  C   C5        1.0  0.54616  0.77121  0.35064  1.0000
  C   C6        1.0  0.10330  0.72892  0.35051  1.0000
  C   C7        1.0  0.45384  0.22879  0.64936  1.0000
  C   C8        1.0  0.89670  0.27108  0.64949  1.0000
  C   C9        1.0  0.57582  0.69076  0.44990  1.0000
  C   C10       1.0  0.97454  0.80940  0.44979  1.0000
  C   C11       1.0  0.42418  0.30924  0.55009  1.0000
  C   C12       1.0  0.02546  0.19061  0.55021  1.0000
  C   C13       1.0  0.72612  0.71709  0.11686  1.0000
  C   C14       1.0  0.15724  0.78294  0.11672  1.0000
  C   C15       1.0  0.27388  0.28291  0.88314  1.0000
  C   C16       1.0  0.84275  0.21706  0.88328  1.0000
  C   C17       1.0  0.48742  0.71259  0.58208  1.0000
  C   C18       1.0  0.93016  0.78745  0.58201  1.0000
  C   C19       1.0  0.51258  0.28741  0.41792  1.0000
  C   C20       1.0  0.06984  0.21255  0.41799  1.0000
  N   N1        1.0  0.71452  0.57256  0.40480  1.0000
  N   N2        1.0  0.88075  0.92749  0.40467  1.0000
  N   N3        1.0  0.28548  0.42744  0.59520  1.0000
  N   N4        1.0  0.11925  0.07251  0.59533  1.0000
  N   N5        1.0  0.77547  0.57193  0.28548  1.0000
  N   N6        1.0  0.93889  0.92807  0.28533  1.0000
  N   N7        1.0  0.22453  0.42807  0.71452  1.0000
  N   N8        1.0  0.06111  0.07192  0.71467  1.0000
  O   O1        1.0  0.85898  0.61948  0.05203  1.0000
  O   O2        1.0  0.09012  0.88080  0.05183  1.0000
  O   O3        1.0  0.14103  0.38052  0.94797  1.0000
  O   O4        1.0  0.90987  0.11920  0.94817  1.0000
  O   O5        1.0  0.64207  0.82989  0.07710  1.0000
  O   O6        1.0  0.28077  0.67000  0.07703  1.0000
  O   O7        1.0  0.35793  0.17011  0.92290  1.0000
  O   O8        1.0  0.71923  0.33000  0.92297  1.0000
  O   O9        1.0  0.55160  0.61480  0.64840  1.0000
  O   O10       1.0  0.79867  0.88496  0.64824  1.0000
  O   O11       1.0  0.44841  0.38520  0.35159  1.0000
  O   O12       1.0  0.20133  0.11504  0.35176  1.0000
  O   O13       1.0  0.35632  0.82350  0.61841  1.0000
  O   O14       1.0  0.02512  0.67665  0.61842  1.0000
  O   O15       1.0  0.64368  0.17650  0.38159  1.0000
  O   O16       1.0  0.97488  0.32335  0.38158  1.0000
  O   O17       1.0  0.28250  0.42966  0.16570  1.0000
  O   O18       1.0  0.55170  0.07036  0.16555  1.0000
  O   O19       1.0  0.71750  0.57034  0.83430  1.0000
  O   O20       1.0  0.44830  0.92964  0.83445  1.0000
  O   O21       1.0  0.73041  0.33514  0.14458  1.0000
  O   O22       1.0  0.12521  0.16484  0.14448  1.0000
  O   O23       1.0  0.26959  0.66486  0.85542  1.0000
  O   O24       1.0  0.87479  0.83516  0.85552  1.0000
