data_image0
_chemical_formula_structural       Cd4H12C10Br2N4Cl6O8
_chemical_formula_sum              "Cd4 H12 C10 Br2 N4 Cl6 O8"
_cell_length_a       6.93738
_cell_length_b       9.94445
_cell_length_c       9.94451
_cell_angle_alpha    106.211
_cell_angle_beta     90
_cell_angle_gamma    90.0005

_space_group_name_H-M_alt    "P 1"
_space_group_IT_number       1

loop_
  _space_group_symop_operation_xyz
  'x, y, z'

loop_
  _atom_site_type_symbol
  _atom_site_label
  _atom_site_symmetry_multiplicity
  _atom_site_fract_x
  _atom_site_fract_y
  _atom_site_fract_z
  _atom_site_occupancy
  Cd  Cd1       1.0  0.15890  0.35366  0.98676  1.0000
  Cd  Cd2       1.0  0.65890  0.64633  0.01324  1.0000
  Cd  Cd3       1.0  0.34110  0.01324  0.64635  1.0000
  Cd  Cd4       1.0  0.84110  0.98676  0.35366  1.0000
  H   H1        1.0  0.08060  0.57789  0.31376  1.0000
  H   H2        1.0  0.58060  0.42211  0.68623  1.0000
  H   H3        1.0  0.41940  0.68624  0.42211  1.0000
  H   H4        1.0  0.91940  0.31376  0.57789  1.0000
  H   H5        1.0  0.45524  0.16094  0.98966  1.0000
  H   H6        1.0  0.95524  0.83905  0.01035  1.0000
  H   H7        1.0  0.04476  0.01034  0.83906  1.0000
  H   H8        1.0  0.54476  0.98965  0.16095  1.0000
  H   H9        1.0  0.56036  0.30604  0.01686  1.0000
  H   H10       1.0  0.06036  0.69395  0.98314  1.0000
  H   H11       1.0  0.93963  0.98314  0.69396  1.0000
  H   H12       1.0  0.43964  0.01686  0.30605  1.0000
  C   C1        1.0  0.04444  0.47772  0.33210  1.0000
  C   C2        1.0  0.54444  0.52227  0.66790  1.0000
  C   C3        1.0  0.45556  0.66790  0.52228  1.0000
  C   C4        1.0  0.95556  0.33210  0.47772  1.0000
  C   C5        1.0  1.00000  0.46525  0.46524  1.0000
  C   C6        1.0  0.50000  0.53476  0.53475  1.0000
  C   C7        1.0  1.00000  0.24045  0.24044  1.0000
  C   C8        1.0  0.50000  0.75955  0.75955  1.0000
  C   C9        1.0  0.00000  0.11298  0.11298  1.0000
  C   C10       1.0  0.50000  0.88702  0.88702  1.0000
  Br  Br1       1.0  0.00001  0.62271  0.62269  1.0000
  Br  Br2       1.0  0.50000  0.37731  0.37730  1.0000
  N   N1        1.0  0.04458  0.36460  0.22092  1.0000
  N   N2        1.0  0.54458  0.63540  0.77907  1.0000
  N   N3        1.0  0.45542  0.77907  0.63540  1.0000
  N   N4        1.0  0.95541  0.22093  0.36459  1.0000
  Cl  Cl1       1.0  0.29313  0.60238  0.07585  1.0000
  Cl  Cl2       1.0  0.79312  0.39762  0.92415  1.0000
  Cl  Cl3       1.0  0.20687  0.92415  0.39763  1.0000
  Cl  Cl4       1.0  0.70688  0.07585  0.60238  1.0000
  Cl  Cl5       1.0  0.25000  0.27562  0.72438  1.0000
  Cl  Cl6       1.0  0.75000  0.72438  0.27563  1.0000
  O   O1        1.0  0.04949  0.13123  0.99685  1.0000
  O   O2        1.0  0.54951  0.86877  0.00315  1.0000
  O   O3        1.0  0.45051  0.00314  0.86877  1.0000
  O   O4        1.0  0.95051  0.99686  0.13122  1.0000
  O   O5        1.0  0.44924  0.26045  0.04803  1.0000
  O   O6        1.0  0.94924  0.73955  0.95197  1.0000
  O   O7        1.0  0.05076  0.95197  0.73955  1.0000
  O   O8        1.0  0.55077  0.04803  0.26045  1.0000
