data_image0
_chemical_formula_structural       Cd4H48C16N48
_chemical_formula_sum              "Cd4 H48 C16 N48"
_cell_length_a       7.24166
_cell_length_b       11.4667
_cell_length_c       13.3785
_cell_angle_alpha    90.0001
_cell_angle_beta     103.978
_cell_angle_gamma    89.9999

_space_group_name_H-M_alt    "P 1"
_space_group_IT_number       1

loop_
  _space_group_symop_operation_xyz
  'x, y, z'

loop_
  _atom_site_type_symbol
  _atom_site_label
  _atom_site_symmetry_multiplicity
  _atom_site_fract_x
  _atom_site_fract_y
  _atom_site_fract_z
  _atom_site_occupancy
  Cd  Cd1       1.0  0.94718  0.73350  0.18160  1.0000
  Cd  Cd2       1.0  0.55282  0.23350  0.31840  1.0000
  Cd  Cd3       1.0  0.05282  0.26650  0.81841  1.0000
  Cd  Cd4       1.0  0.44718  0.76650  0.68160  1.0000
  H   H1        1.0  0.69483  0.64462  0.34025  1.0000
  H   H2        1.0  0.80517  0.14462  0.15975  1.0000
  H   H3        1.0  0.30517  0.35538  0.65976  1.0000
  H   H4        1.0  0.19483  0.85538  0.84025  1.0000
  H   H5        1.0  0.67899  0.51431  0.40260  1.0000
  H   H6        1.0  0.82101  0.01431  0.09740  1.0000
  H   H7        1.0  0.32102  0.48569  0.59740  1.0000
  H   H8        1.0  0.17898  0.98569  0.90260  1.0000
  H   H9        1.0  0.04402  0.92214  0.37803  1.0000
  H   H10       1.0  0.45598  0.42214  0.12197  1.0000
  H   H11       1.0  0.95598  0.07786  0.62197  1.0000
  H   H12       1.0  0.54402  0.57786  0.87803  1.0000
  H   H13       1.0  0.20353  0.93563  0.49444  1.0000
  H   H14       1.0  0.29647  0.43563  0.00556  1.0000
  H   H15       1.0  0.79647  0.06437  0.50556  1.0000
  H   H16       1.0  0.70353  0.56437  0.99444  1.0000
  H   H17       1.0  0.17217  0.54350  0.12673  1.0000
  H   H18       1.0  0.32783  0.04349  0.37327  1.0000
  H   H19       1.0  0.82783  0.45651  0.87327  1.0000
  H   H20       1.0  0.67217  0.95650  0.62673  1.0000
  H   H21       1.0  0.09176  0.61575  0.02106  1.0000
  H   H22       1.0  0.40824  0.11575  0.47894  1.0000
  H   H23       1.0  0.90824  0.38425  0.97894  1.0000
  H   H24       1.0  0.59176  0.88425  0.52106  1.0000
  H   H25       1.0  0.41513  0.66025  0.05697  1.0000
  H   H26       1.0  0.08487  0.16025  0.44303  1.0000
  H   H27       1.0  0.58487  0.33975  0.94303  1.0000
  H   H28       1.0  0.91513  0.83975  0.55697  1.0000
  H   H29       1.0  0.41924  0.67181  0.19003  1.0000
  H   H30       1.0  0.08076  0.17181  0.30997  1.0000
  H   H31       1.0  0.58076  0.32819  0.80997  1.0000
  H   H32       1.0  0.91924  0.82819  0.69003  1.0000
  H   H33       1.0  0.43044  0.86582  0.09854  1.0000
  H   H34       1.0  0.06956  0.36582  0.40146  1.0000
  H   H35       1.0  0.56956  0.13418  0.90146  1.0000
  H   H36       1.0  0.93044  0.63418  0.59854  1.0000
  H   H37       1.0  0.19752  0.83587  0.02343  1.0000
  H   H38       1.0  0.30248  0.33587  0.47657  1.0000
  H   H39       1.0  0.80248  0.16413  0.97657  1.0000
  H   H40       1.0  0.69752  0.66413  0.52343  1.0000
  H   H41       1.0  0.17413  0.95035  0.16442  1.0000
  H   H42       1.0  0.32587  0.45035  0.33558  1.0000
  H   H43       1.0  0.82587  0.04965  0.83558  1.0000
  H   H44       1.0  0.67413  0.54964  0.66442  1.0000
  H   H45       1.0  0.30304  0.86148  0.24840  1.0000
  H   H46       1.0  0.19696  0.36149  0.25160  1.0000
  H   H47       1.0  0.69696  0.13851  0.75160  1.0000
  H   H48       1.0  0.80304  0.63851  0.74840  1.0000
  C   C1        1.0  0.72905  0.49851  0.26169  1.0000
  C   C2        1.0  0.77095  0.99851  0.23831  1.0000
  C   C3        1.0  0.27095  0.50149  0.73831  1.0000
  C   C4        1.0  0.22905  0.00149  0.76169  1.0000
  C   C5        1.0  0.17499  0.77232  0.43373  1.0000
  C   C6        1.0  0.32501  0.27232  0.06627  1.0000
  C   C7        1.0  0.82501  0.22768  0.56627  1.0000
  C   C8        1.0  0.67499  0.72768  0.93373  1.0000
  C   C9        1.0  0.33314  0.68944  0.11181  1.0000
  C   C10       1.0  0.16686  0.18944  0.38819  1.0000
  C   C11       1.0  0.66685  0.31056  0.88819  1.0000
  C   C12       1.0  0.83314  0.81056  0.61181  1.0000
  C   C13       1.0  0.29719  0.81979  0.09825  1.0000
  C   C14       1.0  0.20281  0.31979  0.40175  1.0000
  C   C15       1.0  0.70281  0.18021  0.90175  1.0000
  C   C16       1.0  0.79719  0.68021  0.59825  1.0000
  N   N1        1.0  0.79801  0.54654  0.18595  1.0000
  N   N2        1.0  0.70199  0.04654  0.31405  1.0000
  N   N3        1.0  0.20199  0.45346  0.81405  1.0000
  N   N4        1.0  0.29801  0.95346  0.68595  1.0000
  N   N5        1.0  0.84290  0.45496  0.13095  1.0000
  N   N6        1.0  0.65711  0.95495  0.36905  1.0000
  N   N7        1.0  0.15711  0.54505  0.86905  1.0000
  N   N8        1.0  0.34290  0.04504  0.63095  1.0000
  N   N9        1.0  0.80163  0.35693  0.17065  1.0000
  N   N10       1.0  0.69837  0.85693  0.32934  1.0000
  N   N11       1.0  0.19836  0.64307  0.82934  1.0000
  N   N12       1.0  0.30163  0.14307  0.67066  1.0000
  N   N13       1.0  0.72821  0.38056  0.25293  1.0000
  N   N14       1.0  0.77179  0.88056  0.24707  1.0000
  N   N15       1.0  0.27179  0.61944  0.74707  1.0000
  N   N16       1.0  0.22821  0.11944  0.75293  1.0000
  N   N17       1.0  0.66069  0.55811  0.33325  1.0000
  N   N18       1.0  0.83931  0.05811  0.16675  1.0000
  N   N19       1.0  0.33931  0.44189  0.66675  1.0000
  N   N20       1.0  0.16068  0.94189  0.83325  1.0000
  N   N21       1.0  0.10021  0.69810  0.35649  1.0000
  N   N22       1.0  0.39980  0.19810  0.14352  1.0000
  N   N23       1.0  0.89980  0.30190  0.64352  1.0000
  N   N24       1.0  0.60020  0.80190  0.85648  1.0000
  N   N25       1.0  0.15287  0.59008  0.39376  1.0000
  N   N26       1.0  0.34713  0.09008  0.10624  1.0000
  N   N27       1.0  0.84713  0.40992  0.60624  1.0000
  N   N28       1.0  0.65287  0.90992  0.89376  1.0000
  N   N29       1.0  0.25422  0.59881  0.48834  1.0000
  N   N30       1.0  0.24578  0.09881  0.01166  1.0000
  N   N31       1.0  0.74578  0.40119  0.51166  1.0000
  N   N32       1.0  0.75422  0.90119  0.98834  1.0000
  N   N33       1.0  0.27044  0.71290  0.51671  1.0000
  N   N34       1.0  0.22956  0.21290  0.98329  1.0000
  N   N35       1.0  0.72956  0.28710  0.48329  1.0000
  N   N36       1.0  0.77044  0.78710  0.01671  1.0000
  N   N37       1.0  0.16484  0.89164  0.42633  1.0000
  N   N38       1.0  0.33516  0.39163  0.07367  1.0000
  N   N39       1.0  0.83516  0.10837  0.57367  1.0000
  N   N40       1.0  0.66485  0.60836  0.92633  1.0000
  N   N41       1.0  0.15159  0.62640  0.09820  1.0000
  N   N42       1.0  0.34841  0.12640  0.40179  1.0000
  N   N43       1.0  0.84841  0.37360  0.90179  1.0000
  N   N44       1.0  0.65159  0.87360  0.59821  1.0000
  N   N45       1.0  0.20658  0.86402  0.17844  1.0000
  N   N46       1.0  0.29342  0.36402  0.32156  1.0000
  N   N47       1.0  0.79342  0.13598  0.82156  1.0000
  N   N48       1.0  0.70658  0.63598  0.67844  1.0000
