data_image0
_chemical_formula_structural       Co2H24C20O12
_chemical_formula_sum              "Co2 H24 C20 O12"
_cell_length_a       5.31742
_cell_length_b       9.15692
_cell_length_c       10.2556
_cell_angle_alpha    100.724
_cell_angle_beta     90.0037
_cell_angle_gamma    90.0007

_space_group_name_H-M_alt    "P 1"
_space_group_IT_number       1

loop_
  _space_group_symop_operation_xyz
  'x, y, z'

loop_
  _atom_site_type_symbol
  _atom_site_label
  _atom_site_symmetry_multiplicity
  _atom_site_fract_x
  _atom_site_fract_y
  _atom_site_fract_z
  _atom_site_occupancy
  Co  Co1       1.0  0.00001  0.50000  0.49999  1.0000
  Co  Co2       1.0  0.49999  1.00000  0.50000  1.0000
  H   H1        1.0  0.24020  0.42468  0.79746  1.0000
  H   H2        1.0  0.74016  0.07529  0.20245  1.0000
  H   H3        1.0  0.75981  0.57534  0.20254  1.0000
  H   H4        1.0  0.25983  0.92470  0.79756  1.0000
  H   H5        1.0  0.90306  0.37309  0.02417  1.0000
  H   H6        1.0  0.40299  0.12702  0.97590  1.0000
  H   H7        1.0  0.09695  0.62691  0.97582  1.0000
  H   H8        1.0  0.59700  0.87298  0.02409  1.0000
  H   H9        1.0  0.54341  0.16590  0.77664  1.0000
  H   H10       1.0  0.04307  0.33399  0.22339  1.0000
  H   H11       1.0  0.45657  0.83412  0.22337  1.0000
  H   H12       1.0  0.95696  0.66600  0.77662  1.0000
  H   H13       1.0  0.85574  0.21782  0.81866  1.0000
  H   H14       1.0  0.35547  0.28240  0.18147  1.0000
  H   H15       1.0  0.14428  0.78220  0.18136  1.0000
  H   H16       1.0  0.64453  0.71759  0.81853  1.0000
  H   H17       1.0  0.33737  0.68066  0.57047  1.0000
  H   H18       1.0  0.83731  0.81933  0.42949  1.0000
  H   H19       1.0  0.66264  0.31934  0.42952  1.0000
  H   H20       1.0  0.16268  0.18067  0.57052  1.0000
  H   H21       1.0  0.46216  0.54710  0.62664  1.0000
  H   H22       1.0  0.96212  0.95286  0.37332  1.0000
  H   H23       1.0  0.53784  0.45289  0.37335  1.0000
  H   H24       1.0  0.03790  0.04714  0.62669  1.0000
  C   C1        1.0  0.35662  0.45740  0.88568  1.0000
  C   C2        1.0  0.85656  0.04260  0.11425  1.0000
  C   C3        1.0  0.64339  0.54261  0.11432  1.0000
  C   C4        1.0  0.14344  0.95742  0.88575  1.0000
  C   C5        1.0  0.58461  0.38466  0.89767  1.0000
  C   C6        1.0  0.08457  0.11535  0.10235  1.0000
  C   C7        1.0  0.41538  0.61533  0.10233  1.0000
  C   C8        1.0  0.91542  0.88465  0.89765  1.0000
  C   C9        1.0  0.72523  0.42851  0.01367  1.0000
  C   C10       1.0  0.22520  0.07155  0.98638  1.0000
  C   C11       1.0  0.27476  0.57148  0.98633  1.0000
  C   C12       1.0  0.77482  0.92844  0.01362  1.0000
  C   C13       1.0  0.67354  0.26016  0.79020  1.0000
  C   C14       1.0  0.17343  0.23983  0.20984  1.0000
  C   C15       1.0  0.32646  0.73985  0.20981  1.0000
  C   C16       1.0  0.82658  0.76015  0.79016  1.0000
  C   C17       1.0  0.71531  0.30389  0.65619  1.0000
  C   C18       1.0  0.21526  0.19614  0.34381  1.0000
  C   C19       1.0  0.28469  0.69612  0.34380  1.0000
  C   C20       1.0  0.78472  0.80386  0.65620  1.0000
  O   O1        1.0  0.80479  0.43341  0.65446  1.0000
  O   O2        1.0  0.30470  0.06662  0.34554  1.0000
  O   O3        1.0  0.19520  0.56660  0.34553  1.0000
  O   O4        1.0  0.69527  0.93337  0.65446  1.0000
  O   O5        1.0  0.66734  0.21179  0.54879  1.0000
  O   O6        1.0  0.16733  0.28819  0.45122  1.0000
  O   O7        1.0  0.33263  0.78820  0.45121  1.0000
  O   O8        1.0  0.83266  0.71182  0.54878  1.0000
  O   O9        1.0  0.30353  0.60081  0.62316  1.0000
  O   O10       1.0  0.80345  0.89917  0.37682  1.0000
  O   O11       1.0  0.69648  0.39919  0.37684  1.0000
  O   O12       1.0  0.19657  0.10083  0.62318  1.0000
