data_image0
_chemical_formula_structural       Co4H32C40O16
_chemical_formula_sum              "Co4 H32 C40 O16"
_cell_length_a       4.87409
_cell_length_b       9.6616
_cell_length_c       19.6333
_cell_angle_alpha    95.9078
_cell_angle_beta     90
_cell_angle_gamma    89.9997

_space_group_name_H-M_alt    "P 1"
_space_group_IT_number       1

loop_
  _space_group_symop_operation_xyz
  'x, y, z'

loop_
  _atom_site_type_symbol
  _atom_site_label
  _atom_site_symmetry_multiplicity
  _atom_site_fract_x
  _atom_site_fract_y
  _atom_site_fract_z
  _atom_site_occupancy
  Co  Co1       1.0  0.30855  0.71247  0.76232  1.0000
  Co  Co2       1.0  0.80856  0.78753  0.23768  1.0000
  Co  Co3       1.0  0.69145  0.28753  0.23768  1.0000
  Co  Co4       1.0  0.19145  0.21247  0.76233  1.0000
  H   H1        1.0  0.63839  0.68107  0.01858  1.0000
  H   H2        1.0  0.13839  0.81894  0.98142  1.0000
  H   H3        1.0  0.36161  0.31893  0.98142  1.0000
  H   H4        1.0  0.86161  0.18107  0.01858  1.0000
  H   H5        1.0  0.09055  0.38534  0.88354  1.0000
  H   H6        1.0  0.59054  0.11466  0.11647  1.0000
  H   H7        1.0  0.90945  0.61466  0.11646  1.0000
  H   H8        1.0  0.40946  0.88534  0.88354  1.0000
  H   H9        1.0  0.35953  0.32120  0.50920  1.0000
  H   H10       1.0  0.85953  0.17880  0.49080  1.0000
  H   H11       1.0  0.64047  0.67880  0.49080  1.0000
  H   H12       1.0  0.14047  0.82120  0.50920  1.0000
  H   H13       1.0  0.68724  0.56598  0.59789  1.0000
  H   H14       1.0  0.18723  0.93402  0.40211  1.0000
  H   H15       1.0  0.31276  0.43402  0.40211  1.0000
  H   H16       1.0  0.81276  0.06598  0.59789  1.0000
  H   H17       1.0  0.49145  0.63407  0.90206  1.0000
  H   H18       1.0  0.99146  0.86593  0.09794  1.0000
  H   H19       1.0  0.50855  0.36593  0.09794  1.0000
  H   H20       1.0  0.00855  0.13407  0.90205  1.0000
  H   H21       1.0  0.59695  0.48163  0.85385  1.0000
  H   H22       1.0  0.09694  0.01837  0.14615  1.0000
  H   H23       1.0  0.40306  0.51837  0.14616  1.0000
  H   H24       1.0  0.90306  0.98163  0.85385  1.0000
  H   H25       1.0  0.85992  0.33080  0.64381  1.0000
  H   H26       1.0  0.35992  0.16920  0.35619  1.0000
  H   H27       1.0  0.14008  0.66920  0.35619  1.0000
  H   H28       1.0  0.64008  0.83080  0.64381  1.0000
  H   H29       1.0  0.18804  0.27293  0.61710  1.0000
  H   H30       1.0  0.68804  0.22706  0.38290  1.0000
  H   H31       1.0  0.81196  0.72707  0.38290  1.0000
  H   H32       1.0  0.31196  0.77294  0.61710  1.0000
  C   C1        1.0  0.79696  0.60144  0.01010  1.0000
  C   C2        1.0  0.29697  0.89856  0.98990  1.0000
  C   C3        1.0  0.20303  0.39856  0.98990  1.0000
  C   C4        1.0  0.70304  0.10144  0.01010  1.0000
  C   C5        1.0  0.04856  0.43537  0.93478  1.0000
  C   C6        1.0  0.54856  0.06463  0.06522  1.0000
  C   C7        1.0  0.95144  0.56463  0.06522  1.0000
  C   C8        1.0  0.45144  0.93537  0.93478  1.0000
  C   C9        1.0  0.84345  0.53695  0.94392  1.0000
  C   C10       1.0  0.34345  0.96305  0.05608  1.0000
  C   C11       1.0  0.15655  0.46305  0.05608  1.0000
  C   C12       1.0  0.65655  0.03695  0.94392  1.0000
  C   C13       1.0  0.67550  0.57552  0.88450  1.0000
  C   C14       1.0  0.17550  0.92448  0.11550  1.0000
  C   C15       1.0  0.32450  0.42448  0.11550  1.0000
  C   C16       1.0  0.82450  0.07552  0.88450  1.0000
  C   C17       1.0  0.82531  0.65599  0.83373  1.0000
  C   C18       1.0  0.32532  0.84401  0.16626  1.0000
  C   C19       1.0  0.17469  0.34401  0.16627  1.0000
  C   C20       1.0  0.67468  0.15599  0.83373  1.0000
  C   C21       1.0  0.20115  0.39974  0.50522  1.0000
  C   C22       1.0  0.70115  0.10026  0.49478  1.0000
  C   C23       1.0  0.79884  0.60026  0.49478  1.0000
  C   C24       1.0  0.29885  0.89974  0.50522  1.0000
  C   C25       1.0  0.82548  0.53684  0.55509  1.0000
  C   C26       1.0  0.32548  0.96316  0.44491  1.0000
  C   C27       1.0  0.17452  0.46316  0.44491  1.0000
  C   C28       1.0  0.67452  0.03684  0.55509  1.0000
  C   C29       1.0  0.02724  0.43572  0.56104  1.0000
  C   C30       1.0  0.52724  0.06428  0.43896  1.0000
  C   C31       1.0  0.97276  0.56428  0.43896  1.0000
  C   C32       1.0  0.47276  0.93572  0.56104  1.0000
  C   C33       1.0  0.05983  0.36675  0.62577  1.0000
  C   C34       1.0  0.55983  0.13325  0.37423  1.0000
  C   C35       1.0  0.94018  0.63325  0.37423  1.0000
  C   C36       1.0  0.44017  0.86675  0.62577  1.0000
  C   C37       1.0  0.18068  0.45747  0.68606  1.0000
  C   C38       1.0  0.68068  0.04253  0.31394  1.0000
  C   C39       1.0  0.81933  0.54253  0.31394  1.0000
  C   C40       1.0  0.31932  0.95747  0.68606  1.0000
  O   O1        1.0  0.69534  0.70209  0.78413  1.0000
  O   O2        1.0  0.19535  0.79792  0.21586  1.0000
  O   O3        1.0  0.30466  0.29792  0.21587  1.0000
  O   O4        1.0  0.80465  0.20208  0.78414  1.0000
  O   O5        1.0  0.08419  0.67302  0.83990  1.0000
  O   O6        1.0  0.58419  0.82699  0.16010  1.0000
  O   O7        1.0  0.91581  0.32698  0.16010  1.0000
  O   O8        1.0  0.41581  0.17301  0.83989  1.0000
  O   O9        1.0  0.21290  0.58708  0.68129  1.0000
  O   O10       1.0  0.71290  0.91292  0.31871  1.0000
  O   O11       1.0  0.78710  0.41292  0.31871  1.0000
  O   O12       1.0  0.28710  0.08708  0.68129  1.0000
  O   O13       1.0  0.24427  0.40347  0.74071  1.0000
  O   O14       1.0  0.74427  0.09653  0.25929  1.0000
  O   O15       1.0  0.75574  0.59653  0.25929  1.0000
  O   O16       1.0  0.25573  0.90347  0.74071  1.0000
