data_image0
_chemical_formula_structural       Mn2H32C40S4N20O12
_chemical_formula_sum              "Mn2 H32 C40 S4 N20 O12"
_cell_length_a       7.4944
_cell_length_b       11.5781
_cell_length_c       14.401
_cell_angle_alpha    89.9775
_cell_angle_beta     89.9636
_cell_angle_gamma    103.343

_space_group_name_H-M_alt    "P 1"
_space_group_IT_number       1

loop_
  _space_group_symop_operation_xyz
  'x, y, z'

loop_
  _atom_site_type_symbol
  _atom_site_label
  _atom_site_symmetry_multiplicity
  _atom_site_fract_x
  _atom_site_fract_y
  _atom_site_fract_z
  _atom_site_occupancy
  Mn  Mn1       1.0  0.99999  0.00001  0.50000  1.0000
  Mn  Mn2       1.0  0.49997  0.49999  1.00000  1.0000
  H   H1        1.0  0.53645  0.86838  0.48526  1.0000
  H   H2        1.0  0.96332  0.63154  0.98522  1.0000
  H   H3        1.0  0.46359  0.13160  0.51477  1.0000
  H   H4        1.0  0.03666  0.36847  0.01479  1.0000
  H   H5        1.0  0.96661  0.86017  0.29750  1.0000
  H   H6        1.0  0.53361  0.63988  0.79746  1.0000
  H   H7        1.0  0.03341  0.13981  0.70252  1.0000
  H   H8        1.0  0.46639  0.36011  0.20252  1.0000
  H   H9        1.0  0.67056  0.67217  0.25701  1.0000
  H   H10       1.0  0.82981  0.82801  0.75701  1.0000
  H   H11       1.0  0.32942  0.32785  0.74298  1.0000
  H   H12       1.0  0.17019  0.17199  0.24299  1.0000
  H   H13       1.0  0.17971  0.77330  0.38190  1.0000
  H   H14       1.0  0.32018  0.72675  0.88184  1.0000
  H   H15       1.0  0.82031  0.22671  0.61810  1.0000
  H   H16       1.0  0.67979  0.27324  0.11816  1.0000
  H   H17       1.0  0.92399  0.57178  0.38935  1.0000
  H   H18       1.0  0.57596  0.92824  0.88941  1.0000
  H   H19       1.0  0.07602  0.42822  0.61064  1.0000
  H   H20       1.0  0.42401  0.07175  0.11058  1.0000
  H   H21       1.0  0.24816  0.28647  0.46935  1.0000
  H   H22       1.0  0.25167  0.21342  0.96942  1.0000
  H   H23       1.0  0.75186  0.71353  0.53065  1.0000
  H   H24       1.0  0.74834  0.78656  0.03060  1.0000
  H   H25       1.0  0.80334  0.35931  0.31664  1.0000
  H   H26       1.0  0.69677  0.14076  0.81656  1.0000
  H   H27       1.0  0.19667  0.64068  0.68337  1.0000
  H   H28       1.0  0.30320  0.85925  0.18341  1.0000
  H   H29       1.0  0.72804  0.11957  0.36263  1.0000
  H   H30       1.0  0.77213  0.38040  0.86256  1.0000
  H   H31       1.0  0.27197  0.88042  0.63737  1.0000
  H   H32       1.0  0.22784  0.61960  0.13740  1.0000
  C   C1        1.0  0.61387  0.84456  0.42756  1.0000
  C   C2        1.0  0.88606  0.65537  0.92750  1.0000
  C   C3        1.0  0.38615  0.15542  0.57246  1.0000
  C   C4        1.0  0.11392  0.34464  0.07251  1.0000
  C   C5        1.0  0.83258  0.83401  0.32977  1.0000
  C   C6        1.0  0.66755  0.66601  0.82973  1.0000
  C   C7        1.0  0.16744  0.16599  0.67023  1.0000
  C   C8        1.0  0.33243  0.33398  0.17027  1.0000
  C   C9        1.0  0.68823  0.74195  0.30839  1.0000
  C   C10       1.0  0.81192  0.75813  0.80835  1.0000
  C   C11       1.0  0.31177  0.25807  0.69161  1.0000
  C   C12       1.0  0.18807  0.24187  0.19166  1.0000
  C   C13       1.0  0.38052  0.66537  0.37696  1.0000
  C   C14       1.0  0.11942  0.83468  0.87693  1.0000
  C   C15       1.0  0.61948  0.33463  0.62303  1.0000
  C   C16       1.0  0.88057  0.16532  0.12308  1.0000
  C   C17       1.0  0.20673  0.68479  0.38203  1.0000
  C   C18       1.0  0.29317  0.81524  0.88200  1.0000
  C   C19       1.0  0.79328  0.31522  0.61796  1.0000
  C   C20       1.0  0.70681  0.18476  0.11800  1.0000
  C   C21       1.0  0.07054  0.57705  0.38765  1.0000
  C   C22       1.0  0.42938  0.92296  0.88765  1.0000
  C   C23       1.0  0.92948  0.42295  0.61235  1.0000
  C   C24       1.0  0.57061  0.07703  0.11235  1.0000
  C   C25       1.0  0.14484  0.47890  0.38731  1.0000
  C   C26       1.0  0.35511  0.02113  0.88729  1.0000
  C   C27       1.0  0.85518  0.52110  0.61269  1.0000
  C   C28       1.0  0.64487  0.97887  0.11270  1.0000
  C   C29       1.0  0.11654  0.27079  0.43466  1.0000
  C   C30       1.0  0.38340  0.22917  0.93470  1.0000
  C   C31       1.0  0.88347  0.72921  0.56534  1.0000
  C   C32       1.0  0.61660  0.77081  0.06529  1.0000
  C   C33       1.0  0.88051  0.30744  0.35592  1.0000
  C   C34       1.0  0.61956  0.19259  0.85589  1.0000
  C   C35       1.0  0.11953  0.69257  0.64408  1.0000
  C   C36       1.0  0.38042  0.80741  0.14409  1.0000
  C   C37       1.0  0.84795  0.18920  0.37819  1.0000
  C   C38       1.0  0.65213  0.31080  0.87818  1.0000
  C   C39       1.0  0.15207  0.81079  0.62182  1.0000
  C   C40       1.0  0.34786  0.68921  0.12179  1.0000
  S   S1        1.0  0.38118  0.51576  0.37800  1.0000
  S   S2        1.0  0.11880  0.98427  0.87794  1.0000
  S   S3        1.0  0.61882  0.48425  0.62200  1.0000
  S   S4        1.0  0.88120  0.01573  0.12205  1.0000
  N   N1        1.0  0.78531  0.89718  0.40411  1.0000
  N   N2        1.0  0.71468  0.60277  0.90403  1.0000
  N   N3        1.0  0.21471  0.10281  0.59589  1.0000
  N   N4        1.0  0.28531  0.39723  0.09598  1.0000
  N   N5        1.0  0.54943  0.74889  0.37082  1.0000
  N   N6        1.0  0.95058  0.75111  0.87077  1.0000
  N   N7        1.0  0.45058  0.25111  0.62918  1.0000
  N   N8        1.0  0.04942  0.24889  0.12924  1.0000
  N   N9        1.0  0.05257  0.35872  0.39207  1.0000
  N   N10       1.0  0.44739  0.14128  0.89207  1.0000
  N   N11       1.0  0.94745  0.64128  0.60792  1.0000
  N   N12       1.0  0.55261  0.85872  0.10792  1.0000
  N   N13       1.0  0.99594  0.16731  0.42708  1.0000
  N   N14       1.0  0.50409  0.33265  0.92713  1.0000
  N   N15       1.0  0.00409  0.83268  0.57293  1.0000
  N   N16       1.0  0.49590  0.66734  0.07288  1.0000
  N   N17       1.0  0.70792  0.97341  0.65644  1.0000
  N   N18       1.0  0.79187  0.52653  0.15640  1.0000
  N   N19       1.0  0.29211  0.02660  0.34356  1.0000
  N   N20       1.0  0.20811  0.47348  0.84360  1.0000
  O   O1        1.0  0.77074  0.03298  0.58216  1.0000
  O   O2        1.0  0.72907  0.46695  0.08219  1.0000
  O   O3        1.0  0.22930  0.96703  0.41784  1.0000
  O   O4        1.0  0.27088  0.53304  0.91782  1.0000
  O   O5        1.0  0.77468  0.01150  0.73408  1.0000
  O   O6        1.0  0.72499  0.48852  0.23412  1.0000
  O   O7        1.0  0.22534  0.98850  0.26592  1.0000
  O   O8        1.0  0.27500  0.51149  0.76591  1.0000
  O   O9        1.0  0.58523  0.87988  0.64919  1.0000
  O   O10       1.0  0.91458  0.62008  0.14907  1.0000
  O   O11       1.0  0.41477  0.12015  0.35081  1.0000
  O   O12       1.0  0.08541  0.37992  0.85093  1.0000
