data_image0
_chemical_formula_structural       Nd2H14C14N4O16
_chemical_formula_sum              "Nd2 H14 C14 N4 O16"
_cell_length_a       7.911
_cell_length_b       8.72403
_cell_length_c       8.66806
_cell_angle_alpha    115.901
_cell_angle_beta     100.73
_cell_angle_gamma    96.8217

_space_group_name_H-M_alt    "P 1"
_space_group_IT_number       1

loop_
  _space_group_symop_operation_xyz
  'x, y, z'

loop_
  _atom_site_type_symbol
  _atom_site_label
  _atom_site_symmetry_multiplicity
  _atom_site_fract_x
  _atom_site_fract_y
  _atom_site_fract_z
  _atom_site_occupancy
  Nd  Nd1       1.0  0.16088  0.41510  0.17281  1.0000
  Nd  Nd2       1.0  0.83912  0.58490  0.82719  1.0000
  H   H1        1.0  0.17678  0.06606  0.45506  1.0000
  H   H2        1.0  0.82322  0.93394  0.54494  1.0000
  H   H3        1.0  0.53125  0.91449  0.74946  1.0000
  H   H4        1.0  0.46875  0.08551  0.25054  1.0000
  H   H5        1.0  0.49159  0.15110  0.03419  1.0000
  H   H6        1.0  0.50841  0.84891  0.96581  1.0000
  H   H7        1.0  0.97697  0.28984  0.38574  1.0000
  H   H8        1.0  0.02303  0.71016  0.61426  1.0000
  H   H9        1.0  0.84180  0.38264  0.33692  1.0000
  H   H10       1.0  0.15820  0.61736  0.66308  1.0000
  H   H11       1.0  0.32794  0.80809  0.37872  1.0000
  H   H12       1.0  0.67206  0.19191  0.62128  1.0000
  H   H13       1.0  0.22601  0.76780  0.18425  1.0000
  H   H14       1.0  0.77399  0.23220  0.81575  1.0000
  C   C1        1.0  0.10374  0.33026  0.73984  1.0000
  C   C2        1.0  0.89626  0.66974  0.26015  1.0000
  C   C3        1.0  0.22498  0.21156  0.74128  1.0000
  C   C4        1.0  0.77501  0.78844  0.25872  1.0000
  C   C5        1.0  0.24632  0.08220  0.58421  1.0000
  C   C6        1.0  0.75368  0.91780  0.41579  1.0000
  C   C7        1.0  0.43987  0.99820  0.74648  1.0000
  C   C8        1.0  0.56013  0.00180  0.25352  1.0000
  C   C9        1.0  0.41876  0.12844  0.90385  1.0000
  C   C10       1.0  0.58124  0.87156  0.09615  1.0000
  C   C11       1.0  0.07261  0.99599  0.07232  1.0000
  C   C12       1.0  0.92739  0.00401  0.92768  1.0000
  C   C13       1.0  0.55766  0.47538  0.43349  1.0000
  C   C14       1.0  0.44234  0.52462  0.56651  1.0000
  N   N1        1.0  0.30785  0.23171  0.90122  1.0000
  N   N2        1.0  0.69215  0.76829  0.09878  1.0000
  N   N3        1.0  0.35102  0.97322  0.58711  1.0000
  N   N4        1.0  0.64898  0.02678  0.41289  1.0000
  O   O1        1.0  0.00725  0.30606  0.59545  1.0000
  O   O2        1.0  0.99275  0.69394  0.40455  1.0000
  O   O3        1.0  0.10118  0.45140  0.89226  1.0000
  O   O4        1.0  0.89882  0.54859  0.10774  1.0000
  O   O5        1.0  0.19147  0.13311  0.17442  1.0000
  O   O6        1.0  0.80853  0.86689  0.82558  1.0000
  O   O7        1.0  0.05968  0.85172  0.07735  1.0000
  O   O8        1.0  0.94033  0.14828  0.92265  1.0000
  O   O9        1.0  0.48612  0.43756  0.27490  1.0000
  O   O10       1.0  0.51388  0.56244  0.72510  1.0000
  O   O11       1.0  0.71679  0.47662  0.49639  1.0000
  O   O12       1.0  0.28321  0.52339  0.50361  1.0000
  O   O13       1.0  0.92437  0.31018  0.28537  1.0000
  O   O14       1.0  0.07563  0.68981  0.71463  1.0000
  O   O15       1.0  0.29761  0.71790  0.24886  1.0000
  O   O16       1.0  0.70239  0.28210  0.75114  1.0000
