data_image0
_chemical_formula_structural       Y2H12C10O14
_chemical_formula_sum              "Y2 H12 C10 O14"
_cell_length_a       6.59531
_cell_length_b       7.7473
_cell_length_c       7.95353
_cell_angle_alpha    100.468
_cell_angle_beta     100.812
_cell_angle_gamma    102.934

_space_group_name_H-M_alt    "P 1"
_space_group_IT_number       1

loop_
  _space_group_symop_operation_xyz
  'x, y, z'

loop_
  _atom_site_type_symbol
  _atom_site_label
  _atom_site_symmetry_multiplicity
  _atom_site_fract_x
  _atom_site_fract_y
  _atom_site_fract_z
  _atom_site_occupancy
  Y   Y1        1.0  0.54848  0.62884  0.80644  1.0000
  Y   Y2        1.0  0.45152  0.37117  0.19356  1.0000
  H   H1        1.0  0.90801  0.21884  0.86677  1.0000
  H   H2        1.0  0.09199  0.78115  0.13323  1.0000
  H   H3        1.0  0.03353  0.07081  0.76411  1.0000
  H   H4        1.0  0.96648  0.92919  0.23588  1.0000
  H   H5        1.0  0.85480  0.13715  0.46420  1.0000
  H   H6        1.0  0.14521  0.86285  0.53580  1.0000
  H   H7        1.0  0.69232  0.00478  0.57119  1.0000
  H   H8        1.0  0.30768  0.99522  0.42881  1.0000
  H   H9        1.0  0.87184  0.66195  0.59164  1.0000
  H   H10       1.0  0.12816  0.33805  0.40835  1.0000
  H   H11       1.0  0.02567  0.73336  0.78668  1.0000
  H   H12       1.0  0.97433  0.26664  0.21331  1.0000
  C   C1        1.0  0.15952  0.34639  0.76640  1.0000
  C   C2        1.0  0.84048  0.65361  0.23360  1.0000
  C   C3        1.0  0.97148  0.18907  0.74992  1.0000
  C   C4        1.0  0.02852  0.81093  0.25008  1.0000
  C   C5        1.0  0.79398  0.14240  0.58380  1.0000
  C   C6        1.0  0.20602  0.85761  0.41620  1.0000
  C   C7        1.0  0.64929  0.26921  0.58472  1.0000
  C   C8        1.0  0.35072  0.73080  0.41529  1.0000
  C   C9        1.0  0.37720  0.96230  0.97962  1.0000
  C   C10       1.0  0.62279  0.03768  0.02038  1.0000
  O   O1        1.0  0.29904  0.40862  0.91556  1.0000
  O   O2        1.0  0.70096  0.59138  0.08444  1.0000
  O   O3        1.0  0.19111  0.42093  0.64049  1.0000
  O   O4        1.0  0.80890  0.57907  0.35951  1.0000
  O   O5        1.0  0.63845  0.35890  0.73105  1.0000
  O   O6        1.0  0.36156  0.64110  0.26894  1.0000
  O   O7        1.0  0.53859  0.27599  0.43738  1.0000
  O   O8        1.0  0.46140  0.72400  0.56262  1.0000
  O   O9        1.0  0.30023  0.79702  0.89355  1.0000
  O   O10       1.0  0.69976  0.20299  0.10646  1.0000
  O   O11       1.0  0.27324  0.06935  0.03431  1.0000
  O   O12       1.0  0.72674  0.93066  0.96570  1.0000
  O   O13       1.0  0.87636  0.70970  0.71720  1.0000
  O   O14       1.0  0.12363  0.29030  0.28280  1.0000
