data_image0
_chemical_formula_structural       Sm4Ag4H32C56N8O32
_chemical_formula_sum              "Sm4 Ag4 H32 C56 N8 O32"
_cell_length_a       9.15292
_cell_length_b       9.79545
_cell_length_c       22.2438
_cell_angle_alpha    90.0003
_cell_angle_beta     90.0002
_cell_angle_gamma    117.549

_space_group_name_H-M_alt    "P 1"
_space_group_IT_number       1

loop_
  _space_group_symop_operation_xyz
  'x, y, z'

loop_
  _atom_site_type_symbol
  _atom_site_label
  _atom_site_symmetry_multiplicity
  _atom_site_fract_x
  _atom_site_fract_y
  _atom_site_fract_z
  _atom_site_occupancy
  Sm  Sm1       1.0  0.11670  0.85281  0.99078  1.0000
  Sm  Sm2       1.0  0.38329  0.14719  0.49078  1.0000
  Sm  Sm3       1.0  0.88329  0.14719  0.00922  1.0000
  Sm  Sm4       1.0  0.61671  0.85281  0.50922  1.0000
  Ag  Ag1       1.0  0.47680  0.81145  0.85060  1.0000
  Ag  Ag2       1.0  0.02320  0.18855  0.35060  1.0000
  Ag  Ag3       1.0  0.52320  0.18854  0.14940  1.0000
  Ag  Ag4       1.0  0.97681  0.81146  0.64939  1.0000
  H   H1        1.0  0.21307  0.51922  0.13257  1.0000
  H   H2        1.0  0.28694  0.48079  0.63257  1.0000
  H   H3        1.0  0.78694  0.48078  0.86743  1.0000
  H   H4        1.0  0.71307  0.51921  0.36743  1.0000
  H   H5        1.0  0.70085  0.47073  0.06763  1.0000
  H   H6        1.0  0.79916  0.52927  0.56762  1.0000
  H   H7        1.0  0.29916  0.52926  0.93238  1.0000
  H   H8        1.0  0.20085  0.47074  0.43238  1.0000
  H   H9        1.0  0.26404  0.30051  0.16462  1.0000
  H   H10       1.0  0.23596  0.69949  0.66462  1.0000
  H   H11       1.0  0.73596  0.69949  0.83539  1.0000
  H   H12       1.0  0.76404  0.30051  0.33538  1.0000
  H   H13       1.0  0.42670  0.72916  0.06965  1.0000
  H   H14       1.0  0.07331  0.27085  0.56965  1.0000
  H   H15       1.0  0.57330  0.27084  0.93035  1.0000
  H   H16       1.0  0.92670  0.72916  0.43035  1.0000
  H   H17       1.0  0.01256  0.84827  0.78184  1.0000
  H   H18       1.0  0.48744  0.15173  0.28184  1.0000
  H   H19       1.0  0.98744  0.15173  0.21816  1.0000
  H   H20       1.0  0.51256  0.84828  0.71816  1.0000
  H   H21       1.0  0.90059  0.20384  0.84489  1.0000
  H   H22       1.0  0.59941  0.79617  0.34490  1.0000
  H   H23       1.0  0.09942  0.79616  0.15511  1.0000
  H   H24       1.0  0.40059  0.20384  0.65511  1.0000
  H   H25       1.0  0.88064  0.08514  0.65588  1.0000
  H   H26       1.0  0.61936  0.91486  0.15589  1.0000
  H   H27       1.0  0.11936  0.91486  0.34412  1.0000
  H   H28       1.0  0.38063  0.08514  0.84412  1.0000
  H   H29       1.0  0.85422  0.25184  0.73614  1.0000
  H   H30       1.0  0.64578  0.74817  0.23614  1.0000
  H   H31       1.0  0.14579  0.74817  0.26386  1.0000
  H   H32       1.0  0.35421  0.25183  0.76387  1.0000
  C   C1        1.0  0.58092  0.61641  0.06420  1.0000
  C   C2        1.0  0.91908  0.38359  0.56420  1.0000
  C   C3        1.0  0.41908  0.38359  0.93580  1.0000
  C   C4        1.0  0.08092  0.61641  0.43580  1.0000
  C   C5        1.0  0.32544  0.51526  0.11912  1.0000
  C   C6        1.0  0.17456  0.48474  0.61912  1.0000
  C   C7        1.0  0.67456  0.48474  0.88089  1.0000
  C   C8        1.0  0.82544  0.51526  0.38089  1.0000
  C   C9        1.0  0.59614  0.48678  0.08209  1.0000
  C   C10       1.0  0.90387  0.51322  0.58209  1.0000
  C   C11       1.0  0.40387  0.51322  0.91791  1.0000
  C   C12       1.0  0.09614  0.48678  0.41791  1.0000
  C   C13       1.0  0.35188  0.39197  0.13615  1.0000
  C   C14       1.0  0.14813  0.60804  0.63615  1.0000
  C   C15       1.0  0.64813  0.60803  0.86385  1.0000
  C   C16       1.0  0.85187  0.39197  0.36385  1.0000
  C   C17       1.0  0.71442  0.74217  0.02755  1.0000
  C   C18       1.0  0.78558  0.25783  0.52755  1.0000
  C   C19       1.0  0.28558  0.25783  0.97245  1.0000
  C   C20       1.0  0.21442  0.74217  0.47245  1.0000
  C   C21       1.0  0.44261  0.63012  0.08329  1.0000
  C   C22       1.0  0.05740  0.36988  0.58329  1.0000
  C   C23       1.0  0.55740  0.36988  0.91671  1.0000
  C   C24       1.0  0.94260  0.63012  0.41671  1.0000
  C   C25       1.0  0.97537  0.93698  0.77264  1.0000
  C   C26       1.0  0.52463  0.06303  0.27264  1.0000
  C   C27       1.0  0.02463  0.06302  0.22736  1.0000
  C   C28       1.0  0.47537  0.93698  0.72736  1.0000
  C   C29       1.0  0.91403  0.13671  0.80807  1.0000
  C   C30       1.0  0.58597  0.86329  0.30807  1.0000
  C   C31       1.0  0.08597  0.86329  0.19193  1.0000
  C   C32       1.0  0.41403  0.13671  0.69193  1.0000
  C   C33       1.0  0.90409  0.07123  0.70296  1.0000
  C   C34       1.0  0.59592  0.92877  0.20296  1.0000
  C   C35       1.0  0.09592  0.92877  0.29704  1.0000
  C   C36       1.0  0.40408  0.07123  0.79704  1.0000
  C   C37       1.0  0.95926  0.02123  0.82039  1.0000
  C   C38       1.0  0.54073  0.97877  0.32039  1.0000
  C   C39       1.0  0.04074  0.97877  0.17961  1.0000
  C   C40       1.0  0.45927  0.02123  0.67961  1.0000
  C   C41       1.0  0.88825  0.16242  0.74816  1.0000
  C   C42       1.0  0.61175  0.83758  0.24817  1.0000
  C   C43       1.0  0.11175  0.83758  0.25183  1.0000
  C   C44       1.0  0.38825  0.16242  0.75184  1.0000
  C   C45       1.0  0.50375  0.97912  0.96675  1.0000
  C   C46       1.0  0.99624  0.02087  0.46675  1.0000
  C   C47       1.0  0.49624  0.02087  0.03325  1.0000
  C   C48       1.0  0.00375  0.97912  0.53325  1.0000
  C   C49       1.0  0.99220  0.98339  0.88270  1.0000
  C   C50       1.0  0.50779  0.01661  0.38271  1.0000
  C   C51       1.0  0.00780  0.01661  0.11729  1.0000
  C   C52       1.0  0.49221  0.98340  0.61729  1.0000
  C   C53       1.0  0.99141  0.49241  0.96508  1.0000
  C   C54       1.0  0.50857  0.50758  0.46508  1.0000
  C   C55       1.0  0.00857  0.50758  0.03491  1.0000
  C   C56       1.0  0.49142  0.49242  0.53491  1.0000
  N   N1        1.0  0.48509  0.37747  0.11828  1.0000
  N   N2        1.0  0.01492  0.62253  0.61827  1.0000
  N   N3        1.0  0.51492  0.62253  0.88173  1.0000
  N   N4        1.0  0.98508  0.37747  0.38173  1.0000
  N   N5        1.0  0.94693  0.95937  0.71503  1.0000
  N   N6        1.0  0.55307  0.04063  0.21503  1.0000
  N   N7        1.0  0.05307  0.04063  0.28497  1.0000
  N   N8        1.0  0.44693  0.95937  0.78497  1.0000
  O   O1        1.0  0.36923  0.88006  0.94345  1.0000
  O   O2        1.0  0.13076  0.11992  0.44345  1.0000
  O   O3        1.0  0.63077  0.11993  0.05654  1.0000
  O   O4        1.0  0.86923  0.88007  0.55654  1.0000
  O   O5        1.0  0.81845  0.71112  0.00116  1.0000
  O   O6        1.0  0.68154  0.28888  0.50116  1.0000
  O   O7        1.0  0.18154  0.28888  0.99884  1.0000
  O   O8        1.0  0.31845  0.71112  0.49884  1.0000
  O   O9        1.0  0.71260  0.87089  0.02766  1.0000
  O   O10       1.0  0.78740  0.12911  0.52765  1.0000
  O   O11       1.0  0.28740  0.12911  0.97234  1.0000
  O   O12       1.0  0.21260  0.87089  0.47234  1.0000
  O   O13       1.0  0.04701  0.61580  0.93521  1.0000
  O   O14       1.0  0.45297  0.38419  0.43521  1.0000
  O   O15       1.0  0.95298  0.38420  0.06478  1.0000
  O   O16       1.0  0.54702  0.61581  0.56478  1.0000
  O   O17       1.0  0.64082  0.04453  0.94026  1.0000
  O   O18       1.0  0.85917  0.95545  0.44026  1.0000
  O   O19       1.0  0.35917  0.95546  0.05974  1.0000
  O   O20       1.0  0.14082  0.04454  0.55974  1.0000
  O   O21       1.0  0.92249  0.35687  0.94360  1.0000
  O   O22       1.0  0.57749  0.64312  0.44360  1.0000
  O   O23       1.0  0.07750  0.64312  0.05640  1.0000
  O   O24       1.0  0.42251  0.35688  0.55640  1.0000
  O   O25       1.0  0.05496  0.89236  0.88745  1.0000
  O   O26       1.0  0.44504  0.10764  0.38745  1.0000
  O   O27       1.0  0.94504  0.10764  0.11255  1.0000
  O   O28       1.0  0.55497  0.89237  0.61255  1.0000
  O   O29       1.0  0.95592  0.04357  0.92682  1.0000
  O   O30       1.0  0.54407  0.95643  0.42683  1.0000
  O   O31       1.0  0.04408  0.95643  0.07318  1.0000
  O   O32       1.0  0.45593  0.04358  0.57318  1.0000
