data_image0
_chemical_formula_structural       Ba2H12C12S4O18
_chemical_formula_sum              "Ba2 H12 C12 S4 O18"
_cell_length_a       7.23632
_cell_length_b       8.66873
_cell_length_c       9.07971
_cell_angle_alpha    81.9104
_cell_angle_beta     95.3118
_cell_angle_gamma    85.361

_space_group_name_H-M_alt    "P 1"
_space_group_IT_number       1

loop_
  _space_group_symop_operation_xyz
  'x, y, z'

loop_
  _atom_site_type_symbol
  _atom_site_label
  _atom_site_symmetry_multiplicity
  _atom_site_fract_x
  _atom_site_fract_y
  _atom_site_fract_z
  _atom_site_occupancy
  Ba  Ba1       1.0  0.27335  0.22362  0.42526  1.0000
  Ba  Ba2       1.0  0.72666  0.77637  0.57474  1.0000
  H   H1        1.0  0.25267  0.26639  0.01964  1.0000
  H   H2        1.0  0.74733  0.73361  0.98037  1.0000
  H   H3        1.0  0.09771  0.87973  0.35455  1.0000
  H   H4        1.0  0.90229  0.12026  0.64545  1.0000
  H   H5        1.0  0.58843  0.38937  0.64982  1.0000
  H   H6        1.0  0.41157  0.61063  0.35017  1.0000
  H   H7        1.0  0.39552  0.45159  0.68471  1.0000
  H   H8        1.0  0.60449  0.54841  0.31529  1.0000
  H   H9        1.0  0.13517  0.64353  0.93597  1.0000
  H   H10       1.0  0.86483  0.35647  0.06403  1.0000
  H   H11       1.0  0.34494  0.09634  0.84079  1.0000
  H   H12       1.0  0.65505  0.90367  0.15921  1.0000
  C   C1        1.0  0.14055  0.78505  0.11380  1.0000
  C   C2        1.0  0.85945  0.21495  0.88620  1.0000
  C   C3        1.0  0.17222  0.75307  0.97140  1.0000
  C   C4        1.0  0.82778  0.24693  0.02859  1.0000
  C   C5        1.0  0.25026  0.86408  0.87636  1.0000
  C   C6        1.0  0.74974  0.13593  0.12364  1.0000
  C   C7        1.0  0.28959  0.00830  0.91812  1.0000
  C   C8        1.0  0.71040  0.99170  0.08188  1.0000
  C   C9        1.0  0.25487  0.04024  0.05963  1.0000
  C   C10       1.0  0.74513  0.95976  0.94038  1.0000
  C   C11       1.0  0.18992  0.92457  0.16238  1.0000
  C   C12       1.0  0.81007  0.07542  0.83763  1.0000
  S   S1        1.0  0.02434  0.64942  0.22844  1.0000
  S   S2        1.0  0.97566  0.35058  0.77156  1.0000
  S   S3        1.0  0.28630  0.82217  0.69519  1.0000
  S   S4        1.0  0.71370  0.17783  0.30481  1.0000
  O   O1        1.0  0.16804  0.52388  0.29952  1.0000
  O   O2        1.0  0.83196  0.47611  0.70048  1.0000
  O   O3        1.0  0.94779  0.73841  0.34021  1.0000
  O   O4        1.0  0.05221  0.26158  0.65979  1.0000
  O   O5        1.0  0.87897  0.59468  0.13066  1.0000
  O   O6        1.0  0.12103  0.40532  0.86934  1.0000
  O   O7        1.0  0.40507  0.67337  0.71130  1.0000
  O   O8        1.0  0.59493  0.32663  0.28871  1.0000
  O   O9        1.0  0.10155  0.81484  0.61682  1.0000
  O   O10       1.0  0.89845  0.18517  0.38318  1.0000
  O   O11       1.0  0.38405  0.95262  0.62454  1.0000
  O   O12       1.0  0.61596  0.04738  0.37546  1.0000
  O   O13       1.0  0.28075  0.18132  0.10650  1.0000
  O   O14       1.0  0.71924  0.81868  0.89350  1.0000
  O   O15       1.0  0.17461  0.95691  0.30252  1.0000
  O   O16       1.0  0.82539  0.04308  0.69749  1.0000
  O   O17       1.0  0.45873  0.36356  0.64585  1.0000
  O   O18       1.0  0.54127  0.63645  0.35414  1.0000
