data_image0
_chemical_formula_structural       Sn4H72C40O8
_chemical_formula_sum              "Sn4 H72 C40 O8"
_cell_length_a       9.79968
_cell_length_b       10.9392
_cell_length_c       11.8874
_cell_angle_alpha    113.339
_cell_angle_beta     90
_cell_angle_gamma    89.9997

_space_group_name_H-M_alt    "P 1"
_space_group_IT_number       1

loop_
  _space_group_symop_operation_xyz
  'x, y, z'

loop_
  _atom_site_type_symbol
  _atom_site_label
  _atom_site_symmetry_multiplicity
  _atom_site_fract_x
  _atom_site_fract_y
  _atom_site_fract_z
  _atom_site_occupancy
  Sn  Sn1       1.0  0.89163  0.82916  0.76128  1.0000
  Sn  Sn2       1.0  0.39163  0.67085  0.73872  1.0000
  Sn  Sn3       1.0  0.10837  0.17084  0.23872  1.0000
  Sn  Sn4       1.0  0.60837  0.32916  0.26128  1.0000
  H   H1        1.0  0.88647  0.55873  0.80897  1.0000
  H   H2        1.0  0.38647  0.94126  0.69103  1.0000
  H   H3        1.0  0.11353  0.44126  0.19102  1.0000
  H   H4        1.0  0.61353  0.05874  0.30897  1.0000
  H   H5        1.0  0.77858  0.57288  0.99501  1.0000
  H   H6        1.0  0.27859  0.92711  0.50498  1.0000
  H   H7        1.0  0.22141  0.42712  0.00498  1.0000
  H   H8        1.0  0.72141  0.07289  0.49502  1.0000
  H   H9        1.0  0.65251  0.45499  0.91606  1.0000
  H   H10       1.0  0.15252  0.04500  0.58393  1.0000
  H   H11       1.0  0.34749  0.54501  0.08393  1.0000
  H   H12       1.0  0.84749  0.95500  0.41607  1.0000
  H   H13       1.0  0.85013  0.36194  0.00995  1.0000
  H   H14       1.0  0.35014  0.13804  0.49004  1.0000
  H   H15       1.0  0.14987  0.63806  0.99005  1.0000
  H   H16       1.0  0.64986  0.86197  0.50996  1.0000
  H   H17       1.0  0.98429  0.21046  0.84154  1.0000
  H   H18       1.0  0.48429  0.28953  0.65845  1.0000
  H   H19       1.0  0.01571  0.78954  0.15846  1.0000
  H   H20       1.0  0.51571  0.71048  0.34156  1.0000
  H   H21       1.0  0.92025  0.18742  0.63372  1.0000
  H   H22       1.0  0.42024  0.31258  0.86627  1.0000
  H   H23       1.0  0.07974  0.81257  0.36628  1.0000
  H   H24       1.0  0.57975  0.68742  0.13373  1.0000
  H   H25       1.0  0.02193  0.33111  0.68824  1.0000
  H   H26       1.0  0.52193  0.16889  0.81176  1.0000
  H   H27       1.0  0.97806  0.66888  0.31175  1.0000
  H   H28       1.0  0.47807  0.83112  0.18825  1.0000
  H   H29       1.0  0.81813  0.38827  0.60137  1.0000
  H   H30       1.0  0.31812  0.11173  0.89863  1.0000
  H   H31       1.0  0.18187  0.61172  0.39863  1.0000
  H   H32       1.0  0.68188  0.88827  0.10137  1.0000
  H   H33       1.0  0.70901  0.31397  0.67508  1.0000
  H   H34       1.0  0.20900  0.18602  0.82491  1.0000
  H   H35       1.0  0.29099  0.68602  0.32492  1.0000
  H   H36       1.0  0.79099  0.81397  0.17509  1.0000
  H   H37       1.0  0.02283  0.72353  0.90195  1.0000
  H   H38       1.0  0.52283  0.77646  0.59804  1.0000
  H   H39       1.0  0.97717  0.27645  0.09804  1.0000
  H   H40       1.0  0.47717  0.22354  0.40196  1.0000
  H   H41       1.0  0.89774  0.83870  0.99391  1.0000
  H   H42       1.0  0.39774  0.66129  0.50609  1.0000
  H   H43       1.0  0.10225  0.16129  0.00609  1.0000
  H   H44       1.0  0.60226  0.33871  0.49391  1.0000
  H   H45       1.0  0.05674  0.89745  0.95969  1.0000
  H   H46       1.0  0.55674  0.60254  0.54031  1.0000
  H   H47       1.0  0.94326  0.10253  0.04031  1.0000
  H   H48       1.0  0.44326  0.39747  0.45969  1.0000
  H   H49       1.0  0.74940  0.00038  0.69179  1.0000
  H   H50       1.0  0.24941  0.49962  0.80821  1.0000
  H   H51       1.0  0.25060  0.99962  0.30821  1.0000
  H   H52       1.0  0.75060  0.50038  0.19179  1.0000
  H   H53       1.0  0.77261  0.07416  0.85276  1.0000
  H   H54       1.0  0.27262  0.42584  0.64725  1.0000
  H   H55       1.0  0.22739  0.92584  0.14725  1.0000
  H   H56       1.0  0.72738  0.57416  0.35276  1.0000
  H   H57       1.0  0.64457  0.94841  0.78871  1.0000
  H   H58       1.0  0.14457  0.55159  0.71130  1.0000
  H   H59       1.0  0.35543  0.05158  0.21130  1.0000
  H   H60       1.0  0.85543  0.44842  0.28871  1.0000
  H   H61       1.0  0.95652  0.58312  0.59207  1.0000
  H   H62       1.0  0.45652  0.91689  0.90793  1.0000
  H   H63       1.0  0.04348  0.41688  0.40792  1.0000
  H   H64       1.0  0.54348  0.08312  0.09207  1.0000
  H   H65       1.0  0.99361  0.70532  0.53202  1.0000
  H   H66       1.0  0.49361  0.79469  0.96798  1.0000
  H   H67       1.0  0.00639  0.29469  0.46798  1.0000
  H   H68       1.0  0.50639  0.20531  0.03202  1.0000
  H   H69       1.0  0.82111  0.65255  0.53539  1.0000
  H   H70       1.0  0.32111  0.84746  0.96461  1.0000
  H   H71       1.0  0.17889  0.34746  0.46460  1.0000
  H   H72       1.0  0.67889  0.15255  0.03539  1.0000
  C   C1        1.0  0.67749  0.58955  0.77802  1.0000
  C   C2        1.0  0.17749  0.91045  0.72198  1.0000
  C   C3        1.0  0.32251  0.41045  0.22198  1.0000
  C   C4        1.0  0.82251  0.08955  0.27802  1.0000
  C   C5        1.0  0.78978  0.50405  0.79683  1.0000
  C   C6        1.0  0.28978  0.99594  0.70317  1.0000
  C   C7        1.0  0.21022  0.49595  0.20317  1.0000
  C   C8        1.0  0.71023  0.00406  0.29683  1.0000
  C   C9        1.0  0.76141  0.47991  0.91382  1.0000
  C   C10       1.0  0.26142  0.02008  0.58618  1.0000
  C   C11       1.0  0.23859  0.52009  0.08618  1.0000
  C   C12       1.0  0.73858  0.97993  0.41382  1.0000
  C   C13       1.0  0.84896  0.37134  0.92189  1.0000
  C   C14       1.0  0.34896  0.12866  0.57810  1.0000
  C   C15       1.0  0.15104  0.62866  0.07811  1.0000
  C   C16       1.0  0.65104  0.87135  0.42190  1.0000
  C   C17       1.0  0.92321  0.28745  0.82882  1.0000
  C   C18       1.0  0.42321  0.21255  0.67117  1.0000
  C   C19       1.0  0.07678  0.71256  0.17118  1.0000
  C   C20       1.0  0.57679  0.78745  0.32883  1.0000
  C   C21       1.0  0.92388  0.29023  0.70359  1.0000
  C   C22       1.0  0.42388  0.20978  0.79640  1.0000
  C   C23       1.0  0.07612  0.70977  0.29641  1.0000
  C   C24       1.0  0.57612  0.79023  0.20360  1.0000
  C   C25       1.0  0.80431  0.37066  0.68562  1.0000
  C   C26       1.0  0.30431  0.12935  0.81438  1.0000
  C   C27       1.0  0.19569  0.62934  0.31438  1.0000
  C   C28       1.0  0.69569  0.87066  0.18562  1.0000
  C   C29       1.0  0.97708  0.82165  0.92452  1.0000
  C   C30       1.0  0.47708  0.67834  0.57548  1.0000
  C   C31       1.0  0.02292  0.17834  0.07548  1.0000
  C   C32       1.0  0.52292  0.32166  0.42452  1.0000
  C   C33       1.0  0.74655  0.98148  0.77566  1.0000
  C   C34       1.0  0.24655  0.51852  0.72435  1.0000
  C   C35       1.0  0.25346  0.01852  0.22434  1.0000
  C   C36       1.0  0.75345  0.48148  0.27566  1.0000
  C   C37       1.0  0.91916  0.67333  0.58342  1.0000
  C   C38       1.0  0.41916  0.82667  0.91657  1.0000
  C   C39       1.0  0.08084  0.32667  0.41657  1.0000
  C   C40       1.0  0.58084  0.17333  0.08343  1.0000
  O   O1        1.0  0.70088  0.70459  0.78035  1.0000
  O   O2        1.0  0.20087  0.79541  0.71964  1.0000
  O   O3        1.0  0.29913  0.29541  0.21964  1.0000
  O   O4        1.0  0.79913  0.20458  0.28034  1.0000
  O   O5        1.0  0.55655  0.53982  0.76149  1.0000
  O   O6        1.0  0.05655  0.96018  0.73851  1.0000
  O   O7        1.0  0.44344  0.46018  0.23852  1.0000
  O   O8        1.0  0.94345  0.03982  0.26149  1.0000
