data_image0
_chemical_formula_structural       Sm4Ag4H32C56N8O32
_chemical_formula_sum              "Sm4 Ag4 H32 C56 N8 O32"
_cell_length_a       9.14037
_cell_length_b       11.9149
_cell_length_c       17.0098
_cell_angle_alpha    108.341
_cell_angle_beta     89.9961
_cell_angle_gamma    112.595

_space_group_name_H-M_alt    "P 1"
_space_group_IT_number       1

loop_
  _space_group_symop_operation_xyz
  'x, y, z'

loop_
  _atom_site_type_symbol
  _atom_site_label
  _atom_site_symmetry_multiplicity
  _atom_site_fract_x
  _atom_site_fract_y
  _atom_site_fract_z
  _atom_site_occupancy
  Sm  Sm1       1.0  0.80090  0.96746  0.42437  1.0000
  Sm  Sm2       1.0  0.83340  0.03256  0.07567  1.0000
  Sm  Sm3       1.0  0.19910  0.03254  0.57563  1.0000
  Sm  Sm4       1.0  0.16660  0.96744  0.92433  1.0000
  Ag  Ag1       1.0  0.40596  0.65240  0.86531  1.0000
  Ag  Ag2       1.0  0.75379  0.34757  0.63474  1.0000
  Ag  Ag3       1.0  0.59404  0.34760  0.13469  1.0000
  Ag  Ag4       1.0  0.24623  0.65245  0.36526  1.0000
  H   H1        1.0  0.33925  0.76466  0.73487  1.0000
  H   H2        1.0  0.57541  0.23579  0.76554  1.0000
  H   H3        1.0  0.66075  0.23535  0.26513  1.0000
  H   H4        1.0  0.42459  0.76421  0.23446  1.0000
  H   H5        1.0  0.49461  0.87819  0.64144  1.0000
  H   H6        1.0  0.61720  0.12200  0.85873  1.0000
  H   H7        1.0  0.50540  0.12183  0.35856  1.0000
  H   H8        1.0  0.38279  0.87800  0.14127  1.0000
  H   H9        1.0  0.89092  0.80143  0.71276  1.0000
  H   H10       1.0  0.09014  0.19859  0.78701  1.0000
  H   H11       1.0  0.10909  0.19857  0.28723  1.0000
  H   H12       1.0  0.90985  0.80140  0.21299  1.0000
  H   H13       1.0  0.71494  0.67808  0.79463  1.0000
  H   H14       1.0  0.03758  0.32216  0.70537  1.0000
  H   H15       1.0  0.28507  0.32193  0.20537  1.0000
  H   H16       1.0  0.96242  0.67784  0.29464  1.0000
  H   H17       1.0  0.20377  0.64238  0.01545  1.0000
  H   H18       1.0  0.56138  0.35753  0.48470  1.0000
  H   H19       1.0  0.79622  0.35762  0.98455  1.0000
  H   H20       1.0  0.43862  0.64247  0.51530  1.0000
  H   H21       1.0  0.08714  0.48672  0.09333  1.0000
  H   H22       1.0  0.60006  0.51321  0.40691  1.0000
  H   H23       1.0  0.91285  0.51327  0.90667  1.0000
  H   H24       1.0  0.39993  0.48678  0.59309  1.0000
  H   H25       1.0  0.32182  0.25652  0.94490  1.0000
  H   H26       1.0  0.06562  0.74355  0.55496  1.0000
  H   H27       1.0  0.67818  0.74348  0.05510  1.0000
  H   H28       1.0  0.93438  0.25645  0.44503  1.0000
  H   H29       1.0  0.41684  0.41164  0.87079  1.0000
  H   H30       1.0  0.00564  0.58860  0.62919  1.0000
  H   H31       1.0  0.58316  0.58836  0.12921  1.0000
  H   H32       1.0  0.99437  0.41141  0.37081  1.0000
  C   C1        1.0  0.46039  0.77216  0.72632  1.0000
  C   C2        1.0  0.68905  0.22824  0.77394  1.0000
  C   C3        1.0  0.53962  0.22785  0.27368  1.0000
  C   C4        1.0  0.31095  0.77176  0.22606  1.0000
  C   C5        1.0  0.54859  0.83707  0.67557  1.0000
  C   C6        1.0  0.71229  0.16320  0.82459  1.0000
  C   C7        1.0  0.45142  0.16294  0.32443  1.0000
  C   C8        1.0  0.28771  0.83680  0.17541  1.0000
  C   C9        1.0  0.70663  0.84994  0.67031  1.0000
  C   C10       1.0  0.85736  0.15017  0.82966  1.0000
  C   C11       1.0  0.29338  0.15007  0.32969  1.0000
  C   C12       1.0  0.14264  0.84983  0.17034  1.0000
  C   C13       1.0  0.76815  0.79259  0.71403  1.0000
  C   C14       1.0  0.97628  0.20754  0.78590  1.0000
  C   C15       1.0  0.23186  0.20741  0.28597  1.0000
  C   C16       1.0  0.02372  0.79245  0.21410  1.0000
  C   C17       1.0  0.67080  0.72526  0.76090  1.0000
  C   C18       1.0  0.94631  0.27497  0.73913  1.0000
  C   C19       1.0  0.32920  0.27475  0.23910  1.0000
  C   C20       1.0  0.05370  0.72503  0.26087  1.0000
  C   C21       1.0  0.80886  0.92118  0.61747  1.0000
  C   C22       1.0  0.88808  0.07877  0.88244  1.0000
  C   C23       1.0  0.19114  0.07883  0.38253  1.0000
  C   C24       1.0  0.11192  0.92123  0.11755  1.0000
  C   C25       1.0  0.22501  0.55460  0.00170  1.0000
  C   C26       1.0  0.67043  0.44537  0.49843  1.0000
  C   C27       1.0  0.77498  0.44540  0.99829  1.0000
  C   C28       1.0  0.32957  0.55463  0.50157  1.0000
  C   C29       1.0  0.16191  0.46895  0.04511  1.0000
  C   C30       1.0  0.69280  0.53103  0.45505  1.0000
  C   C31       1.0  0.83808  0.53105  0.95489  1.0000
  C   C32       1.0  0.30720  0.46897  0.54495  1.0000
  C   C33       1.0  0.19160  0.35689  0.02413  1.0000
  C   C34       1.0  0.83468  0.64312  0.47592  1.0000
  C   C35       1.0  0.80839  0.64310  0.97586  1.0000
  C   C36       1.0  0.16531  0.35687  0.52408  1.0000
  C   C37       1.0  0.29127  0.33974  0.96361  1.0000
  C   C38       1.0  0.95175  0.66029  0.53634  1.0000
  C   C39       1.0  0.70872  0.66025  0.03639  1.0000
  C   C40       1.0  0.04825  0.33971  0.46365  1.0000
  C   C41       1.0  0.34656  0.42751  0.92167  1.0000
  C   C42       1.0  0.91934  0.57260  0.57833  1.0000
  C   C43       1.0  0.65344  0.57248  0.07833  1.0000
  C   C44       1.0  0.08066  0.42741  0.42166  1.0000
  C   C45       1.0  0.10468  0.25077  0.05853  1.0000
  C   C46       1.0  0.85371  0.74922  0.44154  1.0000
  C   C47       1.0  0.89532  0.74923  0.94146  1.0000
  C   C48       1.0  0.14627  0.25077  0.55846  1.0000
  C   C49       1.0  0.48188  0.92932  0.97303  1.0000
  C   C50       1.0  0.55271  0.07064  0.52708  1.0000
  C   C51       1.0  0.51812  0.07067  0.02697  1.0000
  C   C52       1.0  0.44731  0.92938  0.47293  1.0000
  C   C53       1.0  0.71546  0.92666  0.22740  1.0000
  C   C54       1.0  0.78895  0.07353  0.27273  1.0000
  C   C55       1.0  0.28453  0.07334  0.77261  1.0000
  C   C56       1.0  0.21105  0.92647  0.72728  1.0000
  N   N1        1.0  0.52027  0.71683  0.76856  1.0000
  N   N2        1.0  0.80423  0.28353  0.73164  1.0000
  N   N3        1.0  0.47973  0.28317  0.23144  1.0000
  N   N4        1.0  0.19577  0.71648  0.26837  1.0000
  N   N5        1.0  0.31245  0.53268  0.93913  1.0000
  N   N6        1.0  0.77997  0.46738  0.56094  1.0000
  N   N7        1.0  0.68754  0.46732  0.06087  1.0000
  N   N8        1.0  0.22003  0.53263  0.43906  1.0000
  O   O1        1.0  0.73530  0.92169  0.55447  1.0000
  O   O2        1.0  0.81395  0.07819  0.94544  1.0000
  O   O3        1.0  0.26471  0.07832  0.44553  1.0000
  O   O4        1.0  0.18605  0.92181  0.05457  1.0000
  O   O5        1.0  0.95902  0.97128  0.63947  1.0000
  O   O6        1.0  0.98794  0.02856  0.86041  1.0000
  O   O7        1.0  0.04099  0.02872  0.36052  1.0000
  O   O8        1.0  0.01205  0.97144  0.13959  1.0000
  O   O9        1.0  0.00880  0.26671  0.11037  1.0000
  O   O10       1.0  0.74175  0.73318  0.38975  1.0000
  O   O11       1.0  0.99120  0.73328  0.88962  1.0000
  O   O12       1.0  0.25824  0.26682  0.61026  1.0000
  O   O13       1.0  0.12116  0.14357  0.03025  1.0000
  O   O14       1.0  0.97748  0.85649  0.46978  1.0000
  O   O15       1.0  0.87885  0.85643  0.96975  1.0000
  O   O16       1.0  0.02251  0.14351  0.53021  1.0000
  O   O17       1.0  0.36233  0.87183  0.91600  1.0000
  O   O18       1.0  0.49063  0.12799  0.58415  1.0000
  O   O19       1.0  0.63767  0.12816  0.08400  1.0000
  O   O20       1.0  0.50937  0.87202  0.41587  1.0000
  O   O21       1.0  0.57389  0.88058  0.98933  1.0000
  O   O22       1.0  0.69363  0.11943  0.51092  1.0000
  O   O23       1.0  0.42612  0.11941  0.01067  1.0000
  O   O24       1.0  0.30637  0.88058  0.48909  1.0000
  O   O25       1.0  0.70069  0.85534  0.27108  1.0000
  O   O26       1.0  0.84549  0.14491  0.22907  1.0000
  O   O27       1.0  0.29929  0.14466  0.72892  1.0000
  O   O28       1.0  0.15453  0.85510  0.77094  1.0000
  O   O29       1.0  0.67143  0.88990  0.14942  1.0000
  O   O30       1.0  0.78170  0.11021  0.35071  1.0000
  O   O31       1.0  0.32857  0.11010  0.85058  1.0000
  O   O32       1.0  0.21828  0.88978  0.64930  1.0000
