data_image0
_chemical_formula_structural       Cu2H44C48N12Cl4O2
_chemical_formula_sum              "Cu2 H44 C48 N12 Cl4 O2"
_cell_length_a       6.74687
_cell_length_b       12.4557
_cell_length_c       14.8484
_cell_angle_alpha    114.769
_cell_angle_beta     93.7131
_cell_angle_gamma    90.0531

_space_group_name_H-M_alt    "P 1"
_space_group_IT_number       1

loop_
  _space_group_symop_operation_xyz
  'x, y, z'

loop_
  _atom_site_type_symbol
  _atom_site_label
  _atom_site_symmetry_multiplicity
  _atom_site_fract_x
  _atom_site_fract_y
  _atom_site_fract_z
  _atom_site_occupancy
  Cu  Cu1       1.0  0.00001  1.00000  0.50000  1.0000
  Cu  Cu2       1.0  0.50001  0.50000  0.50000  1.0000
  H   H1        1.0  0.16721  0.16264  0.45600  1.0000
  H   H2        1.0  0.33264  0.70657  0.54401  1.0000
  H   H3        1.0  0.83279  0.83736  0.54400  1.0000
  H   H4        1.0  0.66736  0.29343  0.45599  1.0000
  H   H5        1.0  0.32552  0.05823  0.45357  1.0000
  H   H6        1.0  0.17423  0.60442  0.54626  1.0000
  H   H7        1.0  0.67449  0.94177  0.54642  1.0000
  H   H8        1.0  0.82578  0.39558  0.45373  1.0000
  H   H9        1.0  0.26463  0.01368  0.67181  1.0000
  H   H10       1.0  0.23596  0.34143  0.32824  1.0000
  H   H11       1.0  0.73538  0.98632  0.32820  1.0000
  H   H12       1.0  0.76405  0.65858  0.67176  1.0000
  H   H13       1.0  0.34383  0.87205  0.30422  1.0000
  H   H14       1.0  0.15575  0.56722  0.69566  1.0000
  H   H15       1.0  0.65617  0.12795  0.69578  1.0000
  H   H16       1.0  0.84425  0.43279  0.30434  1.0000
  H   H17       1.0  0.04386  0.41973  0.76354  1.0000
  H   H18       1.0  0.45540  0.65640  0.23651  1.0000
  H   H19       1.0  0.95614  0.58027  0.23646  1.0000
  H   H20       1.0  0.54459  0.34360  0.76349  1.0000
  H   H21       1.0  0.99106  0.16446  0.31681  1.0000
  H   H22       1.0  0.50821  0.84760  0.68320  1.0000
  H   H23       1.0  0.00895  0.83554  0.68320  1.0000
  H   H24       1.0  0.49180  0.15240  0.31680  1.0000
  H   H25       1.0  0.93895  0.07415  0.13254  1.0000
  H   H26       1.0  0.56056  0.94117  0.86744  1.0000
  H   H27       1.0  0.06105  0.92585  0.86746  1.0000
  H   H28       1.0  0.43945  0.05883  0.13256  1.0000
  H   H29       1.0  0.96984  0.25745  0.59421  1.0000
  H   H30       1.0  0.52980  0.66328  0.40580  1.0000
  H   H31       1.0  0.03016  0.74254  0.40579  1.0000
  H   H32       1.0  0.47020  0.33673  0.59419  1.0000
  H   H33       1.0  0.32763  0.16184  0.84942  1.0000
  H   H34       1.0  0.17236  0.31221  0.15066  1.0000
  H   H35       1.0  0.67237  0.83816  0.15059  1.0000
  H   H36       1.0  0.82762  0.68779  0.84934  1.0000
  H   H37       1.0  0.08666  0.87967  0.03254  1.0000
  H   H38       1.0  0.41320  0.84623  0.96738  1.0000
  H   H39       1.0  0.91333  0.12033  0.96746  1.0000
  H   H40       1.0  0.58680  0.15377  0.03262  1.0000
  H   H41       1.0  0.28979  0.77883  0.11888  1.0000
  H   H42       1.0  0.20994  0.65900  0.88100  1.0000
  H   H43       1.0  0.71020  0.22117  0.88111  1.0000
  H   H44       1.0  0.79005  0.34100  0.11900  1.0000
  C   C1        1.0  0.17064  0.02365  0.32122  1.0000
  C   C2        1.0  0.32885  0.70207  0.67872  1.0000
  C   C3        1.0  0.82936  0.97635  0.67878  1.0000
  C   C4        1.0  0.67115  0.29794  0.32128  1.0000
  C   C5        1.0  0.21216  0.10378  0.69768  1.0000
  C   C6        1.0  0.28786  0.40586  0.30239  1.0000
  C   C7        1.0  0.78786  0.89622  0.30232  1.0000
  C   C8        1.0  0.71214  0.59414  0.69761  1.0000
  C   C9        1.0  0.25796  0.91582  0.26515  1.0000
  C   C10       1.0  0.24161  0.65007  0.73473  1.0000
  C   C11       1.0  0.74205  0.08418  0.73484  1.0000
  C   C12       1.0  0.75839  0.34993  0.26527  1.0000
  C   C13       1.0  0.09048  0.33034  0.74710  1.0000
  C   C14       1.0  0.40887  0.58339  0.25298  1.0000
  C   C15       1.0  0.90952  0.66965  0.25290  1.0000
  C   C16       1.0  0.59112  0.41661  0.74702  1.0000
  C   C17       1.0  0.18517  0.30244  0.82096  1.0000
  C   C18       1.0  0.31424  0.48157  0.17917  1.0000
  C   C19       1.0  0.81483  0.69756  0.17904  1.0000
  C   C20       1.0  0.68575  0.51843  0.82083  1.0000
  C   C21       1.0  0.05726  0.08058  0.27254  1.0000
  C   C22       1.0  0.44209  0.80779  0.72745  1.0000
  C   C23       1.0  0.94274  0.91942  0.72746  1.0000
  C   C24       1.0  0.55792  0.19221  0.27255  1.0000
  C   C25       1.0  0.21888  0.39424  0.92097  1.0000
  C   C26       1.0  0.28057  0.47335  0.07912  1.0000
  C   C27       1.0  0.78111  0.60576  0.07903  1.0000
  C   C28       1.0  0.71942  0.52665  0.92088  1.0000
  C   C29       1.0  0.02907  0.02934  0.16910  1.0000
  C   C30       1.0  0.47044  0.85977  0.83087  1.0000
  C   C31       1.0  0.97093  0.97066  0.83090  1.0000
  C   C32       1.0  0.52956  0.14023  0.16913  1.0000
  C   C33       1.0  0.05155  0.24108  0.65253  1.0000
  C   C34       1.0  0.44802  0.58855  0.34750  1.0000
  C   C35       1.0  0.94846  0.75891  0.34746  1.0000
  C   C36       1.0  0.55198  0.41145  0.65250  1.0000
  C   C37       1.0  0.24907  0.18696  0.79523  1.0000
  C   C38       1.0  0.25060  0.39164  0.20489  1.0000
  C   C39       1.0  0.75094  0.81304  0.20477  1.0000
  C   C40       1.0  0.74940  0.60836  0.79511  1.0000
  C   C41       1.0  0.11198  0.92075  0.11330  1.0000
  C   C42       1.0  0.38768  0.80671  0.88663  1.0000
  C   C43       1.0  0.88802  0.07925  0.88670  1.0000
  C   C44       1.0  0.61233  0.19328  0.11337  1.0000
  C   C45       1.0  0.22757  0.86472  0.16174  1.0000
  C   C46       1.0  0.27202  0.70221  0.83815  1.0000
  C   C47       1.0  0.77243  0.13528  0.83826  1.0000
  C   C48       1.0  0.72798  0.29779  0.16184  1.0000
  N   N1        1.0  0.18762  0.07214  0.42641  1.0000
  N   N2        1.0  0.31208  0.64556  0.57353  1.0000
  N   N3        1.0  0.81238  0.92786  0.57358  1.0000
  N   N4        1.0  0.68792  0.35444  0.42647  1.0000
  N   N5        1.0  0.22890  0.50912  0.94901  1.0000
  N   N6        1.0  0.27041  0.56016  0.05103  1.0000
  N   N7        1.0  0.77109  0.49088  0.05099  1.0000
  N   N8        1.0  0.72958  0.43983  0.94898  1.0000
  N   N9        1.0  0.10945  0.12952  0.62860  1.0000
  N   N10       1.0  0.39049  0.50077  0.37141  1.0000
  N   N11       1.0  0.89056  0.87048  0.37140  1.0000
  N   N12       1.0  0.60951  0.49923  0.62859  1.0000
  Cl  Cl1       1.0  0.34065  0.86579  0.50450  1.0000
  Cl  Cl2       1.0  0.15942  0.36124  0.49560  1.0000
  Cl  Cl3       1.0  0.65935  0.13421  0.49550  1.0000
  Cl  Cl4       1.0  0.84057  0.63876  0.50440  1.0000
  O   O1        1.0  0.24983  0.36516  0.00008  1.0000
  O   O2        1.0  0.75016  0.63484  0.99992  1.0000
