data_image0
_chemical_formula_structural       Mg4H72C32O8
_chemical_formula_sum              "Mg4 H72 C32 O8"
_cell_length_a       5.53593
_cell_length_b       12.4672
_cell_length_c       13.7989
_cell_angle_alpha    90.0027
_cell_angle_beta     90.0022
_cell_angle_gamma    90

_space_group_name_H-M_alt    "P 1"
_space_group_IT_number       1

loop_
  _space_group_symop_operation_xyz
  'x, y, z'

loop_
  _atom_site_type_symbol
  _atom_site_label
  _atom_site_symmetry_multiplicity
  _atom_site_fract_x
  _atom_site_fract_y
  _atom_site_fract_z
  _atom_site_occupancy
  Mg  Mg1       1.0  0.41370  0.15770  0.24999  1.0000
  Mg  Mg2       1.0  0.08632  0.65770  0.24999  1.0000
  Mg  Mg3       1.0  0.91369  0.34229  0.75000  1.0000
  Mg  Mg4       1.0  0.58631  0.84230  0.75001  1.0000
  H   H1        1.0  0.60194  0.25627  0.40991  1.0000
  H   H2        1.0  0.89807  0.75626  0.40992  1.0000
  H   H3        1.0  0.60190  0.25626  0.09007  1.0000
  H   H4        1.0  0.10192  0.24374  0.90993  1.0000
  H   H5        1.0  0.39806  0.74373  0.59009  1.0000
  H   H6        1.0  0.10191  0.24373  0.59007  1.0000
  H   H7        1.0  0.39809  0.74375  0.90994  1.0000
  H   H8        1.0  0.89809  0.75625  0.09007  1.0000
  H   H9        1.0  0.41816  0.15260  0.45142  1.0000
  H   H10       1.0  0.08185  0.65258  0.45143  1.0000
  H   H11       1.0  0.41814  0.15258  0.04855  1.0000
  H   H12       1.0  0.91816  0.34743  0.95144  1.0000
  H   H13       1.0  0.58184  0.84740  0.54859  1.0000
  H   H14       1.0  0.91814  0.34742  0.54856  1.0000
  H   H15       1.0  0.58186  0.84744  0.95145  1.0000
  H   H16       1.0  0.08185  0.65257  0.04856  1.0000
  H   H17       1.0  0.73459  0.01617  0.41727  1.0000
  H   H18       1.0  0.76545  0.51616  0.41725  1.0000
  H   H19       1.0  0.73456  0.01616  0.08274  1.0000
  H   H20       1.0  0.23457  0.48385  0.91726  1.0000
  H   H21       1.0  0.26543  0.98383  0.58274  1.0000
  H   H22       1.0  0.23455  0.48384  0.58274  1.0000
  H   H23       1.0  0.26543  0.98386  0.91727  1.0000
  H   H24       1.0  0.76543  0.51615  0.08273  1.0000
  H   H25       1.0  0.88685  0.12146  0.47725  1.0000
  H   H26       1.0  0.61316  0.62145  0.47723  1.0000
  H   H27       1.0  0.88686  0.12145  0.02277  1.0000
  H   H28       1.0  0.38687  0.37856  0.97724  1.0000
  H   H29       1.0  0.11317  0.87854  0.52276  1.0000
  H   H30       1.0  0.38685  0.37854  0.52276  1.0000
  H   H31       1.0  0.11313  0.87857  0.97723  1.0000
  H   H32       1.0  0.61313  0.62144  0.02276  1.0000
  H   H33       1.0  0.90900  0.10825  0.35051  1.0000
  H   H34       1.0  0.59104  0.60823  0.35049  1.0000
  H   H35       1.0  0.90894  0.10825  0.14951  1.0000
  H   H36       1.0  0.40896  0.39176  0.85049  1.0000
  H   H37       1.0  0.09101  0.89175  0.64950  1.0000
  H   H38       1.0  0.40895  0.39176  0.64951  1.0000
  H   H39       1.0  0.09106  0.89177  0.85049  1.0000
  H   H40       1.0  0.59106  0.60824  0.14950  1.0000
  H   H41       1.0  0.43522  0.40956  0.33977  1.0000
  H   H42       1.0  0.06481  0.90957  0.33977  1.0000
  H   H43       1.0  0.43519  0.40955  0.16023  1.0000
  H   H44       1.0  0.93524  0.09044  0.83976  1.0000
  H   H45       1.0  0.56480  0.59043  0.66023  1.0000
  H   H46       1.0  0.93518  0.09044  0.66022  1.0000
  H   H47       1.0  0.56476  0.59044  0.83976  1.0000
  H   H48       1.0  0.06480  0.90956  0.16022  1.0000
  H   H49       1.0  0.20344  0.48634  0.39796  1.0000
  H   H50       1.0  0.29659  0.98634  0.39794  1.0000
  H   H51       1.0  0.20338  0.48634  0.10205  1.0000
  H   H52       1.0  0.70345  0.01365  0.89795  1.0000
  H   H53       1.0  0.79659  0.51365  0.60205  1.0000
  H   H54       1.0  0.70340  0.01365  0.60204  1.0000
  H   H55       1.0  0.79657  0.51364  0.89796  1.0000
  H   H56       1.0  0.29658  0.98635  0.10204  1.0000
  H   H57       1.0  0.11833  0.28524  0.10104  1.0000
  H   H58       1.0  0.38166  0.78525  0.10103  1.0000
  H   H59       1.0  0.11838  0.28525  0.39896  1.0000
  H   H60       1.0  0.61833  0.21475  0.60104  1.0000
  H   H61       1.0  0.88161  0.71474  0.89897  1.0000
  H   H62       1.0  0.61839  0.21475  0.89896  1.0000
  H   H63       1.0  0.88166  0.71475  0.60106  1.0000
  H   H64       1.0  0.38166  0.78525  0.39896  1.0000
  H   H65       1.0  0.89014  0.35940  0.16391  1.0000
  H   H66       1.0  0.60982  0.85941  0.16390  1.0000
  H   H67       1.0  0.89018  0.35941  0.33610  1.0000
  H   H68       1.0  0.39015  0.14059  0.66390  1.0000
  H   H69       1.0  0.10984  0.64059  0.83612  1.0000
  H   H70       1.0  0.39018  0.14059  0.83611  1.0000
  H   H71       1.0  0.10984  0.64058  0.66392  1.0000
  H   H72       1.0  0.60985  0.85942  0.33609  1.0000
  C   C1        1.0  0.55518  0.17147  0.39538  1.0000
  C   C2        1.0  0.94486  0.67146  0.39537  1.0000
  C   C3        1.0  0.55513  0.17146  0.10461  1.0000
  C   C4        1.0  0.05513  0.32853  0.89538  1.0000
  C   C5        1.0  0.44483  0.82853  0.60463  1.0000
  C   C6        1.0  0.05512  0.32853  0.60462  1.0000
  C   C7        1.0  0.44486  0.82855  0.89540  1.0000
  C   C8        1.0  0.94487  0.67146  0.10462  1.0000
  C   C9        1.0  0.08217  0.33625  0.33600  1.0000
  C   C10       1.0  0.41785  0.83626  0.33598  1.0000
  C   C11       1.0  0.08215  0.33625  0.16401  1.0000
  C   C12       1.0  0.58220  0.16375  0.83598  1.0000
  C   C13       1.0  0.91783  0.66375  0.66402  1.0000
  C   C14       1.0  0.58215  0.16375  0.66401  1.0000
  C   C15       1.0  0.91782  0.66374  0.83600  1.0000
  C   C16       1.0  0.41782  0.83626  0.16401  1.0000
  C   C17       1.0  0.24404  0.43378  0.33653  1.0000
  C   C18       1.0  0.25598  0.93380  0.33652  1.0000
  C   C19       1.0  0.24401  0.43378  0.16347  1.0000
  C   C20       1.0  0.74407  0.06621  0.83652  1.0000
  C   C21       1.0  0.75598  0.56622  0.66347  1.0000
  C   C22       1.0  0.74402  0.06621  0.66347  1.0000
  C   C23       1.0  0.75593  0.56621  0.83654  1.0000
  C   C24       1.0  0.25597  0.93380  0.16347  1.0000
  C   C25       1.0  0.78103  0.10200  0.41145  1.0000
  C   C26       1.0  0.71900  0.60199  0.41144  1.0000
  C   C27       1.0  0.78100  0.10199  0.08855  1.0000
  C   C28       1.0  0.28101  0.39802  0.91145  1.0000
  C   C29       1.0  0.21898  0.89801  0.58855  1.0000
  C   C30       1.0  0.28099  0.39801  0.58855  1.0000
  C   C31       1.0  0.21899  0.89803  0.91145  1.0000
  C   C32       1.0  0.71900  0.60198  0.08855  1.0000
  O   O1        1.0  0.20693  0.49741  0.25001  1.0000
  O   O2        1.0  0.29307  0.99743  0.25000  1.0000
  O   O3        1.0  0.70693  0.00257  0.75000  1.0000
  O   O4        1.0  0.79307  0.50258  0.75000  1.0000
  O   O5        1.0  0.12687  0.27231  0.25000  1.0000
  O   O6        1.0  0.37311  0.77232  0.24999  1.0000
  O   O7        1.0  0.62690  0.22769  0.75001  1.0000
  O   O8        1.0  0.87309  0.72768  0.75002  1.0000
