data_image0
_chemical_formula_structural       Cu2H18C14N14
_chemical_formula_sum              "Cu2 H18 C14 N14"
_cell_length_a       5.7412
_cell_length_b       9.80272
_cell_length_c       10.2519
_cell_angle_alpha    109.745
_cell_angle_beta     106.085
_cell_angle_gamma    90.1368

_space_group_name_H-M_alt    "P 1"
_space_group_IT_number       1

loop_
  _space_group_symop_operation_xyz
  'x, y, z'

loop_
  _atom_site_type_symbol
  _atom_site_label
  _atom_site_symmetry_multiplicity
  _atom_site_fract_x
  _atom_site_fract_y
  _atom_site_fract_z
  _atom_site_occupancy
  Cu  Cu1       1.0  0.21270  0.02432  0.93614  1.0000
  Cu  Cu2       1.0  0.78729  0.97568  0.06386  1.0000
  H   H1        1.0  0.96328  0.26068  0.55766  1.0000
  H   H2        1.0  0.03673  0.73933  0.44234  1.0000
  H   H3        1.0  0.66034  0.43574  0.87904  1.0000
  H   H4        1.0  0.33967  0.56424  0.12096  1.0000
  H   H5        1.0  0.57827  0.26493  0.99878  1.0000
  H   H6        1.0  0.42172  0.73506  0.00122  1.0000
  H   H7        1.0  0.71737  0.07940  0.58049  1.0000
  H   H8        1.0  0.28262  0.92061  0.41951  1.0000
  H   H9        1.0  0.77927  0.06459  0.75546  1.0000
  H   H10       1.0  0.22072  0.93542  0.24454  1.0000
  H   H11       1.0  0.90378  0.94753  0.62430  1.0000
  H   H12       1.0  0.09619  0.05248  0.37569  1.0000
  H   H13       1.0  0.33927  0.57511  0.69656  1.0000
  H   H14       1.0  0.66075  0.42489  0.30344  1.0000
  H   H15       1.0  0.21863  0.43587  0.52380  1.0000
  H   H16       1.0  0.78139  0.56413  0.47621  1.0000
  H   H17       1.0  0.53721  0.46129  0.61586  1.0000
  H   H18       1.0  0.46282  0.53871  0.38414  1.0000
  C   C1        1.0  0.07727  0.16741  0.72301  1.0000
  C   C2        1.0  0.92273  0.83259  0.27699  1.0000
  C   C3        1.0  0.10888  0.26293  0.65316  1.0000
  C   C4        1.0  0.89113  0.73707  0.34684  1.0000
  C   C5        1.0  0.31904  0.36073  0.70478  1.0000
  C   C6        1.0  0.68097  0.63926  0.29522  1.0000
  C   C7        1.0  0.49317  0.36135  0.83180  1.0000
  C   C8        1.0  0.50684  0.63864  0.16820  1.0000
  C   C9        1.0  0.45111  0.26619  0.89853  1.0000
  C   C10       1.0  0.54888  0.73381  0.10147  1.0000
  C   C11       1.0  0.85688  0.05937  0.66751  1.0000
  C   C12       1.0  0.14311  0.94064  0.33249  1.0000
  C   C13       1.0  0.35473  0.46298  0.63018  1.0000
  C   C14       1.0  0.64529  0.53701  0.36982  1.0000
  N   N1        1.0  0.43632  0.89048  0.85582  1.0000
  N   N2        1.0  0.56368  0.10952  0.14418  1.0000
  N   N3        1.0  0.43391  0.85097  0.73008  1.0000
  N   N4        1.0  0.56608  0.14903  0.26991  1.0000
  N   N5        1.0  0.43776  0.80879  0.60990  1.0000
  N   N6        1.0  0.56223  0.19122  0.39011  1.0000
  N   N7        1.0  0.00361  0.86320  0.94908  1.0000
  N   N8        1.0  0.99637  0.13680  0.05092  1.0000
  N   N9        1.0  0.98329  0.73159  0.89093  1.0000
  N   N10       1.0  0.01670  0.26842  0.10907  1.0000
  N   N11       1.0  0.96561  0.60553  0.83713  1.0000
  N   N12       1.0  0.03439  0.39448  0.16287  1.0000
  N   N13       1.0  0.25024  0.16978  0.84471  1.0000
  N   N14       1.0  0.74975  0.83021  0.15529  1.0000
