data_image0
_chemical_formula_structural       Sr2H26C22N2O16F8
_chemical_formula_sum              "Sr2 H26 C22 N2 O16 F8"
_cell_length_a       8.83834
_cell_length_b       8.89107
_cell_length_c       10.7836
_cell_angle_alpha    93.6925
_cell_angle_beta     94.1403
_cell_angle_gamma    101.176

_space_group_name_H-M_alt    "P 1"
_space_group_IT_number       1

loop_
  _space_group_symop_operation_xyz
  'x, y, z'

loop_
  _atom_site_type_symbol
  _atom_site_label
  _atom_site_symmetry_multiplicity
  _atom_site_fract_x
  _atom_site_fract_y
  _atom_site_fract_z
  _atom_site_occupancy
  Sr  Sr1       1.0  0.41772  0.27344  0.57604  1.0000
  Sr  Sr2       1.0  0.58228  0.72656  0.42396  1.0000
  H   H1        1.0  0.27372  0.41018  0.34928  1.0000
  H   H2        1.0  0.72628  0.58982  0.65073  1.0000
  H   H3        1.0  0.14493  0.26780  0.37038  1.0000
  H   H4        1.0  0.85507  0.73220  0.62962  1.0000
  H   H5        1.0  0.27070  0.92878  0.55139  1.0000
  H   H6        1.0  0.72930  0.07122  0.44861  1.0000
  H   H7        1.0  0.16989  0.96803  0.43973  1.0000
  H   H8        1.0  0.83012  0.03198  0.56027  1.0000
  H   H9        1.0  0.64556  0.10894  0.70266  1.0000
  H   H10       1.0  0.35444  0.89106  0.29734  1.0000
  H   H11       1.0  0.49923  0.96957  0.67172  1.0000
  H   H12       1.0  0.50077  0.03043  0.32828  1.0000
  H   H13       1.0  0.15672  0.16367  0.88526  1.0000
  H   H14       1.0  0.84328  0.83632  0.11474  1.0000
  H   H15       1.0  0.21624  0.08198  0.06161  1.0000
  H   H16       1.0  0.78375  0.91802  0.93840  1.0000
  H   H17       1.0  0.35177  0.22007  0.16184  1.0000
  H   H18       1.0  0.64823  0.77993  0.83816  1.0000
  H   H19       1.0  0.41076  0.05726  0.08944  1.0000
  H   H20       1.0  0.58924  0.94274  0.91056  1.0000
  H   H21       1.0  0.57275  0.38200  0.05590  1.0000
  H   H22       1.0  0.42725  0.61800  0.94410  1.0000
  H   H23       1.0  0.54627  0.38113  0.88934  1.0000
  H   H24       1.0  0.45372  0.61887  0.11066  1.0000
  H   H25       1.0  0.61445  0.22728  0.95765  1.0000
  H   H26       1.0  0.38554  0.77272  0.04235  1.0000
  C   C1        1.0  0.34006  0.66575  0.62173  1.0000
  C   C2        1.0  0.65994  0.33425  0.37826  1.0000
  C   C3        1.0  0.27336  0.23009  0.87323  1.0000
  C   C4        1.0  0.72663  0.76990  0.12677  1.0000
  C   C5        1.0  0.20327  0.63817  0.69903  1.0000
  C   C6        1.0  0.79673  0.36183  0.30097  1.0000
  C   C7        1.0  0.33728  0.14243  0.07634  1.0000
  C   C8        1.0  0.66272  0.85757  0.92366  1.0000
  C   C9        1.0  0.18937  0.74180  0.79876  1.0000
  C   C10       1.0  0.81063  0.25820  0.20123  1.0000
  C   C11       1.0  0.53722  0.30951  0.96821  1.0000
  C   C12       1.0  0.46277  0.69049  0.03178  1.0000
  C   C13       1.0  0.06967  0.71254  0.87653  1.0000
  C   C14       1.0  0.93033  0.28746  0.12347  1.0000
  C   C15       1.0  0.95629  0.57991  0.85039  1.0000
  C   C16       1.0  0.04372  0.42009  0.14961  1.0000
  C   C17       1.0  0.95924  0.47552  0.74893  1.0000
  C   C18       1.0  0.04076  0.52448  0.25108  1.0000
  C   C19       1.0  0.81956  0.34751  0.70978  1.0000
  C   C20       1.0  0.18044  0.65249  0.29022  1.0000
  C   C21       1.0  0.08571  0.50633  0.67830  1.0000
  C   C22       1.0  0.91429  0.49368  0.32170  1.0000
  N   N1        1.0  0.37802  0.22796  0.96896  1.0000
  N   N2        1.0  0.62198  0.77203  0.03104  1.0000
  O   O1        1.0  0.40469  0.55532  0.59465  1.0000
  O   O2        1.0  0.59531  0.44469  0.40535  1.0000
  O   O3        1.0  0.29961  0.30071  0.77803  1.0000
  O   O4        1.0  0.70039  0.69928  0.22197  1.0000
  O   O5        1.0  0.25625  0.29936  0.36802  1.0000
  O   O6        1.0  0.74376  0.70064  0.63198  1.0000
  O   O7        1.0  0.38503  0.80072  0.58692  1.0000
  O   O8        1.0  0.61497  0.19928  0.41308  1.0000
  O   O9        1.0  0.22022  0.01209  0.52118  1.0000
  O   O10       1.0  0.77978  0.98791  0.47882  1.0000
  O   O11       1.0  0.69758  0.39717  0.67702  1.0000
  O   O12       1.0  0.30243  0.60283  0.32299  1.0000
  O   O13       1.0  0.53075  0.07891  0.70063  1.0000
  O   O14       1.0  0.46926  0.92109  0.29937  1.0000
  O   O15       1.0  0.83415  0.21007  0.71267  1.0000
  O   O16       1.0  0.16585  0.78993  0.28733  1.0000
  F   F1        1.0  0.29622  0.87288  0.82626  1.0000
  F   F2        1.0  0.70377  0.12713  0.17374  1.0000
  F   F3        1.0  0.06413  0.81234  0.97561  1.0000
  F   F4        1.0  0.93587  0.18766  0.02439  1.0000
  F   F5        1.0  0.83913  0.55484  0.92556  1.0000
  F   F6        1.0  0.16088  0.44516  0.07444  1.0000
  F   F7        1.0  0.08874  0.40660  0.57798  1.0000
  F   F8        1.0  0.91126  0.59341  0.42202  1.0000
