data_image0
_chemical_formula_structural       Cu3H16C8Br6O4
_chemical_formula_sum              "Cu3 H16 C8 Br6 O4"
_cell_length_a       7.32116
_cell_length_b       7.32107
_cell_length_c       9.54738
_cell_angle_alpha    99.3085
_cell_angle_beta     99.3076
_cell_angle_gamma    114.175

_space_group_name_H-M_alt    "P 1"
_space_group_IT_number       1

loop_
  _space_group_symop_operation_xyz
  'x, y, z'

loop_
  _atom_site_type_symbol
  _atom_site_label
  _atom_site_symmetry_multiplicity
  _atom_site_fract_x
  _atom_site_fract_y
  _atom_site_fract_z
  _atom_site_occupancy
  Cu  Cu1       1.0  0.90861  0.90861  0.30665  1.0000
  Cu  Cu2       1.0  0.09138  0.09138  0.69335  1.0000
  Cu  Cu3       1.0  0.00001  0.00000  0.99999  1.0000
  H   H1        1.0  0.37944  0.57919  0.13939  1.0000
  H   H2        1.0  0.42083  0.62057  0.86062  1.0000
  H   H3        1.0  0.62057  0.42083  0.86062  1.0000
  H   H4        1.0  0.57918  0.37944  0.13939  1.0000
  H   H5        1.0  0.42350  0.75581  0.30893  1.0000
  H   H6        1.0  0.24420  0.57650  0.69108  1.0000
  H   H7        1.0  0.57650  0.24420  0.69108  1.0000
  H   H8        1.0  0.75580  0.42350  0.30893  1.0000
  H   H9        1.0  0.26366  0.46405  0.42045  1.0000
  H   H10       1.0  0.53594  0.73632  0.57955  1.0000
  H   H11       1.0  0.73633  0.53594  0.57955  1.0000
  H   H12       1.0  0.46404  0.26366  0.42045  1.0000
  H   H13       1.0  0.08920  0.42075  0.25045  1.0000
  H   H14       1.0  0.57925  0.91080  0.74955  1.0000
  H   H15       1.0  0.91080  0.57925  0.74955  1.0000
  H   H16       1.0  0.42075  0.08919  0.25044  1.0000
  C   C1        1.0  0.41108  0.60359  0.25959  1.0000
  C   C2        1.0  0.39642  0.58892  0.74041  1.0000
  C   C3        1.0  0.58892  0.39642  0.74041  1.0000
  C   C4        1.0  0.60358  0.41108  0.25959  1.0000
  C   C5        1.0  0.24128  0.43395  0.30065  1.0000
  C   C6        1.0  0.56605  0.75872  0.69934  1.0000
  C   C7        1.0  0.75871  0.56605  0.69934  1.0000
  C   C8        1.0  0.43394  0.24128  0.30065  1.0000
  Br  Br1       1.0  0.86313  0.13687  0.50000  1.0000
  Br  Br2       1.0  0.13687  0.86312  0.50000  1.0000
  Br  Br3       1.0  0.72291  0.99698  0.11293  1.0000
  Br  Br4       1.0  0.00304  0.27711  0.88707  1.0000
  Br  Br5       1.0  0.27711  0.00304  0.88707  1.0000
  Br  Br6       1.0  0.99696  0.72290  0.11292  1.0000
  O   O1        1.0  0.60926  0.60927  0.31551  1.0000
  O   O2        1.0  0.39073  0.39073  0.68450  1.0000
  O   O3        1.0  0.23576  0.23576  0.24657  1.0000
  O   O4        1.0  0.76424  0.76424  0.75342  1.0000
