data_image0
_chemical_formula_structural       Ga4H32C68O20F24
_chemical_formula_sum              "Ga4 H32 C68 O20 F24"
_cell_length_a       12.3122
_cell_length_b       12.8712
_cell_length_c       14.1206
_cell_angle_alpha    117.078
_cell_angle_beta     105.678
_cell_angle_gamma    90.0572

_space_group_name_H-M_alt    "P 1"
_space_group_IT_number       1

loop_
  _space_group_symop_operation_xyz
  'x, y, z'

loop_
  _atom_site_type_symbol
  _atom_site_label
  _atom_site_symmetry_multiplicity
  _atom_site_fract_x
  _atom_site_fract_y
  _atom_site_fract_z
  _atom_site_occupancy
  Ga  Ga1       1.0  0.74995  0.90000  0.00011  1.0000
  Ga  Ga2       1.0  0.25004  0.10000  0.99988  1.0000
  Ga  Ga3       1.0  0.99998  1.00000  0.00000  1.0000
  Ga  Ga4       1.0  0.49997  0.00001  0.00001  1.0000
  H   H1        1.0  0.67130  0.35473  0.23269  1.0000
  H   H2        1.0  0.82884  0.12174  0.76701  1.0000
  H   H3        1.0  0.32869  0.64527  0.76733  1.0000
  H   H4        1.0  0.17115  0.87824  0.23298  1.0000
  H   H5        1.0  0.38031  0.43493  0.04188  1.0000
  H   H6        1.0  0.11972  0.39322  0.95813  1.0000
  H   H7        1.0  0.61971  0.56507  0.95810  1.0000
  H   H8        1.0  0.88027  0.60677  0.04188  1.0000
  H   H9        1.0  0.74716  0.56749  0.34690  1.0000
  H   H10       1.0  0.75294  0.22050  0.65303  1.0000
  H   H11       1.0  0.25285  0.43251  0.65312  1.0000
  H   H12       1.0  0.24704  0.77949  0.34696  1.0000
  H   H13       1.0  0.45935  0.64632  0.14798  1.0000
  H   H14       1.0  0.04067  0.49861  0.85218  1.0000
  H   H15       1.0  0.54069  0.35369  0.85200  1.0000
  H   H16       1.0  0.95931  0.50140  0.14784  1.0000
  H   H17       1.0  0.54508  0.69225  0.44080  1.0000
  H   H18       1.0  0.95497  0.25196  0.55935  1.0000
  H   H19       1.0  0.45492  0.30778  0.55920  1.0000
  H   H20       1.0  0.04503  0.74803  0.44066  1.0000
  H   H21       1.0  0.87138  0.87338  0.49995  1.0000
  H   H22       1.0  0.62867  0.37337  0.50019  1.0000
  H   H23       1.0  0.12863  0.12662  0.50005  1.0000
  H   H24       1.0  0.37134  0.62663  0.49981  1.0000
  H   H25       1.0  0.93277  0.89798  0.69191  1.0000
  H   H26       1.0  0.56717  0.20602  0.30831  1.0000
  H   H27       1.0  0.06724  0.10201  0.30809  1.0000
  H   H28       1.0  0.43284  0.79400  0.69170  1.0000
  H   H29       1.0  0.60584  0.72676  0.63671  1.0000
  H   H30       1.0  0.89409  0.09049  0.36355  1.0000
  H   H31       1.0  0.39416  0.27325  0.36329  1.0000
  H   H32       1.0  0.10591  0.90950  0.63646  1.0000
  C   C1        1.0  0.46691  0.25621  0.07472  1.0000
  C   C2        1.0  0.03323  0.18142  0.92511  1.0000
  C   C3        1.0  0.53307  0.74380  0.92529  1.0000
  C   C4        1.0  0.96676  0.81855  0.07486  1.0000
  C   C5        1.0  0.52027  0.38235  0.13160  1.0000
  C   C6        1.0  0.97987  0.25064  0.86821  1.0000
  C   C7        1.0  0.47972  0.61766  0.86840  1.0000
  C   C8        1.0  0.02012  0.74933  0.13179  1.0000
  C   C9        1.0  0.62523  0.41960  0.21568  1.0000
  C   C10       1.0  0.87493  0.20373  0.78411  1.0000
  C   C11       1.0  0.37476  0.58041  0.78433  1.0000
  C   C12       1.0  0.12506  0.79626  0.21589  1.0000
  C   C13       1.0  0.46187  0.46480  0.10748  1.0000
  C   C14       1.0  0.03822  0.35736  0.89246  1.0000
  C   C15       1.0  0.53815  0.53521  0.89252  1.0000
  C   C16       1.0  0.96176  0.64262  0.10755  1.0000
  C   C17       1.0  0.66746  0.53912  0.27907  1.0000
  C   C18       1.0  0.83267  0.25995  0.72083  1.0000
  C   C19       1.0  0.33254  0.46089  0.72095  1.0000
  C   C20       1.0  0.16732  0.74005  0.27917  1.0000
  C   C21       1.0  0.50641  0.58418  0.16868  1.0000
  C   C22       1.0  0.99366  0.41562  0.83134  1.0000
  C   C23       1.0  0.49362  0.41583  0.83133  1.0000
  C   C24       1.0  0.00632  0.58438  0.16867  1.0000
  C   C25       1.0  0.60784  0.62295  0.25745  1.0000
  C   C26       1.0  0.89224  0.36557  0.74255  1.0000
  C   C27       1.0  0.39217  0.37704  0.74255  1.0000
  C   C28       1.0  0.10775  0.63443  0.25746  1.0000
  C   C29       1.0  0.66017  0.75363  0.33283  1.0000
  C   C30       1.0  0.83984  0.42099  0.66729  1.0000
  C   C31       1.0  0.33984  0.24635  0.66717  1.0000
  C   C32       1.0  0.16016  0.57899  0.33270  1.0000
  C   C33       1.0  0.75682  0.77410  0.28844  1.0000
  C   C34       1.0  0.74313  0.48544  0.71179  1.0000
  C   C35       1.0  0.24318  0.22590  0.71157  1.0000
  C   C36       1.0  0.25687  0.51458  0.28820  1.0000
  C   C37       1.0  0.57302  0.84089  0.32816  1.0000
  C   C38       1.0  0.92686  0.51329  0.67213  1.0000
  C   C39       1.0  0.42698  0.15909  0.67182  1.0000
  C   C40       1.0  0.07316  0.48670  0.32787  1.0000
  C   C41       1.0  0.70417  0.77857  0.45523  1.0000
  C   C42       1.0  0.79592  0.32369  0.54490  1.0000
  C   C43       1.0  0.29582  0.22143  0.54476  1.0000
  C   C44       1.0  0.20409  0.67632  0.45511  1.0000
  C   C45       1.0  0.62985  0.73837  0.49566  1.0000
  C   C46       1.0  0.87021  0.24318  0.50448  1.0000
  C   C47       1.0  0.37016  0.26164  0.50433  1.0000
  C   C48       1.0  0.12979  0.75682  0.49553  1.0000
  C   C49       1.0  0.81280  0.83836  0.52735  1.0000
  C   C50       1.0  0.68726  0.31111  0.47279  1.0000
  C   C51       1.0  0.18721  0.16163  0.47263  1.0000
  C   C52       1.0  0.31276  0.68889  0.52723  1.0000
  C   C53       1.0  0.84779  0.85355  0.63583  1.0000
  C   C54       1.0  0.65220  0.21781  0.36435  1.0000
  C   C55       1.0  0.15222  0.14644  0.36416  1.0000
  C   C56       1.0  0.34781  0.78220  0.63567  1.0000
  C   C57       1.0  0.66353  0.75643  0.60468  1.0000
  C   C58       1.0  0.83646  0.15216  0.39549  1.0000
  C   C59       1.0  0.33648  0.24357  0.39531  1.0000
  C   C60       1.0  0.16354  0.84784  0.60452  1.0000
  C   C61       1.0  0.77345  0.81278  0.67519  1.0000
  C   C62       1.0  0.72650  0.13780  0.32497  1.0000
  C   C63       1.0  0.22656  0.18720  0.32480  1.0000
  C   C64       1.0  0.27350  0.86221  0.67504  1.0000
  C   C65       1.0  0.81024  0.83354  0.79275  1.0000
  C   C66       1.0  0.68967  0.04095  0.20744  1.0000
  C   C67       1.0  0.18975  0.16647  0.20724  1.0000
  C   C68       1.0  0.31034  0.95905  0.79257  1.0000
  O   O1        1.0  0.35919  0.23709  0.03319  1.0000
  O   O2        1.0  0.14095  0.20386  0.96657  1.0000
  O   O3        1.0  0.64080  0.76292  0.96678  1.0000
  O   O4        1.0  0.85902  0.79614  0.03343  1.0000
  O   O5        1.0  0.53345  0.18083  0.07594  1.0000
  O   O6        1.0  0.96663  0.10483  0.92401  1.0000
  O   O7        1.0  0.46654  0.81918  0.92409  1.0000
  O   O8        1.0  0.03337  0.89513  0.07594  1.0000
  O   O9        1.0  0.73400  0.81864  0.83259  1.0000
  O   O10       1.0  0.76592  0.98631  0.16767  1.0000
  O   O11       1.0  0.26597  0.18141  0.16740  1.0000
  O   O12       1.0  0.23411  0.01369  0.83234  1.0000
  O   O13       1.0  0.91672  0.86380  0.84502  1.0000
  O   O14       1.0  0.58319  0.01880  0.15514  1.0000
  O   O15       1.0  0.08326  0.13619  0.15497  1.0000
  O   O16       1.0  0.41682  0.98120  0.84486  1.0000
  O   O17       1.0  0.86616  0.02201  0.03828  1.0000
  O   O18       1.0  0.63403  0.98399  0.96199  1.0000
  O   O19       1.0  0.13387  0.97799  0.96170  1.0000
  O   O20       1.0  0.36600  0.01606  0.03806  1.0000
  F   F1        1.0  0.71894  0.73561  0.17700  1.0000
  F   F2        1.0  0.78107  0.55826  0.82327  1.0000
  F   F3        1.0  0.28106  0.26439  0.82300  1.0000
  F   F4        1.0  0.21893  0.44177  0.17674  1.0000
  F   F5        1.0  0.84411  0.71365  0.30716  1.0000
  F   F6        1.0  0.65600  0.40600  0.69306  1.0000
  F   F7        1.0  0.15589  0.28636  0.69284  1.0000
  F   F8        1.0  0.34400  0.59401  0.30694  1.0000
  F   F9        1.0  0.80314  0.88959  0.33801  1.0000
  F   F10       1.0  0.69666  0.55138  0.66232  1.0000
  F   F11       1.0  0.19685  0.11040  0.66198  1.0000
  F   F12       1.0  0.30335  0.44861  0.33765  1.0000
  F   F13       1.0  0.54030  0.84176  0.22864  1.0000
  F   F14       1.0  0.95951  0.61352  0.77173  1.0000
  F   F15       1.0  0.45970  0.15822  0.77134  1.0000
  F   F16       1.0  0.04051  0.38649  0.22829  1.0000
  F   F17       1.0  0.47632  0.81318  0.34654  1.0000
  F   F18       1.0  0.02362  0.46754  0.65373  1.0000
  F   F19       1.0  0.52368  0.18681  0.65344  1.0000
  F   F20       1.0  0.97639  0.53244  0.34629  1.0000
  F   F21       1.0  0.61775  0.95344  0.40845  1.0000
  F   F22       1.0  0.88215  0.54574  0.59199  1.0000
  F   F23       1.0  0.38224  0.04656  0.59154  1.0000
  F   F24       1.0  0.11787  0.45426  0.40802  1.0000
