data_image0
_chemical_formula_structural       Al4H32C68O20F24
_chemical_formula_sum              "Al4 H32 C68 O20 F24"
_cell_length_a       12.1144
_cell_length_b       12.7572
_cell_length_c       13.9919
_cell_angle_alpha    117.118
_cell_angle_beta     105.325
_cell_angle_gamma    90.002

_space_group_name_H-M_alt    "P 1"
_space_group_IT_number       1

loop_
  _space_group_symop_operation_xyz
  'x, y, z'

loop_
  _atom_site_type_symbol
  _atom_site_label
  _atom_site_symmetry_multiplicity
  _atom_site_fract_x
  _atom_site_fract_y
  _atom_site_fract_z
  _atom_site_occupancy
  Al  Al1       1.0  0.24993  0.39884  0.99999  1.0000
  Al  Al2       1.0  0.75005  0.60115  0.00001  1.0000
  Al  Al3       1.0  0.00001  0.49999  0.00000  1.0000
  Al  Al4       1.0  0.49999  0.49999  0.00000  1.0000
  H   H1        1.0  0.61821  0.89286  0.96170  1.0000
  H   H2        1.0  0.88200  0.93115  0.03797  1.0000
  H   H3        1.0  0.38179  0.10713  0.03829  1.0000
  H   H4        1.0  0.11799  0.06885  0.96203  1.0000
  H   H5        1.0  0.32543  0.61802  0.76829  1.0000
  H   H6        1.0  0.17445  0.84963  0.23180  1.0000
  H   H7        1.0  0.67456  0.38200  0.23172  1.0000
  H   H8        1.0  0.82555  0.15037  0.76819  1.0000
  H   H9        1.0  0.54002  0.99724  0.85279  1.0000
  H   H10       1.0  0.96024  0.14439  0.14688  1.0000
  H   H11       1.0  0.45997  0.00275  0.14720  1.0000
  H   H12       1.0  0.03977  0.85561  0.85312  1.0000
  H   H13       1.0  0.25157  0.71490  0.65043  1.0000
  H   H14       1.0  0.24837  0.06437  0.34970  1.0000
  H   H15       1.0  0.74842  0.28512  0.34958  1.0000
  H   H16       1.0  0.75163  0.93562  0.65028  1.0000
  H   H17       1.0  0.12418  0.87201  0.49945  1.0000
  H   H18       1.0  0.37587  0.37296  0.50055  1.0000
  H   H19       1.0  0.87582  0.12800  0.50056  1.0000
  H   H20       1.0  0.62415  0.62703  0.49944  1.0000
  H   H21       1.0  0.45471  0.74731  0.55434  1.0000
  H   H22       1.0  0.04552  0.19279  0.44554  1.0000
  H   H23       1.0  0.54530  0.25268  0.44566  1.0000
  H   H24       1.0  0.95447  0.80720  0.55444  1.0000
  H   H25       1.0  0.06116  0.70406  0.30593  1.0000
  H   H26       1.0  0.43888  0.39864  0.69419  1.0000
  H   H27       1.0  0.93884  0.29595  0.69407  1.0000
  H   H28       1.0  0.56112  0.60136  0.30581  1.0000
  H   H29       1.0  0.39202  0.58558  0.35644  1.0000
  H   H30       1.0  0.10819  0.22907  0.64349  1.0000
  H   H31       1.0  0.60798  0.41442  0.64355  1.0000
  H   H32       1.0  0.89180  0.77093  0.35650  1.0000
  C   C1        1.0  0.53125  0.68031  0.92993  1.0000
  C   C2        1.0  0.96876  0.75041  0.07003  1.0000
  C   C3        1.0  0.46875  0.31967  0.07007  1.0000
  C   C4        1.0  0.03123  0.24959  0.92997  1.0000
  C   C5        1.0  0.47759  0.74855  0.87095  1.0000
  C   C6        1.0  0.02245  0.87759  0.12896  1.0000
  C   C7        1.0  0.52240  0.25144  0.12905  1.0000
  C   C8        1.0  0.97755  0.12241  0.87104  1.0000
  C   C9        1.0  0.53657  0.85597  0.89481  1.0000
  C   C10       1.0  0.96355  0.96114  0.10499  1.0000
  C   C11       1.0  0.46343  0.14403  0.10520  1.0000
  C   C12       1.0  0.03644  0.03886  0.89501  1.0000
  C   C13       1.0  0.37233  0.70048  0.78528  1.0000
  C   C14       1.0  0.12761  0.91513  0.21476  1.0000
  C   C15       1.0  0.62766  0.29952  0.21472  1.0000
  C   C16       1.0  0.87238  0.08488  0.78524  1.0000
  C   C17       1.0  0.49254  0.91363  0.83199  1.0000
  C   C18       1.0  0.00765  0.08158  0.16777  1.0000
  C   C19       1.0  0.50747  0.08636  0.16800  1.0000
  C   C20       1.0  0.99235  0.91842  0.83222  1.0000
  C   C21       1.0  0.33101  0.75576  0.71983  1.0000
  C   C22       1.0  0.16899  0.03585  0.28021  1.0000
  C   C23       1.0  0.66898  0.24425  0.28017  1.0000
  C   C24       1.0  0.83101  0.96415  0.71979  1.0000
  C   C25       1.0  0.39118  0.86221  0.74146  1.0000
  C   C26       1.0  0.10894  0.12066  0.25841  1.0000
  C   C27       1.0  0.60883  0.13779  0.25854  1.0000
  C   C28       1.0  0.89106  0.87934  0.74158  1.0000
  C   C29       1.0  0.33885  0.91835  0.66564  1.0000
  C   C30       1.0  0.16126  0.25266  0.33425  1.0000
  C   C31       1.0  0.66116  0.08165  0.33436  1.0000
  C   C32       1.0  0.83874  0.74733  0.66575  1.0000
  C   C33       1.0  0.24096  0.98402  0.71113  1.0000
  C   C34       1.0  0.25913  0.27292  0.28886  1.0000
  C   C35       1.0  0.75904  0.01598  0.28888  1.0000
  C   C36       1.0  0.74087  0.72708  0.71114  1.0000
  C   C37       1.0  0.42738  0.01101  0.67022  1.0000
  C   C38       1.0  0.07269  0.34064  0.32953  1.0000
  C   C39       1.0  0.57263  0.98899  0.32980  1.0000
  C   C40       1.0  0.92731  0.65935  0.67047  1.0000
  C   C41       1.0  0.29387  0.82082  0.54219  1.0000
  C   C42       1.0  0.20629  0.27873  0.45777  1.0000
  C   C43       1.0  0.70614  0.17917  0.45781  1.0000
  C   C44       1.0  0.79372  0.72126  0.54222  1.0000
  C   C45       1.0  0.18352  0.80906  0.47078  1.0000
  C   C46       1.0  0.31659  0.33861  0.52924  1.0000
  C   C47       1.0  0.81647  0.19094  0.52922  1.0000
  C   C48       1.0  0.68341  0.66139  0.47076  1.0000
  C   C49       1.0  0.36873  0.73928  0.49995  1.0000
  C   C50       1.0  0.13144  0.23932  0.49997  1.0000
  C   C51       1.0  0.63127  0.26073  0.50005  1.0000
  C   C52       1.0  0.86856  0.76068  0.50001  1.0000
  C   C53       1.0  0.14754  0.71547  0.36140  1.0000
  C   C54       1.0  0.35255  0.35442  0.63865  1.0000
  C   C55       1.0  0.85245  0.28453  0.63860  1.0000
  C   C56       1.0  0.64745  0.64558  0.36135  1.0000
  C   C57       1.0  0.33398  0.64807  0.38989  1.0000
  C   C58       1.0  0.16616  0.25827  0.61007  1.0000
  C   C59       1.0  0.66603  0.35193  0.61012  1.0000
  C   C60       1.0  0.83383  0.74173  0.38992  1.0000
  C   C61       1.0  0.22230  0.63423  0.32015  1.0000
  C   C62       1.0  0.27777  0.31438  0.67986  1.0000
  C   C63       1.0  0.77771  0.36578  0.67985  1.0000
  C   C64       1.0  0.72222  0.68563  0.32014  1.0000
  C   C65       1.0  0.18410  0.53801  0.20147  1.0000
  C   C66       1.0  0.31589  0.33672  0.79853  1.0000
  C   C67       1.0  0.81591  0.46201  0.79854  1.0000
  C   C68       1.0  0.68409  0.66328  0.20146  1.0000
  O   O1        1.0  0.64072  0.69905  0.96778  1.0000
  O   O2        1.0  0.85928  0.73136  0.03237  1.0000
  O   O3        1.0  0.35927  0.30095  0.03222  1.0000
  O   O4        1.0  0.14071  0.26865  0.96763  1.0000
  O   O5        1.0  0.46401  0.60756  0.93498  1.0000
  O   O6        1.0  0.03595  0.67256  0.06488  1.0000
  O   O7        1.0  0.53599  0.39243  0.06502  1.0000
  O   O8        1.0  0.96403  0.32745  0.93514  1.0000
  O   O9        1.0  0.07692  0.52108  0.14802  1.0000
  O   O10       1.0  0.42309  0.37302  0.85201  1.0000
  O   O11       1.0  0.92308  0.47892  0.85198  1.0000
  O   O12       1.0  0.57690  0.62698  0.14799  1.0000
  O   O13       1.0  0.25919  0.47882  0.15989  1.0000
  O   O14       1.0  0.24071  0.31921  0.84007  1.0000
  O   O15       1.0  0.74081  0.52118  0.84011  1.0000
  O   O16       1.0  0.75928  0.68081  0.15994  1.0000
  O   O17       1.0  0.36681  0.51154  0.03800  1.0000
  O   O18       1.0  0.13317  0.47368  0.96217  1.0000
  O   O19       1.0  0.63320  0.48848  0.96200  1.0000
  O   O20       1.0  0.86680  0.52635  0.03785  1.0000
  F   F1        1.0  0.15262  0.90418  0.69257  1.0000
  F   F2        1.0  0.34748  0.21167  0.30748  1.0000
  F   F3        1.0  0.84739  0.09582  0.30744  1.0000
  F   F4        1.0  0.65252  0.78832  0.69251  1.0000
  F   F5        1.0  0.27917  0.05727  0.82343  1.0000
  F   F6        1.0  0.22102  0.23386  0.17656  1.0000
  F   F7        1.0  0.72083  0.94273  0.17658  1.0000
  F   F8        1.0  0.77898  0.76613  0.82344  1.0000
  F   F9        1.0  0.19411  0.05082  0.66163  1.0000
  F   F10       1.0  0.30590  0.38925  0.33842  1.0000
  F   F11       1.0  0.80590  0.94919  0.33839  1.0000
  F   F12       1.0  0.69410  0.61075  0.66157  1.0000
  F   F13       1.0  0.38272  0.04375  0.58941  1.0000
  F   F14       1.0  0.11718  0.45419  0.41044  1.0000
  F   F15       1.0  0.61729  0.95625  0.41060  1.0000
  F   F16       1.0  0.88282  0.54581  0.58954  1.0000
  F   F17       1.0  0.45990  0.11235  0.77046  1.0000
  F   F18       1.0  0.04037  0.34187  0.22933  1.0000
  F   F19       1.0  0.54011  0.88765  0.22956  1.0000
  F   F20       1.0  0.95962  0.65811  0.77067  1.0000
  F   F21       1.0  0.52564  0.96448  0.65168  1.0000
  F   F22       1.0  0.97434  0.31241  0.34775  1.0000
  F   F23       1.0  0.47437  0.03552  0.34833  1.0000
  F   F24       1.0  0.02567  0.68758  0.65226  1.0000
