data_image0
_chemical_formula_structural       Ga12H84C48
_chemical_formula_sum              "Ga12 H84 C48"
_cell_length_a       10.26
_cell_length_b       10.2601
_cell_length_c       15.7604
_cell_angle_alpha    76.8743
_cell_angle_beta     76.8746
_cell_angle_gamma    61.5801

_space_group_name_H-M_alt    "P 1"
_space_group_IT_number       1

loop_
  _space_group_symop_operation_xyz
  'x, y, z'

loop_
  _atom_site_type_symbol
  _atom_site_label
  _atom_site_symmetry_multiplicity
  _atom_site_fract_x
  _atom_site_fract_y
  _atom_site_fract_z
  _atom_site_occupancy
  Ga  Ga1       1.0  0.96821  0.68625  0.67641  1.0000
  Ga  Ga2       1.0  0.31375  0.03179  0.82359  1.0000
  Ga  Ga3       1.0  0.03179  0.31375  0.32359  1.0000
  Ga  Ga4       1.0  0.68624  0.96821  0.17641  1.0000
  Ga  Ga5       1.0  0.88028  0.63268  0.84983  1.0000
  Ga  Ga6       1.0  0.36732  0.11972  0.65017  1.0000
  Ga  Ga7       1.0  0.11972  0.36732  0.15017  1.0000
  Ga  Ga8       1.0  0.63268  0.88028  0.34983  1.0000
  Ga  Ga9       1.0  0.71982  0.23701  0.85200  1.0000
  Ga  Ga10      1.0  0.76299  0.28018  0.64799  1.0000
  Ga  Ga11      1.0  0.28018  0.76298  0.14800  1.0000
  Ga  Ga12      1.0  0.23702  0.71982  0.35200  1.0000
  H   H1        1.0  0.62592  0.80751  0.71164  1.0000
  H   H2        1.0  0.19248  0.37408  0.78836  1.0000
  H   H3        1.0  0.37408  0.19249  0.28836  1.0000
  H   H4        1.0  0.80751  0.62592  0.21164  1.0000
  H   H5        1.0  0.46933  0.25244  0.76857  1.0000
  H   H6        1.0  0.74756  0.53067  0.73143  1.0000
  H   H7        1.0  0.53068  0.74756  0.23143  1.0000
  H   H8        1.0  0.25244  0.46932  0.26857  1.0000
  H   H9        1.0  0.92346  0.92632  0.79350  1.0000
  H   H10       1.0  0.07368  0.07654  0.70649  1.0000
  H   H11       1.0  0.07654  0.07368  0.20649  1.0000
  H   H12       1.0  0.92632  0.92346  0.29351  1.0000
  H   H13       1.0  0.23457  0.65246  0.61214  1.0000
  H   H14       1.0  0.34754  0.76543  0.88786  1.0000
  H   H15       1.0  0.76543  0.34754  0.38786  1.0000
  H   H16       1.0  0.65246  0.23457  0.11214  1.0000
  H   H17       1.0  0.22266  0.60544  0.72832  1.0000
  H   H18       1.0  0.39455  0.77734  0.77168  1.0000
  H   H19       1.0  0.77734  0.39455  0.27168  1.0000
  H   H20       1.0  0.60545  0.22266  0.22832  1.0000
  H   H21       1.0  0.14491  0.79568  0.68064  1.0000
  H   H22       1.0  0.20431  0.85509  0.81936  1.0000
  H   H23       1.0  0.85509  0.20431  0.31936  1.0000
  H   H24       1.0  0.79569  0.14491  0.18064  1.0000
  H   H25       1.0  0.88806  0.78299  0.52287  1.0000
  H   H26       1.0  0.21701  0.11194  0.97713  1.0000
  H   H27       1.0  0.11194  0.21701  0.47713  1.0000
  H   H28       1.0  0.78299  0.88806  0.02287  1.0000
  H   H29       1.0  0.78537  0.68575  0.58630  1.0000
  H   H30       1.0  0.31425  0.21463  0.91370  1.0000
  H   H31       1.0  0.21463  0.31425  0.41370  1.0000
  H   H32       1.0  0.68575  0.78537  0.08630  1.0000
  H   H33       1.0  0.97540  0.58350  0.54108  1.0000
  H   H34       1.0  0.41650  0.02460  0.95892  1.0000
  H   H35       1.0  0.02460  0.41650  0.45892  1.0000
  H   H36       1.0  0.58350  0.97540  0.04108  1.0000
  H   H37       1.0  0.98575  0.70057  0.95672  1.0000
  H   H38       1.0  0.29943  0.01425  0.54328  1.0000
  H   H39       1.0  0.01425  0.29943  0.04328  1.0000
  H   H40       1.0  0.70057  0.98575  0.45672  1.0000
  H   H41       1.0  0.11300  0.67030  0.85737  1.0000
  H   H42       1.0  0.32970  0.88700  0.64263  1.0000
  H   H43       1.0  0.88700  0.32970  0.14263  1.0000
  H   H44       1.0  0.67030  0.11300  0.35737  1.0000
  H   H45       1.0  0.10626  0.51562  0.93291  1.0000
  H   H46       1.0  0.48438  0.89374  0.56709  1.0000
  H   H47       1.0  0.89374  0.48438  0.06709  1.0000
  H   H48       1.0  0.51562  0.10626  0.43291  1.0000
  H   H49       1.0  0.70804  0.54492  0.96486  1.0000
  H   H50       1.0  0.45508  0.29196  0.53515  1.0000
  H   H51       1.0  0.29195  0.45509  0.03514  1.0000
  H   H52       1.0  0.54492  0.70804  0.46486  1.0000
  H   H53       1.0  0.61295  0.65593  0.87320  1.0000
  H   H54       1.0  0.34408  0.38705  0.62680  1.0000
  H   H55       1.0  0.38705  0.34408  0.12680  1.0000
  H   H56       1.0  0.65592  0.61295  0.37320  1.0000
  H   H57       1.0  0.63421  0.74366  0.95112  1.0000
  H   H58       1.0  0.25634  0.36580  0.54888  1.0000
  H   H59       1.0  0.36579  0.25635  0.04887  1.0000
  H   H60       1.0  0.74366  0.63421  0.45113  1.0000
  H   H61       1.0  0.52903  0.46401  0.92967  1.0000
  H   H62       1.0  0.53599  0.47097  0.57033  1.0000
  H   H63       1.0  0.47098  0.53599  0.07033  1.0000
  H   H64       1.0  0.46401  0.52903  0.42967  1.0000
  H   H65       1.0  0.43686  0.40090  0.87781  1.0000
  H   H66       1.0  0.59910  0.56313  0.62219  1.0000
  H   H67       1.0  0.56314  0.59910  0.12219  1.0000
  H   H68       1.0  0.40091  0.43687  0.37781  1.0000
  H   H69       1.0  0.52332  0.51242  0.81465  1.0000
  H   H70       1.0  0.48758  0.47668  0.68535  1.0000
  H   H71       1.0  0.47668  0.48758  0.18535  1.0000
  H   H72       1.0  0.51242  0.52332  0.31465  1.0000
  H   H73       1.0  0.93284  0.21673  0.92115  1.0000
  H   H74       1.0  0.78327  0.06715  0.57885  1.0000
  H   H75       1.0  0.06715  0.78327  0.07885  1.0000
  H   H76       1.0  0.21673  0.93285  0.42115  1.0000
  H   H77       1.0  0.96790  0.03473  0.90706  1.0000
  H   H78       1.0  0.96528  0.03210  0.59294  1.0000
  H   H79       1.0  0.03210  0.96527  0.09294  1.0000
  H   H80       1.0  0.03472  0.96790  0.40706  1.0000
  H   H81       1.0  0.83442  0.12433  0.99489  1.0000
  H   H82       1.0  0.87567  0.16558  0.50511  1.0000
  H   H83       1.0  0.16558  0.87567  0.00511  1.0000
  H   H84       1.0  0.12433  0.83442  0.49489  1.0000
  C   C1        1.0  0.79150  0.84767  0.75060  1.0000
  C   C2        1.0  0.15233  0.20850  0.74940  1.0000
  C   C3        1.0  0.20850  0.15233  0.24940  1.0000
  C   C4        1.0  0.84767  0.79150  0.25060  1.0000
  C   C5        1.0  0.64657  0.89051  0.73183  1.0000
  C   C6        1.0  0.10949  0.35344  0.76817  1.0000
  C   C7        1.0  0.35343  0.10949  0.26817  1.0000
  C   C8        1.0  0.89051  0.64656  0.23183  1.0000
  C   C9        1.0  0.52808  0.03480  0.73702  1.0000
  C   C10       1.0  0.96520  0.47192  0.76298  1.0000
  C   C11       1.0  0.47192  0.96520  0.26298  1.0000
  C   C12       1.0  0.03480  0.52808  0.23702  1.0000
  C   C13       1.0  0.55901  0.13886  0.76397  1.0000
  C   C14       1.0  0.86113  0.44100  0.73603  1.0000
  C   C15       1.0  0.44099  0.86114  0.23603  1.0000
  C   C16       1.0  0.13886  0.55900  0.26397  1.0000
  C   C17       1.0  0.69846  0.10320  0.78601  1.0000
  C   C18       1.0  0.89680  0.30154  0.71399  1.0000
  C   C19       1.0  0.30155  0.89680  0.21399  1.0000
  C   C20       1.0  0.10320  0.69845  0.28601  1.0000
  C   C21       1.0  0.81312  0.95662  0.77765  1.0000
  C   C22       1.0  0.04338  0.18688  0.72235  1.0000
  C   C23       1.0  0.18688  0.04339  0.22235  1.0000
  C   C24       1.0  0.95662  0.81311  0.27765  1.0000
  C   C25       1.0  0.16259  0.68369  0.67451  1.0000
  C   C26       1.0  0.31631  0.83741  0.82550  1.0000
  C   C27       1.0  0.83741  0.31631  0.32550  1.0000
  C   C28       1.0  0.68369  0.16259  0.17450  1.0000
  C   C29       1.0  0.89565  0.68453  0.57100  1.0000
  C   C30       1.0  0.31548  0.10435  0.92900  1.0000
  C   C31       1.0  0.10435  0.31548  0.42901  1.0000
  C   C32       1.0  0.68452  0.89565  0.07099  1.0000
  C   C33       1.0  0.03793  0.63056  0.90364  1.0000
  C   C34       1.0  0.36944  0.96207  0.59636  1.0000
  C   C35       1.0  0.96207  0.36944  0.09636  1.0000
  C   C36       1.0  0.63056  0.03793  0.40364  1.0000
  C   C37       1.0  0.68832  0.64549  0.91626  1.0000
  C   C38       1.0  0.35451  0.31168  0.58375  1.0000
  C   C39       1.0  0.31167  0.35452  0.08374  1.0000
  C   C40       1.0  0.64549  0.68833  0.41626  1.0000
  C   C41       1.0  0.53409  0.42297  0.87004  1.0000
  C   C42       1.0  0.57704  0.46591  0.62996  1.0000
  C   C43       1.0  0.46592  0.57703  0.12997  1.0000
  C   C44       1.0  0.42297  0.53409  0.37004  1.0000
  C   C45       1.0  0.88083  0.14288  0.92584  1.0000
  C   C46       1.0  0.85713  0.11916  0.57416  1.0000
  C   C47       1.0  0.11917  0.85712  0.07416  1.0000
  C   C48       1.0  0.14288  0.88084  0.42584  1.0000
