data_image0
_chemical_formula_structural       Ga8H64C40
_chemical_formula_sum              "Ga8 H64 C40"
_cell_length_a       7.88659
_cell_length_b       9.80641
_cell_length_c       14.1518
_cell_angle_alpha    89.9994
_cell_angle_beta     89.9998
_cell_angle_gamma    97.3005

_space_group_name_H-M_alt    "P 1"
_space_group_IT_number       1

loop_
  _space_group_symop_operation_xyz
  'x, y, z'

loop_
  _atom_site_type_symbol
  _atom_site_label
  _atom_site_symmetry_multiplicity
  _atom_site_fract_x
  _atom_site_fract_y
  _atom_site_fract_z
  _atom_site_occupancy
  Ga  Ga1       1.0  0.89961  0.74670  0.83163  1.0000
  Ga  Ga2       1.0  0.10040  0.75330  0.33163  1.0000
  Ga  Ga3       1.0  0.10039  0.25330  0.16836  1.0000
  Ga  Ga4       1.0  0.89961  0.24670  0.66837  1.0000
  Ga  Ga5       1.0  0.49081  0.72183  0.78300  1.0000
  Ga  Ga6       1.0  0.50919  0.77816  0.28300  1.0000
  Ga  Ga7       1.0  0.50920  0.27817  0.21700  1.0000
  Ga  Ga8       1.0  0.49081  0.22184  0.71700  1.0000
  H   H1        1.0  0.68541  0.46186  0.82702  1.0000
  H   H2        1.0  0.31460  0.03812  0.32703  1.0000
  H   H3        1.0  0.31458  0.53814  0.17298  1.0000
  H   H4        1.0  0.68541  0.96186  0.67298  1.0000
  H   H5        1.0  0.61540  0.36762  0.53069  1.0000
  H   H6        1.0  0.38461  0.13240  0.03070  1.0000
  H   H7        1.0  0.38460  0.63238  0.46931  1.0000
  H   H8        1.0  0.61540  0.86761  0.96931  1.0000
  H   H9        1.0  0.76724  0.59612  0.48952  1.0000
  H   H10       1.0  0.23276  0.90392  0.98952  1.0000
  H   H11       1.0  0.23276  0.40389  0.51048  1.0000
  H   H12       1.0  0.76723  0.09610  0.01048  1.0000
  H   H13       1.0  0.86996  0.76126  0.61567  1.0000
  H   H14       1.0  0.13004  0.73875  0.11566  1.0000
  H   H15       1.0  0.13003  0.23874  0.38433  1.0000
  H   H16       1.0  0.86996  0.26125  0.88433  1.0000
  H   H17       1.0  0.05960  0.99152  0.82834  1.0000
  H   H18       1.0  0.94039  0.50848  0.32834  1.0000
  H   H19       1.0  0.94040  0.00848  0.17166  1.0000
  H   H20       1.0  0.05961  0.49151  0.67166  1.0000
  H   H21       1.0  0.07919  0.91308  0.71610  1.0000
  H   H22       1.0  0.92080  0.58692  0.21610  1.0000
  H   H23       1.0  0.92082  0.08691  0.28390  1.0000
  H   H24       1.0  0.07920  0.41307  0.78390  1.0000
  H   H25       1.0  0.20459  0.86932  0.81341  1.0000
  H   H26       1.0  0.79540  0.63069  0.31341  1.0000
  H   H27       1.0  0.79541  0.13068  0.18659  1.0000
  H   H28       1.0  0.20459  0.36931  0.68659  1.0000
  H   H29       1.0  0.99813  0.61420  0.97078  1.0000
  H   H30       1.0  0.00187  0.88579  0.47077  1.0000
  H   H31       1.0  0.00187  0.38579  0.02922  1.0000
  H   H32       1.0  0.99813  0.11421  0.52922  1.0000
  H   H33       1.0  0.77200  0.60276  0.97610  1.0000
  H   H34       1.0  0.22800  0.89724  0.47610  1.0000
  H   H35       1.0  0.22800  0.39723  0.02390  1.0000
  H   H36       1.0  0.77200  0.10276  0.52390  1.0000
  H   H37       1.0  0.89965  0.75566  0.01370  1.0000
  H   H38       1.0  0.10036  0.74433  0.51370  1.0000
  H   H39       1.0  0.10035  0.24433  0.98630  1.0000
  H   H40       1.0  0.89964  0.25567  0.48630  1.0000
  H   H41       1.0  0.25886  0.72280  0.65709  1.0000
  H   H42       1.0  0.74113  0.77720  0.15708  1.0000
  H   H43       1.0  0.74114  0.27721  0.34292  1.0000
  H   H44       1.0  0.25886  0.22280  0.84291  1.0000
  H   H45       1.0  0.46199  0.77956  0.60571  1.0000
  H   H46       1.0  0.53800  0.72044  0.10571  1.0000
  H   H47       1.0  0.53801  0.22046  0.39429  1.0000
  H   H48       1.0  0.46199  0.27956  0.89429  1.0000
  H   H49       1.0  0.39981  0.60123  0.62859  1.0000
  H   H50       1.0  0.60019  0.89877  0.12859  1.0000
  H   H51       1.0  0.60020  0.39878  0.37141  1.0000
  H   H52       1.0  0.39980  0.10123  0.87141  1.0000
  H   H53       1.0  0.33832  0.50682  0.86741  1.0000
  H   H54       1.0  0.66168  0.99317  0.36741  1.0000
  H   H55       1.0  0.66167  0.49318  0.13259  1.0000
  H   H56       1.0  0.33832  0.00682  0.63259  1.0000
  H   H57       1.0  0.49557  0.59485  0.94397  1.0000
  H   H58       1.0  0.50442  0.90514  0.44397  1.0000
  H   H59       1.0  0.50442  0.40515  0.05604  1.0000
  H   H60       1.0  0.49558  0.09486  0.55603  1.0000
  H   H61       1.0  0.29864  0.66016  0.92586  1.0000
  H   H62       1.0  0.70136  0.83983  0.42586  1.0000
  H   H63       1.0  0.70135  0.33985  0.07414  1.0000
  H   H64       1.0  0.29865  0.16016  0.57414  1.0000
  C   C1        1.0  0.78441  0.62432  0.73148  1.0000
  C   C2        1.0  0.21559  0.87567  0.23148  1.0000
  C   C3        1.0  0.21559  0.37568  0.26852  1.0000
  C   C4        1.0  0.78441  0.12432  0.76852  1.0000
  C   C5        1.0  0.70063  0.49250  0.75280  1.0000
  C   C6        1.0  0.29938  0.00750  0.25281  1.0000
  C   C7        1.0  0.29937  0.50750  0.24719  1.0000
  C   C8        1.0  0.70063  0.99250  0.74720  1.0000
  C   C9        1.0  0.63644  0.39725  0.68233  1.0000
  C   C10       1.0  0.36357  0.10276  0.18234  1.0000
  C   C11       1.0  0.36356  0.60275  0.31767  1.0000
  C   C12       1.0  0.63644  0.89724  0.81767  1.0000
  C   C13       1.0  0.66240  0.43794  0.58738  1.0000
  C   C14       1.0  0.33760  0.06207  0.08739  1.0000
  C   C15       1.0  0.33760  0.56206  0.41261  1.0000
  C   C16       1.0  0.66241  0.93793  0.91261  1.0000
  C   C17       1.0  0.74733  0.56778  0.56366  1.0000
  C   C18       1.0  0.25267  0.93225  0.06366  1.0000
  C   C19       1.0  0.25266  0.43222  0.43634  1.0000
  C   C20       1.0  0.74733  0.06776  0.93634  1.0000
  C   C21       1.0  0.80543  0.65987  0.63495  1.0000
  C   C22       1.0  0.19457  0.84015  0.13494  1.0000
  C   C23       1.0  0.19456  0.34014  0.36506  1.0000
  C   C24       1.0  0.80543  0.15986  0.86506  1.0000
  C   C25       1.0  0.07814  0.89516  0.79265  1.0000
  C   C26       1.0  0.92185  0.60484  0.29266  1.0000
  C   C27       1.0  0.92186  0.10483  0.20735  1.0000
  C   C28       1.0  0.07815  0.39516  0.70734  1.0000
  C   C29       1.0  0.88894  0.67258  0.96138  1.0000
  C   C30       1.0  0.11106  0.82742  0.46138  1.0000
  C   C31       1.0  0.11106  0.32742  0.03861  1.0000
  C   C32       1.0  0.88894  0.17258  0.53862  1.0000
  C   C33       1.0  0.39363  0.70567  0.65501  1.0000
  C   C34       1.0  0.60636  0.79433  0.15501  1.0000
  C   C35       1.0  0.60637  0.29434  0.34499  1.0000
  C   C36       1.0  0.39363  0.20567  0.84499  1.0000
  C   C37       1.0  0.39752  0.60832  0.89097  1.0000
  C   C38       1.0  0.60247  0.89167  0.39097  1.0000
  C   C39       1.0  0.60247  0.39168  0.10903  1.0000
  C   C40       1.0  0.39753  0.10833  0.60903  1.0000
