data_image0
_chemical_formula_structural       Ag2H30C34S2N8O6
_chemical_formula_sum              "Ag2 H30 C34 S2 N8 O6"
_cell_length_a       8.86089
_cell_length_b       9.69934
_cell_length_c       10.2434
_cell_angle_alpha    74.8786
_cell_angle_beta     74.5266
_cell_angle_gamma    88.3911

_space_group_name_H-M_alt    "P 1"
_space_group_IT_number       1

loop_
  _space_group_symop_operation_xyz
  'x, y, z'

loop_
  _atom_site_type_symbol
  _atom_site_label
  _atom_site_symmetry_multiplicity
  _atom_site_fract_x
  _atom_site_fract_y
  _atom_site_fract_z
  _atom_site_occupancy
  Ag  Ag1       1.0  0.38819  0.11647  0.07181  1.0000
  Ag  Ag2       1.0  0.61181  0.88353  0.92819  1.0000
  H   H1        1.0  0.27579  0.03556  0.85102  1.0000
  H   H2        1.0  0.72421  0.96444  0.14898  1.0000
  H   H3        1.0  0.16275  0.86960  0.28268  1.0000
  H   H4        1.0  0.83725  0.13040  0.71732  1.0000
  H   H5        1.0  0.08189  0.86691  0.82667  1.0000
  H   H6        1.0  0.91811  0.13308  0.17333  1.0000
  H   H7        1.0  0.95838  0.69800  0.27764  1.0000
  H   H8        1.0  0.04162  0.30200  0.72236  1.0000
  H   H9        1.0  0.62034  0.54489  0.46106  1.0000
  H   H10       1.0  0.37966  0.45510  0.53894  1.0000
  H   H11       1.0  0.65968  0.99932  0.40922  1.0000
  H   H12       1.0  0.34032  0.00068  0.59078  1.0000
  H   H13       1.0  0.82535  0.50700  0.58396  1.0000
  H   H14       1.0  0.17465  0.49300  0.41604  1.0000
  H   H15       1.0  0.86857  0.96141  0.53281  1.0000
  H   H16       1.0  0.13143  0.03859  0.46719  1.0000
  H   H17       1.0  0.01332  0.59578  0.67760  1.0000
  H   H18       1.0  0.98668  0.40422  0.32240  1.0000
  H   H19       1.0  0.95592  0.75130  0.73550  1.0000
  H   H20       1.0  0.04408  0.24870  0.26450  1.0000
  H   H21       1.0  0.10283  0.76299  0.57498  1.0000
  H   H22       1.0  0.89717  0.23701  0.42502  1.0000
  H   H23       1.0  0.79153  0.55358  0.88563  1.0000
  H   H24       1.0  0.20847  0.44643  0.11437  1.0000
  H   H25       1.0  0.66597  0.37276  0.33593  1.0000
  H   H26       1.0  0.33403  0.62724  0.66407  1.0000
  H   H27       1.0  0.60234  0.37038  0.87274  1.0000
  H   H28       1.0  0.39766  0.62962  0.12726  1.0000
  H   H29       1.0  0.48259  0.19996  0.30354  1.0000
  H   H30       1.0  0.51741  0.80004  0.69646  1.0000
  C   C1        1.0  0.20386  0.95848  0.94206  1.0000
  C   C2        1.0  0.79614  0.04152  0.05794  1.0000
  C   C3        1.0  0.13905  0.86643  0.18444  1.0000
  C   C4        1.0  0.86095  0.13357  0.81556  1.0000
  C   C5        1.0  0.62868  0.77539  0.42436  1.0000
  C   C6        1.0  0.37132  0.22461  0.57564  1.0000
  C   C7        1.0  0.09688  0.86466  0.92922  1.0000
  C   C8        1.0  0.90312  0.13534  0.07078  1.0000
  C   C9        1.0  0.02869  0.76957  0.18108  1.0000
  C   C10       1.0  0.97131  0.23043  0.81892  1.0000
  C   C11       1.0  0.67519  0.63718  0.47467  1.0000
  C   C12       1.0  0.32481  0.36282  0.52533  1.0000
  C   C13       1.0  0.69957  0.89224  0.44454  1.0000
  C   C14       1.0  0.30043  0.10776  0.55546  1.0000
  C   C15       1.0  0.00734  0.76820  0.05037  1.0000
  C   C16       1.0  0.99266  0.23180  0.94964  1.0000
  C   C17       1.0  0.79216  0.61611  0.54483  1.0000
  C   C18       1.0  0.20784  0.38389  0.45517  1.0000
  C   C19       1.0  0.81674  0.86977  0.51475  1.0000
  C   C20       1.0  0.18326  0.13023  0.48525  1.0000
  C   C21       1.0  0.86547  0.73196  0.56577  1.0000
  C   C22       1.0  0.13453  0.26804  0.43423  1.0000
  C   C23       1.0  0.99065  0.70943  0.64226  1.0000
  C   C24       1.0  0.00935  0.29057  0.35774  1.0000
  C   C25       1.0  0.74054  0.47850  0.11232  1.0000
  C   C26       1.0  0.25946  0.52150  0.88768  1.0000
  C   C27       1.0  0.72359  0.47771  0.98006  1.0000
  C   C28       1.0  0.27641  0.52229  0.01994  1.0000
  C   C29       1.0  0.65392  0.37750  0.23163  1.0000
  C   C30       1.0  0.34608  0.62250  0.76838  1.0000
  C   C31       1.0  0.62064  0.37702  0.97218  1.0000
  C   C32       1.0  0.37936  0.62298  0.02782  1.0000
  C   C33       1.0  0.55195  0.28133  0.21459  1.0000
  C   C34       1.0  0.44805  0.71867  0.78541  1.0000
  S   S1        1.0  0.47723  0.79917  0.33606  1.0000
  S   S2        1.0  0.52277  0.20083  0.66394  1.0000
  N   N1        1.0  0.22472  0.96029  0.06721  1.0000
  N   N2        1.0  0.77528  0.03971  0.93279  1.0000
  N   N3        1.0  0.53576  0.28024  0.08756  1.0000
  N   N4        1.0  0.46424  0.71976  0.91244  1.0000
  N   N5        1.0  0.89729  0.67800  0.03022  1.0000
  N   N6        1.0  0.10270  0.32200  0.96978  1.0000
  N   N7        1.0  0.84722  0.57094  0.13350  1.0000
  N   N8        1.0  0.15278  0.42906  0.86650  1.0000
  O   O1        1.0  0.44732  0.95286  0.30720  1.0000
  O   O2        1.0  0.55269  0.04714  0.69279  1.0000
  O   O3        1.0  0.34210  0.70837  0.43228  1.0000
  O   O4        1.0  0.65790  0.29163  0.56772  1.0000
  O   O5        1.0  0.54367  0.75229  0.20720  1.0000
  O   O6        1.0  0.45633  0.24771  0.79280  1.0000
