data_image0
_chemical_formula_structural       Zn2H44C44N8O8
_chemical_formula_sum              "Zn2 H44 C44 N8 O8"
_cell_length_a       5.21956
_cell_length_b       9.41812
_cell_length_c       19.6494
_cell_angle_alpha    96.9148
_cell_angle_beta     90.001
_cell_angle_gamma    90

_space_group_name_H-M_alt    "P 1"
_space_group_IT_number       1

loop_
  _space_group_symop_operation_xyz
  'x, y, z'

loop_
  _atom_site_type_symbol
  _atom_site_label
  _atom_site_symmetry_multiplicity
  _atom_site_fract_x
  _atom_site_fract_y
  _atom_site_fract_z
  _atom_site_occupancy
  Zn  Zn1       1.0  0.50000  0.50000  0.00000  1.0000
  Zn  Zn2       1.0  0.99999  0.00000  0.00000  1.0000
  H   H1        1.0  0.22778  0.53540  0.46222  1.0000
  H   H2        1.0  0.72776  0.96460  0.53777  1.0000
  H   H3        1.0  0.77225  0.46460  0.53778  1.0000
  H   H4        1.0  0.27225  0.03540  0.46222  1.0000
  H   H5        1.0  0.57747  0.71335  0.49014  1.0000
  H   H6        1.0  0.07745  0.78665  0.50986  1.0000
  H   H7        1.0  0.42255  0.28664  0.50986  1.0000
  H   H8        1.0  0.92256  0.21335  0.49014  1.0000
  H   H9        1.0  0.89270  0.76433  0.40159  1.0000
  H   H10       1.0  0.39269  0.73566  0.59841  1.0000
  H   H11       1.0  0.10731  0.23566  0.59841  1.0000
  H   H12       1.0  0.60732  0.26433  0.40159  1.0000
  H   H13       1.0  0.86891  0.64087  0.28330  1.0000
  H   H14       1.0  0.36890  0.85913  0.71671  1.0000
  H   H15       1.0  0.13110  0.35913  0.71670  1.0000
  H   H16       1.0  0.63111  0.14087  0.28329  1.0000
  H   H17       1.0  0.79363  0.34881  0.18655  1.0000
  H   H18       1.0  0.29362  0.15119  0.81345  1.0000
  H   H19       1.0  0.20637  0.65119  0.81345  1.0000
  H   H20       1.0  0.70637  0.84881  0.18655  1.0000
  H   H21       1.0  0.67898  0.51198  0.16375  1.0000
  H   H22       1.0  0.17897  0.98803  0.83626  1.0000
  H   H23       1.0  0.32101  0.48803  0.83625  1.0000
  H   H24       1.0  0.82102  0.01197  0.16375  1.0000
  H   H25       1.0  0.37622  0.23431  0.13099  1.0000
  H   H26       1.0  0.87621  0.26570  0.86901  1.0000
  H   H27       1.0  0.62377  0.76569  0.86901  1.0000
  H   H28       1.0  0.12378  0.73431  0.13099  1.0000
  H   H29       1.0  0.23278  0.49994  0.11788  1.0000
  H   H30       1.0  0.73278  0.00006  0.88211  1.0000
  H   H31       1.0  0.76721  0.50006  0.88212  1.0000
  H   H32       1.0  0.26720  0.99994  0.11788  1.0000
  H   H33       1.0  0.15077  0.26179  0.22928  1.0000
  H   H34       1.0  0.65076  0.23820  0.77072  1.0000
  H   H35       1.0  0.84923  0.73821  0.77072  1.0000
  H   H36       1.0  0.34925  0.76179  0.22928  1.0000
  H   H37       1.0  0.04040  0.33990  0.35096  1.0000
  H   H38       1.0  0.54039  0.16009  0.64904  1.0000
  H   H39       1.0  0.95961  0.66010  0.64904  1.0000
  H   H40       1.0  0.45962  0.83991  0.35096  1.0000
  H   H41       1.0  0.15160  0.36487  0.06079  1.0000
  H   H42       1.0  0.65160  0.13513  0.93921  1.0000
  H   H43       1.0  0.84839  0.63513  0.93921  1.0000
  H   H44       1.0  0.34839  0.86487  0.06079  1.0000
  C   C1        1.0  0.68985  0.26556  0.06563  1.0000
  C   C2        1.0  0.18983  0.23444  0.93438  1.0000
  C   C3        1.0  0.31015  0.73443  0.93438  1.0000
  C   C4        1.0  0.81016  0.76556  0.06562  1.0000
  C   C5        1.0  0.47988  0.32691  0.11557  1.0000
  C   C6        1.0  0.97987  0.17310  0.88444  1.0000
  C   C7        1.0  0.52012  0.67309  0.88443  1.0000
  C   C8        1.0  0.02013  0.82690  0.11557  1.0000
  C   C9        1.0  0.61642  0.40773  0.17795  1.0000
  C   C10       1.0  0.11640  0.09227  0.82205  1.0000
  C   C11       1.0  0.38358  0.59227  0.82205  1.0000
  C   C12       1.0  0.88359  0.90773  0.17795  1.0000
  C   C13       1.0  0.46489  0.42490  0.24300  1.0000
  C   C14       1.0  0.96488  0.07510  0.75699  1.0000
  C   C15       1.0  0.53510  0.57510  0.75700  1.0000
  C   C16       1.0  0.03512  0.92490  0.24300  1.0000
  C   C17       1.0  0.25580  0.34611  0.25979  1.0000
  C   C18       1.0  0.75579  0.15389  0.74020  1.0000
  C   C19       1.0  0.74420  0.65389  0.74021  1.0000
  C   C20       1.0  0.24421  0.84611  0.25980  1.0000
  C   C21       1.0  0.35152  0.48933  0.35627  1.0000
  C   C22       1.0  0.85150  0.01066  0.64373  1.0000
  C   C23       1.0  0.64849  0.51067  0.64373  1.0000
  C   C24       1.0  0.14851  0.98933  0.35627  1.0000
  C   C25       1.0  0.36391  0.55932  0.42313  1.0000
  C   C26       1.0  0.86389  0.94067  0.57687  1.0000
  C   C27       1.0  0.63611  0.44067  0.57687  1.0000
  C   C28       1.0  0.13612  0.05932  0.42313  1.0000
  C   C29       1.0  0.56041  0.65818  0.43831  1.0000
  C   C30       1.0  0.06039  0.84182  0.56169  1.0000
  C   C31       1.0  0.43961  0.34182  0.56169  1.0000
  C   C32       1.0  0.93962  0.15818  0.43831  1.0000
  C   C33       1.0  0.73994  0.68727  0.38797  1.0000
  C   C34       1.0  0.23992  0.81273  0.61203  1.0000
  C   C35       1.0  0.26007  0.31273  0.61203  1.0000
  C   C36       1.0  0.76008  0.18727  0.38797  1.0000
  C   C37       1.0  0.72696  0.61782  0.32122  1.0000
  C   C38       1.0  0.22695  0.88218  0.67878  1.0000
  C   C39       1.0  0.27304  0.38218  0.67878  1.0000
  C   C40       1.0  0.77305  0.11782  0.32122  1.0000
  C   C41       1.0  0.53065  0.51747  0.30431  1.0000
  C   C42       1.0  0.03063  0.98252  0.69569  1.0000
  C   C43       1.0  0.46935  0.48253  0.69569  1.0000
  C   C44       1.0  0.96937  0.01748  0.30431  1.0000
  N   N1        1.0  0.18819  0.38487  0.32730  1.0000
  N   N2        1.0  0.68817  0.11512  0.67270  1.0000
  N   N3        1.0  0.81181  0.61513  0.67270  1.0000
  N   N4        1.0  0.31183  0.88487  0.32730  1.0000
  N   N5        1.0  0.30470  0.42113  0.08284  1.0000
  N   N6        1.0  0.80469  0.07887  0.91716  1.0000
  N   N7        1.0  0.69529  0.57887  0.91717  1.0000
  N   N8        1.0  0.19529  0.92113  0.08284  1.0000
  O   O1        1.0  0.79170  0.14962  0.07819  1.0000
  O   O2        1.0  0.29169  0.35039  0.92181  1.0000
  O   O3        1.0  0.20829  0.85038  0.92181  1.0000
  O   O4        1.0  0.70831  0.64960  0.07819  1.0000
  O   O5        1.0  0.75974  0.33790  0.01797  1.0000
  O   O6        1.0  0.25973  0.16210  0.98203  1.0000
  O   O7        1.0  0.24025  0.66210  0.98203  1.0000
  O   O8        1.0  0.74025  0.83790  0.01797  1.0000
