data_image0
_chemical_formula_structural       ZnH22C22N4O4
_chemical_formula_sum              "Zn1 H22 C22 N4 O4"
_cell_length_a       5.57748
_cell_length_b       5.57786
_cell_length_c       20.553
_cell_angle_alpha    79.8154
_cell_angle_beta     79.8164
_cell_angle_gamma    57.9221

_space_group_name_H-M_alt    "P 1"
_space_group_IT_number       1

loop_
  _space_group_symop_operation_xyz
  'x, y, z'

loop_
  _atom_site_type_symbol
  _atom_site_label
  _atom_site_symmetry_multiplicity
  _atom_site_fract_x
  _atom_site_fract_y
  _atom_site_fract_z
  _atom_site_occupancy
  Zn  Zn1       1.0  0.39840  0.60170  0.49999  1.0000
  H   H1        1.0  0.64829  0.31773  0.60152  1.0000
  H   H2        1.0  0.68232  0.35163  0.39848  1.0000
  H   H3        1.0  0.87312  0.39319  0.55165  1.0000
  H   H4        1.0  0.60677  0.12693  0.44837  1.0000
  H   H5        1.0  0.18642  0.14828  0.80201  1.0000
  H   H6        1.0  0.85162  0.81366  0.19799  1.0000
  H   H7        1.0  0.75908  0.72825  0.61685  1.0000
  H   H8        1.0  0.27171  0.24097  0.38315  1.0000
  H   H9        1.0  0.26381  0.91074  0.69217  1.0000
  H   H10       1.0  0.08926  0.73625  0.30783  1.0000
  H   H11       1.0  0.28162  0.61151  0.67088  1.0000
  H   H12       1.0  0.38852  0.71838  0.32912  1.0000
  H   H13       1.0  0.04968  0.36161  0.68624  1.0000
  H   H14       1.0  0.63832  0.95039  0.31376  1.0000
  H   H15       1.0  0.92322  0.10262  0.93051  1.0000
  H   H16       1.0  0.89729  0.07682  0.06949  1.0000
  H   H17       1.0  0.43874  0.27643  0.99108  1.0000
  H   H18       1.0  0.72347  0.56130  0.00892  1.0000
  H   H19       1.0  0.00738  0.56624  0.93111  1.0000
  H   H20       1.0  0.43370  0.99262  0.06889  1.0000
  H   H21       1.0  0.04212  0.70111  0.81014  1.0000
  H   H22       1.0  0.29889  0.95787  0.18986  1.0000
  C   C1        1.0  0.37797  0.00454  0.57074  1.0000
  C   C2        1.0  0.99545  0.62205  0.42927  1.0000
  C   C3        1.0  0.57337  0.71963  0.60958  1.0000
  C   C4        1.0  0.28035  0.42666  0.39042  1.0000
  C   C5        1.0  0.41488  0.69570  0.67739  1.0000
  C   C6        1.0  0.30431  0.58514  0.32261  1.0000
  C   C7        1.0  0.89493  0.38100  0.72853  1.0000
  C   C8        1.0  0.61896  0.10513  0.27148  1.0000
  C   C9        1.0  0.60201  0.52039  0.73192  1.0000
  C   C10       1.0  0.47957  0.39805  0.26808  1.0000
  C   C11       1.0  0.50460  0.47718  0.80035  1.0000
  C   C12       1.0  0.52276  0.49543  0.19965  1.0000
  C   C13       1.0  0.75092  0.30814  0.83589  1.0000
  C   C14       1.0  0.69178  0.24913  0.16410  1.0000
  C   C15       1.0  0.73272  0.23171  0.90439  1.0000
  C   C16       1.0  0.76823  0.26732  0.09561  1.0000
  C   C17       1.0  0.46186  0.32717  0.93755  1.0000
  C   C18       1.0  0.67278  0.53817  0.06245  1.0000
  C   C19       1.0  0.21605  0.49371  0.90357  1.0000
  C   C20       1.0  0.50625  0.78396  0.09643  1.0000
  C   C21       1.0  0.23449  0.56987  0.83548  1.0000
  C   C22       1.0  0.43010  0.76552  0.16452  1.0000
  N   N1        1.0  0.66598  0.47703  0.57198  1.0000
  N   N2        1.0  0.52298  0.33403  0.42802  1.0000
  N   N3        1.0  0.98332  0.25097  0.79056  1.0000
  N   N4        1.0  0.74896  0.01675  0.20945  1.0000
  O   O1        1.0  0.33483  0.22772  0.59006  1.0000
  O   O2        1.0  0.77224  0.66520  0.40995  1.0000
  O   O3        1.0  0.26087  0.00310  0.52243  1.0000
  O   O4        1.0  0.99694  0.73916  0.47756  1.0000
