data_image0
_chemical_formula_structural       Zn4H16C16N32
_chemical_formula_sum              "Zn4 H16 C16 N32"
_cell_length_a       7.54617
_cell_length_b       10.0864
_cell_length_c       10.8125
_cell_angle_alpha    111.936
_cell_angle_beta     90
_cell_angle_gamma    90

_space_group_name_H-M_alt    "P 1"
_space_group_IT_number       1

loop_
  _space_group_symop_operation_xyz
  'x, y, z'

loop_
  _atom_site_type_symbol
  _atom_site_label
  _atom_site_symmetry_multiplicity
  _atom_site_fract_x
  _atom_site_fract_y
  _atom_site_fract_z
  _atom_site_occupancy
  Zn  Zn1       1.0  0.81312  0.08152  0.16430  1.0000
  Zn  Zn2       1.0  0.18688  0.58152  0.16429  1.0000
  Zn  Zn3       1.0  0.76556  0.71445  0.58405  1.0000
  Zn  Zn4       1.0  0.23444  0.21445  0.58405  1.0000
  H   H1        1.0  0.57893  0.54796  0.06418  1.0000
  H   H2        1.0  0.42107  0.04796  0.06418  1.0000
  H   H3        1.0  0.77515  0.64845  0.07989  1.0000
  H   H4        1.0  0.22485  0.14845  0.07989  1.0000
  H   H5        1.0  0.74305  0.76555  0.31940  1.0000
  H   H6        1.0  0.25695  0.26555  0.31940  1.0000
  H   H7        1.0  0.55336  0.78774  0.23310  1.0000
  H   H8        1.0  0.44664  0.28774  0.23310  1.0000
  H   H9        1.0  0.68776  0.16250  0.89453  1.0000
  H   H10       1.0  0.31224  0.66250  0.89453  1.0000
  H   H11       1.0  0.63914  0.05043  0.72905  1.0000
  H   H12       1.0  0.36086  0.55043  0.72905  1.0000
  H   H13       1.0  0.92303  0.20255  0.77174  1.0000
  H   H14       1.0  0.07698  0.70255  0.77174  1.0000
  H   H15       1.0  0.01747  0.09059  0.84458  1.0000
  H   H16       1.0  0.98253  0.59059  0.84458  1.0000
  C   C1        1.0  0.79153  0.47301  0.14385  1.0000
  C   C2        1.0  0.20847  0.97301  0.14385  1.0000
  C   C3        1.0  0.69271  0.59349  0.12914  1.0000
  C   C4        1.0  0.30729  0.09349  0.12914  1.0000
  C   C5        1.0  0.62864  0.70953  0.26062  1.0000
  C   C6        1.0  0.37136  0.20953  0.26062  1.0000
  C   C7        1.0  0.51468  0.65553  0.34371  1.0000
  C   C8        1.0  0.48532  0.15553  0.34371  1.0000
  C   C9        1.0  0.71531  0.94360  0.85670  1.0000
  C   C10       1.0  0.28469  0.44360  0.85670  1.0000
  C   C11       1.0  0.73158  0.06611  0.81195  1.0000
  C   C12       1.0  0.26842  0.56611  0.81195  1.0000
  C   C13       1.0  0.91906  0.09297  0.77019  1.0000
  C   C14       1.0  0.08094  0.59297  0.77019  1.0000
  C   C15       1.0  0.98056  0.99627  0.63510  1.0000
  C   C16       1.0  0.01944  0.49627  0.63510  1.0000
  N   N1        1.0  0.85163  0.27059  0.15028  1.0000
  N   N2        1.0  0.14837  0.77059  0.15028  1.0000
  N   N3        1.0  0.00361  0.33789  0.16626  1.0000
  N   N4        1.0  0.99639  0.83789  0.16626  1.0000
  N   N5        1.0  0.96912  0.46638  0.16256  1.0000
  N   N6        1.0  0.03088  0.96637  0.16256  1.0000
  N   N7        1.0  0.71611  0.35016  0.13590  1.0000
  N   N8        1.0  0.28389  0.85016  0.13590  1.0000
  N   N9        1.0  0.35241  0.59734  0.31226  1.0000
  N   N10       1.0  0.64759  0.09734  0.31226  1.0000
  N   N11       1.0  0.29585  0.56237  0.41565  1.0000
  N   N12       1.0  0.70415  0.06237  0.41565  1.0000
  N   N13       1.0  0.41785  0.59731  0.50668  1.0000
  N   N14       1.0  0.58215  0.09731  0.50668  1.0000
  N   N15       1.0  0.55676  0.65613  0.46449  1.0000
  N   N16       1.0  0.44324  0.15613  0.46449  1.0000
  N   N17       1.0  0.71109  0.95000  0.98336  1.0000
  N   N18       1.0  0.28891  0.45000  0.98336  1.0000
  N   N19       1.0  0.68503  0.81415  0.97726  1.0000
  N   N20       1.0  0.31497  0.31415  0.97726  1.0000
  N   N21       1.0  0.67581  0.72826  0.85330  1.0000
  N   N22       1.0  0.32419  0.22826  0.85330  1.0000
  N   N23       1.0  0.69428  0.80647  0.77533  1.0000
  N   N24       1.0  0.30572  0.30647  0.77533  1.0000
  N   N25       1.0  0.93194  0.86072  0.56407  1.0000
  N   N26       1.0  0.06806  0.36072  0.56407  1.0000
  N   N27       1.0  0.02699  0.81696  0.44843  1.0000
  N   N28       1.0  0.97301  0.31696  0.44843  1.0000
  N   N29       1.0  0.12916  0.92036  0.44914  1.0000
  N   N30       1.0  0.87084  0.42036  0.44913  1.0000
  N   N31       1.0  0.10318  0.03415  0.56421  1.0000
  N   N32       1.0  0.89682  0.53415  0.56421  1.0000
