data_image0
_chemical_formula_structural       Cd3H24C12N24O6
_chemical_formula_sum              "Cd3 H24 C12 N24 O6"
_cell_length_a       8.23313
_cell_length_b       9.17356
_cell_length_c       11.6716
_cell_angle_alpha    79.3342
_cell_angle_beta     69.0755
_cell_angle_gamma    82.3394

_space_group_name_H-M_alt    "P 1"
_space_group_IT_number       1

loop_
  _space_group_symop_operation_xyz
  'x, y, z'

loop_
  _atom_site_type_symbol
  _atom_site_label
  _atom_site_symmetry_multiplicity
  _atom_site_fract_x
  _atom_site_fract_y
  _atom_site_fract_z
  _atom_site_occupancy
  Cd  Cd1       1.0  0.50000  0.00000  1.00000  1.0000
  Cd  Cd2       1.0  0.75290  0.81581  0.70086  1.0000
  Cd  Cd3       1.0  0.24710  0.18419  0.29914  1.0000
  H   H1        1.0  0.59111  0.46162  0.86545  1.0000
  H   H2        1.0  0.40889  0.53838  0.13455  1.0000
  H   H3        1.0  0.63048  0.31513  0.97590  1.0000
  H   H4        1.0  0.36952  0.68487  0.02409  1.0000
  H   H5        1.0  0.94000  0.36606  0.90933  1.0000
  H   H6        1.0  0.06000  0.63394  0.09067  1.0000
  H   H7        1.0  0.92686  0.48784  0.77591  1.0000
  H   H8        1.0  0.07314  0.51217  0.22409  1.0000
  H   H9        1.0  0.93816  0.02229  0.88792  1.0000
  H   H10       1.0  0.06184  0.97771  0.11209  1.0000
  H   H11       1.0  0.07676  0.13902  0.91031  1.0000
  H   H12       1.0  0.92324  0.86098  0.08969  1.0000
  H   H13       1.0  0.75498  0.76883  0.48816  1.0000
  H   H14       1.0  0.24502  0.23116  0.51184  1.0000
  H   H15       1.0  0.91821  0.86189  0.43940  1.0000
  H   H16       1.0  0.08180  0.13810  0.56059  1.0000
  H   H17       1.0  0.10938  0.78503  0.55264  1.0000
  H   H18       1.0  0.89063  0.21497  0.44736  1.0000
  H   H19       1.0  0.09284  0.78937  0.69550  1.0000
  H   H20       1.0  0.90717  0.21063  0.30449  1.0000
  H   H21       1.0  0.72206  0.50179  0.62171  1.0000
  H   H22       1.0  0.27793  0.49822  0.37828  1.0000
  H   H23       1.0  0.54709  0.61304  0.64891  1.0000
  H   H24       1.0  0.45291  0.38697  0.35109  1.0000
  C   C1        1.0  0.72554  0.27022  0.79070  1.0000
  C   C2        1.0  0.27446  0.72978  0.20930  1.0000
  C   C3        1.0  0.68880  0.37416  0.88190  1.0000
  C   C4        1.0  0.31120  0.62584  0.11809  1.0000
  C   C5        1.0  0.79735  0.57269  0.94523  1.0000
  C   C6        1.0  0.20264  0.42731  0.05477  1.0000
  C   C7        1.0  0.85305  0.44664  0.87291  1.0000
  C   C8        1.0  0.14695  0.55335  0.12709  1.0000
  C   C9        1.0  0.19387  0.93026  0.86279  1.0000
  C   C10       1.0  0.80612  0.06974  0.13721  1.0000
  C   C11       1.0  0.03808  0.02434  0.92927  1.0000
  C   C12       1.0  0.96191  0.97567  0.07074  1.0000
  N   N1        1.0  0.70213  0.12378  0.81767  1.0000
  N   N2        1.0  0.29788  0.87621  0.18232  1.0000
  N   N3        1.0  0.75715  0.07345  0.70821  1.0000
  N   N4        1.0  0.24286  0.92655  0.29178  1.0000
  N   N5        1.0  0.81128  0.18481  0.61784  1.0000
  N   N6        1.0  0.18873  0.81519  0.38215  1.0000
  N   N7        1.0  0.79228  0.30998  0.66717  1.0000
  N   N8        1.0  0.20772  0.69002  0.33283  1.0000
  N   N9        1.0  0.76776  0.56433  0.06739  1.0000
  N   N10       1.0  0.23223  0.43566  0.93262  1.0000
  N   N11       1.0  0.69782  0.69905  0.09649  1.0000
  N   N12       1.0  0.30217  0.30094  0.90351  1.0000
  N   N13       1.0  0.68525  0.78565  0.99533  1.0000
  N   N14       1.0  0.31475  0.21435  0.00467  1.0000
  N   N15       1.0  0.74736  0.70928  0.89867  1.0000
  N   N16       1.0  0.25264  0.29072  0.10133  1.0000
  N   N17       1.0  0.35593  0.92591  0.86757  1.0000
  N   N18       1.0  0.64407  0.07410  0.13244  1.0000
  N   N19       1.0  0.45417  0.83671  0.78484  1.0000
  N   N20       1.0  0.54583  0.16329  0.21516  1.0000
  N   N21       1.0  0.35891  0.78753  0.73280  1.0000
  N   N22       1.0  0.64109  0.21247  0.26721  1.0000
  N   N23       1.0  0.19492  0.84416  0.78024  1.0000
  N   N24       1.0  0.80508  0.15584  0.21977  1.0000
  O   O1        1.0  0.79185  0.86884  0.48255  1.0000
  O   O2        1.0  0.20816  0.13115  0.51745  1.0000
  O   O3        1.0  0.04123  0.75131  0.64073  1.0000
  O   O4        1.0  0.95877  0.24868  0.35926  1.0000
  O   O5        1.0  0.67500  0.60804  0.61565  1.0000
  O   O6        1.0  0.32499  0.39197  0.38435  1.0000
