data_image0
_chemical_formula_structural       Zn4H24C20N32
_chemical_formula_sum              "Zn4 H24 C20 N32"
_cell_length_a       4.72277
_cell_length_b       9.83046
_cell_length_c       16.9444
_cell_angle_alpha    90.0007
_cell_angle_beta     89.9997
_cell_angle_gamma    92.6265

_space_group_name_H-M_alt    "P 1"
_space_group_IT_number       1

loop_
  _space_group_symop_operation_xyz
  'x, y, z'

loop_
  _atom_site_type_symbol
  _atom_site_label
  _atom_site_symmetry_multiplicity
  _atom_site_fract_x
  _atom_site_fract_y
  _atom_site_fract_z
  _atom_site_occupancy
  Zn  Zn1       1.0  0.74882  0.89326  0.35809  1.0000
  Zn  Zn2       1.0  0.25118  0.60675  0.85808  1.0000
  Zn  Zn3       1.0  0.25118  0.10675  0.64191  1.0000
  Zn  Zn4       1.0  0.74882  0.39325  0.14192  1.0000
  H   H1        1.0  0.10655  0.67652  0.12669  1.0000
  H   H2        1.0  0.89345  0.82348  0.62668  1.0000
  H   H3        1.0  0.89345  0.32348  0.87331  1.0000
  H   H4        1.0  0.10654  0.17652  0.37332  1.0000
  H   H5        1.0  0.22291  0.77125  0.21033  1.0000
  H   H6        1.0  0.77709  0.72875  0.71033  1.0000
  H   H7        1.0  0.77710  0.22876  0.78967  1.0000
  H   H8        1.0  0.22290  0.27125  0.28967  1.0000
  H   H9        1.0  0.93743  0.96197  0.17704  1.0000
  H   H10       1.0  0.06256  0.53803  0.67703  1.0000
  H   H11       1.0  0.06256  0.03803  0.82296  1.0000
  H   H12       1.0  0.93743  0.46197  0.32296  1.0000
  H   H13       1.0  0.15693  0.92192  0.09863  1.0000
  H   H14       1.0  0.84305  0.57807  0.59863  1.0000
  H   H15       1.0  0.84306  0.07808  0.90137  1.0000
  H   H16       1.0  0.15693  0.42193  0.40138  1.0000
  H   H17       1.0  0.52195  0.84724  0.11010  1.0000
  H   H18       1.0  0.47806  0.65275  0.61009  1.0000
  H   H19       1.0  0.47805  0.15277  0.88990  1.0000
  H   H20       1.0  0.52194  0.34724  0.38991  1.0000
  H   H21       1.0  0.68297  0.97944  0.05324  1.0000
  H   H22       1.0  0.31701  0.52055  0.55324  1.0000
  H   H23       1.0  0.31703  0.02056  0.94676  1.0000
  H   H24       1.0  0.68297  0.47945  0.44677  1.0000
  C   C1        1.0  0.80872  0.68336  0.21913  1.0000
  C   C2        1.0  0.19129  0.81663  0.71912  1.0000
  C   C3        1.0  0.19129  0.31664  0.78087  1.0000
  C   C4        1.0  0.80872  0.18337  0.28087  1.0000
  C   C5        1.0  0.04074  0.74997  0.17135  1.0000
  C   C6        1.0  0.95926  0.75003  0.67134  1.0000
  C   C7        1.0  0.95927  0.25002  0.82865  1.0000
  C   C8        1.0  0.04074  0.24997  0.32866  1.0000
  C   C9        1.0  0.96982  0.88493  0.13176  1.0000
  C   C10       1.0  0.03018  0.61507  0.63176  1.0000
  C   C11       1.0  0.03018  0.11507  0.86824  1.0000
  C   C12       1.0  0.96981  0.38494  0.36825  1.0000
  C   C13       1.0  0.71374  0.87685  0.07695  1.0000
  C   C14       1.0  0.28626  0.62315  0.57695  1.0000
  C   C15       1.0  0.28626  0.12315  0.92305  1.0000
  C   C16       1.0  0.71373  0.37686  0.42305  1.0000
  C   C17       1.0  0.73747  0.77843  0.01089  1.0000
  C   C18       1.0  0.26253  0.72156  0.51088  1.0000
  C   C19       1.0  0.26252  0.22156  0.98911  1.0000
  C   C20       1.0  0.73749  0.27844  0.48912  1.0000
  N   N1        1.0  0.68146  0.73335  0.28341  1.0000
  N   N2        1.0  0.31854  0.76665  0.78340  1.0000
  N   N3        1.0  0.31856  0.26665  0.71659  1.0000
  N   N4        1.0  0.68146  0.23335  0.21660  1.0000
  N   N5        1.0  0.47965  0.63905  0.30721  1.0000
  N   N6        1.0  0.52033  0.86095  0.80721  1.0000
  N   N7        1.0  0.52035  0.36095  0.69278  1.0000
  N   N8        1.0  0.47967  0.13905  0.19279  1.0000
  N   N9        1.0  0.48094  0.53555  0.25985  1.0000
  N   N10       1.0  0.51905  0.96445  0.75984  1.0000
  N   N11       1.0  0.51906  0.46446  0.74015  1.0000
  N   N12       1.0  0.48095  0.03554  0.24015  1.0000
  N   N13       1.0  0.68589  0.55993  0.20433  1.0000
  N   N14       1.0  0.31412  0.94007  0.70432  1.0000
  N   N15       1.0  0.31413  0.44007  0.79567  1.0000
  N   N16       1.0  0.68589  0.05993  0.29567  1.0000
  N   N17       1.0  0.53165  0.68575  0.99051  1.0000
  N   N18       1.0  0.46836  0.81424  0.49050  1.0000
  N   N19       1.0  0.46835  0.31425  0.00950  1.0000
  N   N20       1.0  0.53164  0.18575  0.50949  1.0000
  N   N21       1.0  0.62985  0.61951  0.92848  1.0000
  N   N22       1.0  0.37015  0.88050  0.42849  1.0000
  N   N23       1.0  0.37015  0.38049  0.07152  1.0000
  N   N24       1.0  0.62985  0.11950  0.57152  1.0000
  N   N25       1.0  0.89711  0.66962  0.91332  1.0000
  N   N26       1.0  0.10288  0.83038  0.41332  1.0000
  N   N27       1.0  0.10288  0.33039  0.08669  1.0000
  N   N28       1.0  0.89712  0.16962  0.58668  1.0000
  N   N29       1.0  0.96475  0.76916  0.96381  1.0000
  N   N30       1.0  0.03525  0.73083  0.46381  1.0000
  N   N31       1.0  0.03524  0.23084  0.03619  1.0000
  N   N32       1.0  0.96474  0.26916  0.53619  1.0000
