data_image0
_chemical_formula_structural       Cd3H20C12N16Cl2O2
_chemical_formula_sum              "Cd3 H20 C12 N16 Cl2 O2"
_cell_length_a       7.78753
_cell_length_b       9.37188
_cell_length_c       9.50954
_cell_angle_alpha    87.048
_cell_angle_beta     65.8393
_cell_angle_gamma    82.7731

_space_group_name_H-M_alt    "P 1"
_space_group_IT_number       1

loop_
  _space_group_symop_operation_xyz
  'x, y, z'

loop_
  _atom_site_type_symbol
  _atom_site_label
  _atom_site_symmetry_multiplicity
  _atom_site_fract_x
  _atom_site_fract_y
  _atom_site_fract_z
  _atom_site_occupancy
  Cd  Cd1       1.0  0.00000  0.50000  0.50000  1.0000
  Cd  Cd2       1.0  0.50000  0.50000  0.50000  1.0000
  Cd  Cd3       1.0  0.50000  1.00000  1.00000  1.0000
  H   H1        1.0  0.92940  0.76677  0.25283  1.0000
  H   H2        1.0  0.81750  0.23333  0.25280  1.0000
  H   H3        1.0  0.07060  0.23324  0.74717  1.0000
  H   H4        1.0  0.18250  0.76666  0.74720  1.0000
  H   H5        1.0  0.05991  0.89881  0.12792  1.0000
  H   H6        1.0  0.81196  0.10122  0.12790  1.0000
  H   H7        1.0  0.94009  0.10120  0.87208  1.0000
  H   H8        1.0  0.18804  0.89878  0.87210  1.0000
  H   H9        1.0  0.88222  0.91528  0.48091  1.0000
  H   H10       1.0  0.63674  0.08483  0.48088  1.0000
  H   H11       1.0  0.11778  0.08472  0.51909  1.0000
  H   H12       1.0  0.36326  0.91517  0.51912  1.0000
  H   H13       1.0  0.00072  0.05093  0.35723  1.0000
  H   H14       1.0  0.64180  0.94915  0.35729  1.0000
  H   H15       1.0  0.99928  0.94908  0.64277  1.0000
  H   H16       1.0  0.35820  0.05085  0.64271  1.0000
  H   H17       1.0  0.18214  0.20094  0.09051  1.0000
  H   H18       1.0  0.72713  0.79902  0.09070  1.0000
  H   H19       1.0  0.81786  0.79907  0.90949  1.0000
  H   H20       1.0  0.27287  0.20098  0.90930  1.0000
  C   C1        1.0  0.19239  0.78657  0.26278  1.0000
  C   C2        1.0  0.54457  0.21342  0.26276  1.0000
  C   C3        1.0  0.80761  0.21343  0.73721  1.0000
  C   C4        1.0  0.45543  0.78658  0.73724  1.0000
  C   C5        1.0  0.01910  0.85150  0.24350  1.0000
  C   C6        1.0  0.73719  0.14854  0.24350  1.0000
  C   C7        1.0  0.98090  0.14850  0.75650  1.0000
  C   C8        1.0  0.26281  0.85146  0.75650  1.0000
  C   C9        1.0  0.91003  0.96627  0.36823  1.0000
  C   C10       1.0  0.72159  0.03377  0.36823  1.0000
  C   C11       1.0  0.08997  0.03373  0.63177  1.0000
  C   C12       1.0  0.27841  0.96622  0.63177  1.0000
  N   N1        1.0  0.38125  0.66524  0.34968  1.0000
  N   N2        1.0  0.26888  0.33477  0.34960  1.0000
  N   N3        1.0  0.61875  0.33476  0.65032  1.0000
  N   N4        1.0  0.73112  0.66523  0.65040  1.0000
  N   N5        1.0  0.47969  0.75532  0.24731  1.0000
  N   N6        1.0  0.27276  0.24467  0.24725  1.0000
  N   N7        1.0  0.52031  0.24468  0.75269  1.0000
  N   N8        1.0  0.72724  0.75533  0.75275  1.0000
  N   N9        1.0  0.36403  0.83297  0.19152  1.0000
  N   N10       1.0  0.44418  0.16701  0.19150  1.0000
  N   N11       1.0  0.63597  0.16703  0.80848  1.0000
  N   N12       1.0  0.55582  0.83299  0.80850  1.0000
  N   N13       1.0  0.20105  0.68162  0.36247  1.0000
  N   N14       1.0  0.43629  0.31840  0.36241  1.0000
  N   N15       1.0  0.79895  0.31838  0.63753  1.0000
  N   N16       1.0  0.56371  0.68160  0.63760  1.0000
  Cl  Cl1       1.0  0.85144  0.50004  0.29692  1.0000
  Cl  Cl2       1.0  0.14856  0.49996  0.70308  1.0000
  O   O1        1.0  0.21108  0.14011  0.99987  1.0000
  O   O2        1.0  0.78892  0.85989  0.00013  1.0000
