data_image0
_chemical_formula_structural       Sn4H52C36N4O12
_chemical_formula_sum              "Sn4 H52 C36 N4 O12"
_cell_length_a       8.08265
_cell_length_b       10.3804
_cell_length_c       13.8136
_cell_angle_alpha    89.9992
_cell_angle_beta     90.0004
_cell_angle_gamma    90.0002

_space_group_name_H-M_alt    "P 1"
_space_group_IT_number       1

loop_
  _space_group_symop_operation_xyz
  'x, y, z'

loop_
  _atom_site_type_symbol
  _atom_site_label
  _atom_site_symmetry_multiplicity
  _atom_site_fract_x
  _atom_site_fract_y
  _atom_site_fract_z
  _atom_site_occupancy
  Sn  Sn1       1.0  0.49231  0.73985  0.00616  1.0000
  Sn  Sn2       1.0  0.99231  0.26015  0.99384  1.0000
  Sn  Sn3       1.0  0.49232  0.76015  0.50616  1.0000
  Sn  Sn4       1.0  0.99231  0.23985  0.49384  1.0000
  H   H1        1.0  0.11547  0.54811  0.31407  1.0000
  H   H2        1.0  0.61545  0.45188  0.68592  1.0000
  H   H3        1.0  0.11544  0.95190  0.81407  1.0000
  H   H4        1.0  0.61545  0.04811  0.18592  1.0000
  H   H5        1.0  0.87757  0.57005  0.22188  1.0000
  H   H6        1.0  0.37755  0.42994  0.77812  1.0000
  H   H7        1.0  0.87755  0.92995  0.72188  1.0000
  H   H8        1.0  0.37756  0.07005  0.27812  1.0000
  H   H9        1.0  0.88942  0.97904  0.27520  1.0000
  H   H10       1.0  0.38940  0.02095  0.72480  1.0000
  H   H11       1.0  0.88942  0.52095  0.77520  1.0000
  H   H12       1.0  0.38940  0.47904  0.22481  1.0000
  H   H13       1.0  0.14909  0.94904  0.36911  1.0000
  H   H14       1.0  0.64908  0.05095  0.63089  1.0000
  H   H15       1.0  0.14909  0.55097  0.86912  1.0000
  H   H16       1.0  0.64907  0.44904  0.13089  1.0000
  H   H17       1.0  0.45968  0.48605  0.95181  1.0000
  H   H18       1.0  0.95968  0.51394  0.04819  1.0000
  H   H19       1.0  0.45968  0.01394  0.45181  1.0000
  H   H20       1.0  0.95967  0.98606  0.54819  1.0000
  H   H21       1.0  0.67369  0.53003  0.95718  1.0000
  H   H22       1.0  0.17370  0.46997  0.04282  1.0000
  H   H23       1.0  0.67370  0.96998  0.45718  1.0000
  H   H24       1.0  0.17369  0.03003  0.54282  1.0000
  H   H25       1.0  0.55066  0.57971  0.85651  1.0000
  H   H26       1.0  0.05068  0.42029  0.14348  1.0000
  H   H27       1.0  0.55068  0.92029  0.35652  1.0000
  H   H28       1.0  0.05067  0.07971  0.64349  1.0000
  H   H29       1.0  0.56874  0.99328  0.98061  1.0000
  H   H30       1.0  0.06874  0.00672  0.01938  1.0000
  H   H31       1.0  0.56875  0.50672  0.48062  1.0000
  H   H32       1.0  0.06874  0.49328  0.51938  1.0000
  H   H33       1.0  0.59483  0.90724  0.86935  1.0000
  H   H34       1.0  0.09483  0.09276  0.13066  1.0000
  H   H35       1.0  0.59483  0.59276  0.36935  1.0000
  H   H36       1.0  0.09483  0.40725  0.63066  1.0000
  H   H37       1.0  0.74987  0.89772  0.96245  1.0000
  H   H38       1.0  0.24988  0.10228  0.03756  1.0000
  H   H39       1.0  0.74988  0.60228  0.46244  1.0000
  H   H40       1.0  0.24987  0.39772  0.53756  1.0000
  H   H41       1.0  0.17969  0.71162  0.07724  1.0000
  H   H42       1.0  0.67969  0.28840  0.92277  1.0000
  H   H43       1.0  0.17969  0.78838  0.57722  1.0000
  H   H44       1.0  0.67969  0.21162  0.42277  1.0000
  H   H45       1.0  0.27614  0.85042  0.13026  1.0000
  H   H46       1.0  0.77612  0.14959  0.86974  1.0000
  H   H47       1.0  0.27612  0.64958  0.63025  1.0000
  H   H48       1.0  0.77613  0.35042  0.36974  1.0000
  H   H49       1.0  0.32894  0.69337  0.17248  1.0000
  H   H50       1.0  0.82894  0.30664  0.82752  1.0000
  H   H51       1.0  0.32892  0.80663  0.67247  1.0000
  H   H52       1.0  0.82893  0.19337  0.32752  1.0000
  C   C1        1.0  0.71606  0.79127  0.17527  1.0000
  C   C2        1.0  0.21605  0.20872  0.82473  1.0000
  C   C3        1.0  0.71605  0.70872  0.67528  1.0000
  C   C4        1.0  0.21605  0.29128  0.32473  1.0000
  C   C5        1.0  0.93090  0.65684  0.25304  1.0000
  C   C6        1.0  0.43088  0.34315  0.74696  1.0000
  C   C7        1.0  0.93087  0.84316  0.75304  1.0000
  C   C8        1.0  0.43088  0.15683  0.24696  1.0000
  C   C9        1.0  0.86285  0.77722  0.23908  1.0000
  C   C10       1.0  0.36284  0.22277  0.76092  1.0000
  C   C11       1.0  0.86283  0.72278  0.73908  1.0000
  C   C12       1.0  0.36283  0.27722  0.26093  1.0000
  C   C13       1.0  0.94198  0.88304  0.28454  1.0000
  C   C14       1.0  0.44196  0.11696  0.71546  1.0000
  C   C15       1.0  0.94197  0.61696  0.78455  1.0000
  C   C16       1.0  0.44197  0.38304  0.21545  1.0000
  C   C17       1.0  0.08555  0.86698  0.33695  1.0000
  C   C18       1.0  0.58554  0.13301  0.66305  1.0000
  C   C19       1.0  0.08554  0.63303  0.83695  1.0000
  C   C20       1.0  0.58553  0.36698  0.16305  1.0000
  C   C21       1.0  0.15789  0.74181  0.34676  1.0000
  C   C22       1.0  0.65786  0.25818  0.65324  1.0000
  C   C23       1.0  0.15786  0.75820  0.84676  1.0000
  C   C24       1.0  0.65786  0.24181  0.15324  1.0000
  C   C25       1.0  0.55011  0.56150  0.93467  1.0000
  C   C26       1.0  0.05011  0.43850  0.06533  1.0000
  C   C27       1.0  0.55012  0.93849  0.43467  1.0000
  C   C28       1.0  0.05010  0.06151  0.56533  1.0000
  C   C29       1.0  0.61696  0.90503  0.94755  1.0000
  C   C30       1.0  0.11696  0.09497  0.05245  1.0000
  C   C31       1.0  0.61697  0.59497  0.44756  1.0000
  C   C32       1.0  0.11696  0.40503  0.55245  1.0000
  C   C33       1.0  0.29394  0.74983  0.10872  1.0000
  C   C34       1.0  0.79393  0.25018  0.89129  1.0000
  C   C35       1.0  0.29393  0.75017  0.60871  1.0000
  C   C36       1.0  0.79393  0.24984  0.39128  1.0000
  N   N1        1.0  0.06851  0.64161  0.30612  1.0000
  N   N2        1.0  0.56850  0.35838  0.69387  1.0000
  N   N3        1.0  0.06850  0.85839  0.80613  1.0000
  N   N4        1.0  0.56849  0.14161  0.19388  1.0000
  O   O1        1.0  0.68508  0.69494  0.11834  1.0000
  O   O2        1.0  0.18508  0.30506  0.88167  1.0000
  O   O3        1.0  0.68506  0.80506  0.61834  1.0000
  O   O4        1.0  0.18507  0.19494  0.38167  1.0000
  O   O5        1.0  0.63042  0.89234  0.17696  1.0000
  O   O6        1.0  0.13040  0.10767  0.82304  1.0000
  O   O7        1.0  0.63042  0.60767  0.67696  1.0000
  O   O8        1.0  0.13041  0.39233  0.32304  1.0000
  O   O9        1.0  0.29440  0.71283  0.38587  1.0000
  O   O10       1.0  0.79439  0.28717  0.61412  1.0000
  O   O11       1.0  0.29439  0.78718  0.88588  1.0000
  O   O12       1.0  0.79438  0.21283  0.11412  1.0000
