data_image0
_chemical_formula_structural       Cu4H8C8I4N4
_chemical_formula_sum              "Cu4 H8 C8 I4 N4"
_cell_length_a       4.05645
_cell_length_b       6.93808
_cell_length_c       14.907
_cell_angle_alpha    89.9994
_cell_angle_beta     89.9994
_cell_angle_gamma    98.4028

_space_group_name_H-M_alt    "P 1"
_space_group_IT_number       1

loop_
  _space_group_symop_operation_xyz
  'x, y, z'

loop_
  _atom_site_type_symbol
  _atom_site_label
  _atom_site_symmetry_multiplicity
  _atom_site_fract_x
  _atom_site_fract_y
  _atom_site_fract_z
  _atom_site_occupancy
  Cu  Cu1       1.0  0.75270  0.00006  0.55622  1.0000
  Cu  Cu2       1.0  0.75271  0.00007  0.94378  1.0000
  Cu  Cu3       1.0  0.24731  0.99993  0.44378  1.0000
  Cu  Cu4       1.0  0.24734  0.99995  0.05622  1.0000
  H   H1        1.0  0.88923  0.94292  0.75000  1.0000
  H   H2        1.0  0.11078  0.05709  0.25000  1.0000
  H   H3        1.0  0.57632  0.39456  0.60467  1.0000
  H   H4        1.0  0.57632  0.39457  0.89533  1.0000
  H   H5        1.0  0.42363  0.60543  0.39533  1.0000
  H   H6        1.0  0.42370  0.60544  0.10467  1.0000
  H   H7        1.0  0.47069  0.56575  0.75000  1.0000
  H   H8        1.0  0.52926  0.43424  0.25000  1.0000
  C   C1        1.0  0.79120  0.08153  0.75000  1.0000
  C   C2        1.0  0.20881  0.91847  0.25000  1.0000
  C   C3        1.0  0.62026  0.33281  0.67015  1.0000
  C   C4        1.0  0.62026  0.33282  0.82984  1.0000
  C   C5        1.0  0.37973  0.66717  0.32984  1.0000
  C   C6        1.0  0.37976  0.66717  0.17017  1.0000
  C   C7        1.0  0.56146  0.42555  0.74999  1.0000
  C   C8        1.0  0.43852  0.57444  0.25000  1.0000
  I   I1        1.0  0.81676  0.24568  0.42268  1.0000
  I   I2        1.0  0.81678  0.24569  0.07732  1.0000
  I   I3        1.0  0.18324  0.75431  0.57732  1.0000
  I   I4        1.0  0.18322  0.75431  0.92268  1.0000
  N   N1        1.0  0.73579  0.15976  0.67018  1.0000
  N   N2        1.0  0.73580  0.15974  0.82982  1.0000
  N   N3        1.0  0.26419  0.84025  0.32982  1.0000
  N   N4        1.0  0.26421  0.84028  0.17018  1.0000
