data_image0
_chemical_formula_structural       Sn4H52C36N4O12
_chemical_formula_sum              "Sn4 H52 C36 N4 O12"
_cell_length_a       8.20697
_cell_length_b       12.6964
_cell_length_c       12.8279
_cell_angle_alpha    101.721
_cell_angle_beta     108.645
_cell_angle_gamma    108.869

_space_group_name_H-M_alt    "P 1"
_space_group_IT_number       1

loop_
  _space_group_symop_operation_xyz
  'x, y, z'

loop_
  _atom_site_type_symbol
  _atom_site_label
  _atom_site_symmetry_multiplicity
  _atom_site_fract_x
  _atom_site_fract_y
  _atom_site_fract_z
  _atom_site_occupancy
  Sn  Sn1       1.0  0.30991  0.05128  0.74982  1.0000
  Sn  Sn2       1.0  0.00831  0.44894  0.75012  1.0000
  Sn  Sn3       1.0  0.69009  0.94872  0.25018  1.0000
  Sn  Sn4       1.0  0.99169  0.55107  0.24990  1.0000
  H   H1        1.0  0.41404  0.40833  0.21417  1.0000
  H   H2        1.0  0.29145  0.09175  0.28621  1.0000
  H   H3        1.0  0.58596  0.59167  0.78582  1.0000
  H   H4        1.0  0.70855  0.90825  0.71379  1.0000
  H   H5        1.0  0.84789  0.32468  0.99861  1.0000
  H   H6        1.0  0.02380  0.17551  0.50130  1.0000
  H   H7        1.0  0.15210  0.67532  0.00138  1.0000
  H   H8        1.0  0.97619  0.82449  0.49870  1.0000
  H   H9        1.0  0.07678  0.06471  0.96468  1.0000
  H   H10       1.0  0.54752  0.43528  0.53590  1.0000
  H   H11       1.0  0.92322  0.93529  0.03532  1.0000
  H   H12       1.0  0.45248  0.56472  0.46410  1.0000
  H   H13       1.0  0.38793  0.21828  0.12545  1.0000
  H   H14       1.0  0.54443  0.28175  0.37521  1.0000
  H   H15       1.0  0.61207  0.78172  0.87455  1.0000
  H   H16       1.0  0.45557  0.71825  0.62479  1.0000
  H   H17       1.0  0.19645  0.22825  0.74171  1.0000
  H   H18       1.0  0.72642  0.27168  0.75845  1.0000
  H   H19       1.0  0.80355  0.77175  0.25829  1.0000
  H   H20       1.0  0.27357  0.72832  0.24155  1.0000
  H   H21       1.0  0.45096  0.28938  0.80640  1.0000
  H   H22       1.0  0.85577  0.21095  0.69397  1.0000
  H   H23       1.0  0.54904  0.71062  0.19360  1.0000
  H   H24       1.0  0.14423  0.78905  0.30603  1.0000
  H   H25       1.0  0.32217  0.24589  0.89098  1.0000
  H   H26       1.0  0.68536  0.25389  0.60913  1.0000
  H   H27       1.0  0.67783  0.75411  0.10902  1.0000
  H   H28       1.0  0.31464  0.74611  0.39087  1.0000
  H   H29       1.0  0.33102  0.89637  0.57875  1.0000
  H   H30       1.0  0.35554  0.60380  0.92135  1.0000
  H   H31       1.0  0.66899  0.10364  0.42125  1.0000
  H   H32       1.0  0.64446  0.39620  0.07865  1.0000
  H   H33       1.0  0.47786  0.04480  0.59980  1.0000
  H   H34       1.0  0.33243  0.45530  0.90020  1.0000
  H   H35       1.0  0.52215  0.95521  0.40020  1.0000
  H   H36       1.0  0.66758  0.54470  0.09980  1.0000
  H   H37       1.0  0.22731  0.98460  0.51511  1.0000
  H   H38       1.0  0.22685  0.51559  0.98484  1.0000
  H   H39       1.0  0.77270  0.01541  0.48489  1.0000
  H   H40       1.0  0.77316  0.48441  0.01516  1.0000
  H   H41       1.0  0.31336  0.98186  0.93749  1.0000
  H   H42       1.0  0.89390  0.51828  0.56236  1.0000
  H   H43       1.0  0.68665  0.01814  0.06251  1.0000
  H   H44       1.0  0.10610  0.48171  0.43764  1.0000
  H   H45       1.0  0.35376  0.88213  0.83985  1.0000
  H   H46       1.0  0.13172  0.61801  0.66004  1.0000
  H   H47       1.0  0.64624  0.11787  0.16015  1.0000
  H   H48       1.0  0.86827  0.38198  0.33996  1.0000
  H   H49       1.0  0.11775  0.86908  0.80925  1.0000
  H   H50       1.0  0.93930  0.63111  0.69057  1.0000
  H   H51       1.0  0.88226  0.13092  0.19075  1.0000
  H   H52       1.0  0.06069  0.36889  0.30942  1.0000
  C   C1        1.0  0.74498  0.09619  0.88298  1.0000
  C   C2        1.0  0.26523  0.40387  0.61714  1.0000
  C   C3        1.0  0.25502  0.90381  0.11702  1.0000
  C   C4        1.0  0.73477  0.59613  0.38286  1.0000
  C   C5        1.0  0.14277  0.38557  0.11424  1.0000
  C   C6        1.0  0.14258  0.11454  0.38596  1.0000
  C   C7        1.0  0.85723  0.61443  0.88576  1.0000
  C   C8        1.0  0.85743  0.88546  0.61405  1.0000
  C   C9        1.0  0.96547  0.29968  0.02494  1.0000
  C   C10       1.0  0.14028  0.20047  0.47513  1.0000
  C   C11       1.0  0.03453  0.70031  0.97505  1.0000
  C   C12       1.0  0.85971  0.79953  0.52487  1.0000
  C   C13       1.0  0.94047  0.18584  0.97265  1.0000
  C   C14       1.0  0.28163  0.31426  0.52758  1.0000
  C   C15       1.0  0.05953  0.81416  0.02734  1.0000
  C   C16       1.0  0.71837  0.68574  0.47243  1.0000
  C   C17       1.0  0.09373  0.15347  0.00576  1.0000
  C   C18       1.0  0.43440  0.34659  0.49466  1.0000
  C   C19       1.0  0.90627  0.84653  0.99423  1.0000
  C   C20       1.0  0.56559  0.65341  0.50534  1.0000
  C   C21       1.0  0.26416  0.23684  0.09277  1.0000
  C   C22       1.0  0.43451  0.26321  0.40770  1.0000
  C   C23       1.0  0.73584  0.76316  0.90722  1.0000
  C   C24       1.0  0.56549  0.73680  0.59230  1.0000
  C   C25       1.0  0.32109  0.22519  0.80350  1.0000
  C   C26       1.0  0.79243  0.27484  0.69669  1.0000
  C   C27       1.0  0.67891  0.77481  0.19650  1.0000
  C   C28       1.0  0.20757  0.72516  0.30331  1.0000
  C   C29       1.0  0.33892  0.98622  0.59115  1.0000
  C   C30       1.0  0.26091  0.51398  0.90883  1.0000
  C   C31       1.0  0.66109  0.01378  0.40885  1.0000
  C   C32       1.0  0.73910  0.48603  0.09117  1.0000
  C   C33       1.0  0.26689  0.93118  0.84534  1.0000
  C   C34       1.0  0.99024  0.56901  0.65450  1.0000
  C   C35       1.0  0.73312  0.06882  0.15466  1.0000
  C   C36       1.0  0.00976  0.43099  0.34550  1.0000
  N   N1        1.0  0.28562  0.34780  0.14456  1.0000
  N   N2        1.0  0.29311  0.15228  0.35579  1.0000
  N   N3        1.0  0.71438  0.65219  0.85544  1.0000
  N   N4        1.0  0.70689  0.84772  0.64421  1.0000
  O   O1        1.0  0.62029  0.13841  0.86355  1.0000
  O   O2        1.0  0.11783  0.36153  0.63663  1.0000
  O   O3        1.0  0.37971  0.86159  0.13645  1.0000
  O   O4        1.0  0.88217  0.63847  0.36338  1.0000
  O   O5        1.0  0.71802  0.99100  0.83817  1.0000
  O   O6        1.0  0.38795  0.50917  0.66178  1.0000
  O   O7        1.0  0.28199  0.00900  0.16182  1.0000
  O   O8        1.0  0.61205  0.49083  0.33822  1.0000
  O   O9        1.0  0.17867  0.49248  0.16750  1.0000
  O   O10       1.0  0.01829  0.00763  0.33272  1.0000
  O   O11       1.0  0.82133  0.50752  0.83250  1.0000
  O   O12       1.0  0.98171  0.99237  0.66728  1.0000
