data_image0
_chemical_formula_structural       Cu4H20C24I4N4
_chemical_formula_sum              "Cu4 H20 C24 I4 N4"
_cell_length_a       3.99933
_cell_length_b       9.42606
_cell_length_c       18.206
_cell_angle_alpha    102.839
_cell_angle_beta     90.0004
_cell_angle_gamma    89.9995

_space_group_name_H-M_alt    "P 1"
_space_group_IT_number       1

loop_
  _space_group_symop_operation_xyz
  'x, y, z'

loop_
  _atom_site_type_symbol
  _atom_site_label
  _atom_site_symmetry_multiplicity
  _atom_site_fract_x
  _atom_site_fract_y
  _atom_site_fract_z
  _atom_site_occupancy
  Cu  Cu1       1.0  0.87728  0.68469  0.20557  1.0000
  Cu  Cu2       1.0  0.62272  0.18469  0.70557  1.0000
  Cu  Cu3       1.0  0.12272  0.31531  0.79443  1.0000
  Cu  Cu4       1.0  0.37729  0.81530  0.29443  1.0000
  H   H1        1.0  0.17218  0.52218  0.06358  1.0000
  H   H2        1.0  0.32783  0.02218  0.56358  1.0000
  H   H3        1.0  0.82782  0.47782  0.93642  1.0000
  H   H4        1.0  0.67219  0.97782  0.43642  1.0000
  H   H5        1.0  0.20150  0.26885  0.98936  1.0000
  H   H6        1.0  0.29851  0.76885  0.48935  1.0000
  H   H7        1.0  0.79853  0.73115  0.01065  1.0000
  H   H8        1.0  0.70148  0.23115  0.51065  1.0000
  H   H9        1.0  0.65209  0.14004  0.16910  1.0000
  H   H10       1.0  0.84789  0.64004  0.66910  1.0000
  H   H11       1.0  0.34791  0.85995  0.83089  1.0000
  H   H12       1.0  0.15208  0.35995  0.33090  1.0000
  H   H13       1.0  0.64293  0.40229  0.23559  1.0000
  H   H14       1.0  0.85707  0.90229  0.73559  1.0000
  H   H15       1.0  0.35706  0.59770  0.76441  1.0000
  H   H16       1.0  0.14294  0.09770  0.26441  1.0000
  H   H17       1.0  0.79859  0.95463  0.06353  1.0000
  H   H18       1.0  0.70138  0.45462  0.56353  1.0000
  H   H19       1.0  0.20141  0.04538  0.93647  1.0000
  H   H20       1.0  0.29858  0.54537  0.43647  1.0000
  C   C1        1.0  0.05642  0.43394  0.08443  1.0000
  C   C2        1.0  0.44359  0.93393  0.58443  1.0000
  C   C3        1.0  0.94358  0.56607  0.91558  1.0000
  C   C4        1.0  0.55642  0.06606  0.41557  1.0000
  C   C5        1.0  0.07297  0.29159  0.04353  1.0000
  C   C6        1.0  0.42702  0.79159  0.54353  1.0000
  C   C7        1.0  0.92704  0.70842  0.95647  1.0000
  C   C8        1.0  0.57297  0.20841  0.45647  1.0000
  C   C9        1.0  0.92713  0.17952  0.07270  1.0000
  C   C10       1.0  0.57286  0.67951  0.57270  1.0000
  C   C11       1.0  0.07288  0.82049  0.92730  1.0000
  C   C12       1.0  0.42711  0.32048  0.42730  1.0000
  C   C13       1.0  0.77129  0.22166  0.14368  1.0000
  C   C14       1.0  0.72870  0.72165  0.64368  1.0000
  C   C15       1.0  0.22871  0.77834  0.85632  1.0000
  C   C16       1.0  0.27129  0.27834  0.35632  1.0000
  C   C17       1.0  0.76392  0.36712  0.18080  1.0000
  C   C18       1.0  0.73608  0.86712  0.68080  1.0000
  C   C19       1.0  0.23608  0.63288  0.81920  1.0000
  C   C20       1.0  0.26392  0.13288  0.31920  1.0000
  C   C21       1.0  0.92815  0.02734  0.03388  1.0000
  C   C22       1.0  0.57183  0.52734  0.53389  1.0000
  C   C23       1.0  0.07186  0.97266  0.96611  1.0000
  C   C24       1.0  0.42813  0.47266  0.46611  1.0000
  I   I1        1.0  0.87782  0.68397  0.34894  1.0000
  I   I2        1.0  0.62218  0.18397  0.84894  1.0000
  I   I3        1.0  0.12218  0.31603  0.65106  1.0000
  I   I4        1.0  0.37782  0.81603  0.15106  1.0000
  N   N1        1.0  0.90368  0.47365  0.15218  1.0000
  N   N2        1.0  0.59632  0.97365  0.65218  1.0000
  N   N3        1.0  0.09632  0.52635  0.84782  1.0000
  N   N4        1.0  0.40369  0.02635  0.34782  1.0000
