data_image0
_chemical_formula_structural       Cu2H16C28I2N4
_chemical_formula_sum              "Cu2 H16 C28 I2 N4"
_cell_length_a       4.07941
_cell_length_b       7.63365
_cell_length_c       19.0232
_cell_angle_alpha    89.4218
_cell_angle_beta     88.7518
_cell_angle_gamma    74.2371

_space_group_name_H-M_alt    "P 1"
_space_group_IT_number       1

loop_
  _space_group_symop_operation_xyz
  'x, y, z'

loop_
  _atom_site_type_symbol
  _atom_site_label
  _atom_site_symmetry_multiplicity
  _atom_site_fract_x
  _atom_site_fract_y
  _atom_site_fract_z
  _atom_site_occupancy
  Cu  Cu1       1.0  0.42651  0.15246  0.25052  1.0000
  Cu  Cu2       1.0  0.57351  0.84755  0.74948  1.0000
  H   H1        1.0  0.95998  0.50566  0.29020  1.0000
  H   H2        1.0  0.47238  0.49156  0.79013  1.0000
  H   H3        1.0  0.04004  0.49433  0.70981  1.0000
  H   H4        1.0  0.52761  0.50846  0.20987  1.0000
  H   H5        1.0  0.67029  0.10097  0.39539  1.0000
  H   H6        1.0  0.76969  0.89698  0.89372  1.0000
  H   H7        1.0  0.32971  0.89902  0.60462  1.0000
  H   H8        1.0  0.23032  0.10303  0.10627  1.0000
  H   H9        1.0  0.53369  0.76097  0.35612  1.0000
  H   H10       1.0  0.29964  0.23827  0.85712  1.0000
  H   H11       1.0  0.46631  0.23902  0.64388  1.0000
  H   H12       1.0  0.70034  0.76174  0.14287  1.0000
  H   H13       1.0  0.69883  0.09991  0.53075  1.0000
  H   H14       1.0  0.79448  0.89930  0.02905  1.0000
  H   H15       1.0  0.30117  0.90008  0.46925  1.0000
  H   H16       1.0  0.20551  0.10071  0.97095  1.0000
  C   C1        1.0  0.06057  0.45070  0.34089  1.0000
  C   C2        1.0  0.51455  0.54745  0.84061  1.0000
  C   C3        1.0  0.93945  0.54928  0.65911  1.0000
  C   C4        1.0  0.48543  0.45257  0.15939  1.0000
  C   C5        1.0  0.92243  0.53853  0.40339  1.0000
  C   C6        1.0  0.46335  0.46056  0.90348  1.0000
  C   C7        1.0  0.07760  0.46145  0.59662  1.0000
  C   C8        1.0  0.53663  0.53945  0.09651  1.0000
  C   C9        1.0  0.06525  0.45938  0.46762  1.0000
  C   C10       1.0  0.52466  0.54022  0.96743  1.0000
  C   C11       1.0  0.93476  0.54060  0.53238  1.0000
  C   C12       1.0  0.47531  0.45979  0.03256  1.0000
  C   C13       1.0  0.34158  0.29829  0.46631  1.0000
  C   C14       1.0  0.63819  0.70095  0.96545  1.0000
  C   C15       1.0  0.65842  0.70169  0.53370  1.0000
  C   C16       1.0  0.36180  0.29906  0.03455  1.0000
  C   C17       1.0  0.45835  0.22382  0.40038  1.0000
  C   C18       1.0  0.68091  0.77466  0.89923  1.0000
  C   C19       1.0  0.54167  0.77617  0.59962  1.0000
  C   C20       1.0  0.31908  0.22535  0.10077  1.0000
  C   C21       1.0  0.64475  0.70100  0.40545  1.0000
  C   C22       1.0  0.34943  0.29853  0.90624  1.0000
  C   C23       1.0  0.35525  0.29899  0.59455  1.0000
  C   C24       1.0  0.65055  0.70148  0.09376  1.0000
  C   C25       1.0  0.48357  0.22155  0.53172  1.0000
  C   C26       1.0  0.70174  0.77807  0.03057  1.0000
  C   C27       1.0  0.51644  0.77844  0.46828  1.0000
  C   C28       1.0  0.29824  0.22194  0.96943  1.0000
  I   I1        1.0  0.03899  0.92925  0.25015  1.0000
  I   I2        1.0  0.96102  0.07075  0.74985  1.0000
  N   N1        1.0  0.31846  0.29635  0.33941  1.0000
  N   N2        1.0  0.61571  0.70172  0.83851  1.0000
  N   N3        1.0  0.68156  0.70364  0.66060  1.0000
  N   N4        1.0  0.38429  0.29829  0.16148  1.0000
