data_image0
_chemical_formula_structural       Dy4H52C28O28
_chemical_formula_sum              "Dy4 H52 C28 O28"
_cell_length_a       7.56618
_cell_length_b       11.7629
_cell_length_c       11.9387
_cell_angle_alpha    90.0002
_cell_angle_beta     90.2817
_cell_angle_gamma    89.9998

_space_group_name_H-M_alt    "P 1"
_space_group_IT_number       1

loop_
  _space_group_symop_operation_xyz
  'x, y, z'

loop_
  _atom_site_type_symbol
  _atom_site_label
  _atom_site_symmetry_multiplicity
  _atom_site_fract_x
  _atom_site_fract_y
  _atom_site_fract_z
  _atom_site_occupancy
  Dy  Dy1       1.0  0.81386  0.69477  0.75755  1.0000
  Dy  Dy2       1.0  0.68614  0.19476  0.24245  1.0000
  Dy  Dy3       1.0  0.18614  0.30523  0.24245  1.0000
  Dy  Dy4       1.0  0.31386  0.80523  0.75755  1.0000
  H   H1        1.0  0.51612  0.61038  0.40423  1.0000
  H   H2        1.0  0.98389  0.11038  0.59577  1.0000
  H   H3        1.0  0.48388  0.38962  0.59577  1.0000
  H   H4        1.0  0.01611  0.88962  0.40423  1.0000
  H   H5        1.0  0.38657  0.72955  0.45216  1.0000
  H   H6        1.0  0.11343  0.22955  0.54784  1.0000
  H   H7        1.0  0.61343  0.27045  0.54784  1.0000
  H   H8        1.0  0.88657  0.77045  0.45216  1.0000
  H   H9        1.0  0.35815  0.59307  0.51220  1.0000
  H   H10       1.0  0.14185  0.09307  0.48779  1.0000
  H   H11       1.0  0.64185  0.40693  0.48780  1.0000
  H   H12       1.0  0.85815  0.90693  0.51221  1.0000
  H   H13       1.0  0.75212  0.92259  0.00971  1.0000
  H   H14       1.0  0.74788  0.42260  0.99029  1.0000
  H   H15       1.0  0.24788  0.07740  0.99029  1.0000
  H   H16       1.0  0.25212  0.57740  0.00971  1.0000
  H   H17       1.0  0.73650  0.78291  0.06384  1.0000
  H   H18       1.0  0.76350  0.28291  0.93616  1.0000
  H   H19       1.0  0.26350  0.21709  0.93616  1.0000
  H   H20       1.0  0.23650  0.71709  0.06384  1.0000
  H   H21       1.0  0.59396  0.89593  0.11416  1.0000
  H   H22       1.0  0.90603  0.39593  0.88584  1.0000
  H   H23       1.0  0.40603  0.10407  0.88584  1.0000
  H   H24       1.0  0.09397  0.60407  0.11416  1.0000
  H   H25       1.0  0.50637  0.35264  0.83498  1.0000
  H   H26       1.0  0.99363  0.85264  0.16502  1.0000
  H   H27       1.0  0.49363  0.64736  0.16502  1.0000
  H   H28       1.0  0.00637  0.14736  0.83498  1.0000
  H   H29       1.0  0.30453  0.37169  0.75851  1.0000
  H   H30       1.0  0.19547  0.87169  0.24149  1.0000
  H   H31       1.0  0.69547  0.62831  0.24149  1.0000
  H   H32       1.0  0.80452  0.12831  0.75851  1.0000
  H   H33       1.0  0.31639  0.41470  0.89979  1.0000
  H   H34       1.0  0.18361  0.91471  0.10021  1.0000
  H   H35       1.0  0.68361  0.58530  0.10021  1.0000
  H   H36       1.0  0.81639  0.08530  0.89979  1.0000
  H   H37       1.0  0.12934  0.55128  0.74549  1.0000
  H   H38       1.0  0.37066  0.05128  0.25451  1.0000
  H   H39       1.0  0.87066  0.44872  0.25451  1.0000
  H   H40       1.0  0.62934  0.94872  0.74549  1.0000
  H   H41       1.0  0.83326  0.42584  0.65257  1.0000
  H   H42       1.0  0.66674  0.92584  0.34744  1.0000
  H   H43       1.0  0.16674  0.57416  0.34743  1.0000
  H   H44       1.0  0.33326  0.07416  0.65256  1.0000
  H   H45       1.0  0.02933  0.35832  0.70342  1.0000
  H   H46       1.0  0.47067  0.85832  0.29658  1.0000
  H   H47       1.0  0.97067  0.64168  0.29659  1.0000
  H   H48       1.0  0.52933  0.14168  0.70341  1.0000
  H   H49       1.0  0.03993  0.45105  0.58425  1.0000
  H   H50       1.0  0.46006  0.95105  0.41575  1.0000
  H   H51       1.0  0.96007  0.54895  0.41575  1.0000
  H   H52       1.0  0.53994  0.04895  0.58425  1.0000
  C   C1        1.0  0.59283  0.67696  0.56468  1.0000
  C   C2        1.0  0.90716  0.17696  0.43533  1.0000
  C   C3        1.0  0.40717  0.32304  0.43532  1.0000
  C   C4        1.0  0.09284  0.82304  0.56467  1.0000
  C   C5        1.0  0.45621  0.65178  0.47666  1.0000
  C   C6        1.0  0.04380  0.15179  0.52334  1.0000
  C   C7        1.0  0.54379  0.34822  0.52334  1.0000
  C   C8        1.0  0.95620  0.84821  0.47666  1.0000
  C   C9        1.0  0.53030  0.83041  0.95089  1.0000
  C   C10       1.0  0.96970  0.33041  0.04911  1.0000
  C   C11       1.0  0.46970  0.16959  0.04911  1.0000
  C   C12       1.0  0.03030  0.66959  0.95090  1.0000
  C   C13       1.0  0.65962  0.85855  0.04170  1.0000
  C   C14       1.0  0.84038  0.35855  0.95830  1.0000
  C   C15       1.0  0.34038  0.14145  0.95829  1.0000
  C   C16       1.0  0.15962  0.64145  0.04170  1.0000
  C   C17       1.0  0.45304  0.52553  0.78563  1.0000
  C   C18       1.0  0.04696  0.02553  0.21437  1.0000
  C   C19       1.0  0.54696  0.47447  0.21437  1.0000
  C   C20       1.0  0.95304  0.97447  0.78563  1.0000
  C   C21       1.0  0.39298  0.40880  0.82185  1.0000
  C   C22       1.0  0.10702  0.90880  0.17815  1.0000
  C   C23       1.0  0.60702  0.59120  0.17815  1.0000
  C   C24       1.0  0.89298  0.09120  0.82185  1.0000
  C   C25       1.0  0.97557  0.43653  0.66536  1.0000
  C   C26       1.0  0.52443  0.93653  0.33464  1.0000
  C   C27       1.0  0.02443  0.56347  0.33464  1.0000
  C   C28       1.0  0.47557  0.06347  0.66536  1.0000
  O   O1        1.0  0.55965  0.75212  0.64100  1.0000
  O   O2        1.0  0.94035  0.25212  0.35899  1.0000
  O   O3        1.0  0.44035  0.24788  0.35899  1.0000
  O   O4        1.0  0.05965  0.74788  0.64100  1.0000
  O   O5        1.0  0.73847  0.62425  0.56754  1.0000
  O   O6        1.0  0.76153  0.12425  0.43246  1.0000
  O   O7        1.0  0.26153  0.37575  0.43246  1.0000
  O   O8        1.0  0.23847  0.87575  0.56754  1.0000
  O   O9        1.0  0.58085  0.77000  0.86583  1.0000
  O   O10       1.0  0.91915  0.27000  0.13417  1.0000
  O   O11       1.0  0.41916  0.23000  0.13417  1.0000
  O   O12       1.0  0.08085  0.73000  0.86583  1.0000
  O   O13       1.0  0.37259  0.86571  0.95226  1.0000
  O   O14       1.0  0.12741  0.36571  0.04774  1.0000
  O   O15       1.0  0.62741  0.13429  0.04774  1.0000
  O   O16       1.0  0.87259  0.63430  0.95226  1.0000
  O   O17       1.0  0.61684  0.54553  0.78363  1.0000
  O   O18       1.0  0.88316  0.04553  0.21637  1.0000
  O   O19       1.0  0.38316  0.45447  0.21637  1.0000
  O   O20       1.0  0.11684  0.95447  0.78363  1.0000
  O   O21       1.0  0.33230  0.59831  0.75912  1.0000
  O   O22       1.0  0.16770  0.09831  0.24088  1.0000
  O   O23       1.0  0.66770  0.40169  0.24088  1.0000
  O   O24       1.0  0.83230  0.90169  0.75912  1.0000
  O   O25       1.0  0.99998  0.53093  0.73963  1.0000
  O   O26       1.0  0.50002  0.03093  0.26038  1.0000
  O   O27       1.0  0.00002  0.46906  0.26037  1.0000
  O   O28       1.0  0.49998  0.96907  0.73962  1.0000
