data_image0
_chemical_formula_structural       CoH12C12N8Cl2
_chemical_formula_sum              "Co1 H12 C12 N8 Cl2"
_cell_length_a       7.24433
_cell_length_b       7.71553
_cell_length_c       8.42279
_cell_angle_alpha    105.202
_cell_angle_beta     104.286
_cell_angle_gamma    99.5036

_space_group_name_H-M_alt    "P 1"
_space_group_IT_number       1

loop_
  _space_group_symop_operation_xyz
  'x, y, z'

loop_
  _atom_site_type_symbol
  _atom_site_label
  _atom_site_symmetry_multiplicity
  _atom_site_fract_x
  _atom_site_fract_y
  _atom_site_fract_z
  _atom_site_occupancy
  Co  Co1       1.0  0.00000  0.50000  0.50000  1.0000
  H   H1        1.0  0.60592  0.35584  0.59161  1.0000
  H   H2        1.0  0.39409  0.64416  0.40840  1.0000
  H   H3        1.0  0.70112  0.82608  0.33381  1.0000
  H   H4        1.0  0.29888  0.17393  0.66618  1.0000
  H   H5        1.0  0.54836  0.39708  0.26921  1.0000
  H   H6        1.0  0.45164  0.60292  0.73080  1.0000
  H   H7        1.0  0.81257  0.66133  0.95244  1.0000
  H   H8        1.0  0.18743  0.33867  0.04756  1.0000
  H   H9        1.0  0.95503  0.11609  0.33709  1.0000
  H   H10       1.0  0.04496  0.88391  0.66290  1.0000
  H   H11       1.0  0.06477  0.65303  0.22436  1.0000
  H   H12       1.0  0.93523  0.34698  0.77564  1.0000
  C   C1        1.0  0.65700  0.24119  0.52623  1.0000
  C   C2        1.0  0.34300  0.75881  0.47377  1.0000
  C   C3        1.0  0.58248  0.04796  0.48113  1.0000
  C   C4        1.0  0.41752  0.95204  0.51887  1.0000
  C   C5        1.0  0.70304  0.96954  0.39188  1.0000
  C   C6        1.0  0.29695  0.03047  0.60812  1.0000
  C   C7        1.0  0.64523  0.46647  0.21274  1.0000
  C   C8        1.0  0.35477  0.53353  0.78727  1.0000
  C   C9        1.0  0.59707  0.51557  0.05966  1.0000
  C   C10       1.0  0.40293  0.48443  0.94034  1.0000
  C   C11       1.0  0.77677  0.60270  0.04901  1.0000
  C   C12       1.0  0.22322  0.39730  0.95099  1.0000
  N   N1        1.0  0.81299  0.27635  0.46920  1.0000
  N   N2        1.0  0.18701  0.72366  0.53080  1.0000
  N   N3        1.0  0.83743  0.11017  0.38736  1.0000
  N   N4        1.0  0.16258  0.88984  0.61264  1.0000
  N   N5        1.0  0.84052  0.52086  0.29030  1.0000
  N   N6        1.0  0.15948  0.47914  0.70971  1.0000
  N   N7        1.0  0.91671  0.60266  0.18892  1.0000
  N   N8        1.0  0.08329  0.39734  0.81108  1.0000
  Cl  Cl1       1.0  0.18790  0.29927  0.32044  1.0000
  Cl  Cl2       1.0  0.81210  0.70073  0.67956  1.0000
