data_image0
_chemical_formula_structural       Ag4H36C34S4N8O12
_chemical_formula_sum              "Ag4 H36 C34 S4 N8 O12"
_cell_length_a       7.70773
_cell_length_b       9.08355
_cell_length_c       15.032
_cell_angle_alpha    91.0896
_cell_angle_beta     92.1617
_cell_angle_gamma    105.391

_space_group_name_H-M_alt    "P 1"
_space_group_IT_number       1

loop_
  _space_group_symop_operation_xyz
  'x, y, z'

loop_
  _atom_site_type_symbol
  _atom_site_label
  _atom_site_symmetry_multiplicity
  _atom_site_fract_x
  _atom_site_fract_y
  _atom_site_fract_z
  _atom_site_occupancy
  Ag  Ag1       1.0  0.43044  0.32816  0.23964  1.0000
  Ag  Ag2       1.0  0.56956  0.67183  0.76037  1.0000
  Ag  Ag3       1.0  0.60708  0.67234  0.27669  1.0000
  Ag  Ag4       1.0  0.39292  0.32766  0.72331  1.0000
  H   H1        1.0  0.04097  0.86841  0.92677  1.0000
  H   H2        1.0  0.95903  0.13159  0.07323  1.0000
  H   H3        1.0  0.99473  0.69675  0.79205  1.0000
  H   H4        1.0  0.00527  0.30324  0.20795  1.0000
  H   H5        1.0  0.81155  0.42644  0.79709  1.0000
  H   H6        1.0  0.18845  0.57355  0.20291  1.0000
  H   H7        1.0  0.66333  0.32496  0.93658  1.0000
  H   H8        1.0  0.33667  0.67504  0.06342  1.0000
  H   H9        1.0  0.95430  0.13955  0.58200  1.0000
  H   H10       1.0  0.04570  0.86045  0.41799  1.0000
  H   H11       1.0  0.95514  0.32742  0.70479  1.0000
  H   H12       1.0  0.04486  0.67258  0.29521  1.0000
  H   H13       1.0  0.12548  0.60016  0.69399  1.0000
  H   H14       1.0  0.87452  0.39984  0.30601  1.0000
  H   H15       1.0  0.30275  0.68942  0.55949  1.0000
  H   H16       1.0  0.69725  0.31058  0.44051  1.0000
  H   H17       1.0  0.56491  0.08463  0.09973  1.0000
  H   H18       1.0  0.43509  0.91537  0.90026  1.0000
  H   H19       1.0  0.36465  0.11703  0.05300  1.0000
  H   H20       1.0  0.63536  0.88297  0.94700  1.0000
  H   H21       1.0  0.37350  0.92675  0.07568  1.0000
  H   H22       1.0  0.62651  0.07325  0.92431  1.0000
  H   H23       1.0  0.39953  0.85029  0.22092  1.0000
  H   H24       1.0  0.60047  0.14971  0.77908  1.0000
  H   H25       1.0  0.31919  0.94648  0.30828  1.0000
  H   H26       1.0  0.68081  0.05352  0.69172  1.0000
  H   H27       1.0  0.69430  0.05794  0.23377  1.0000
  H   H28       1.0  0.30570  0.94206  0.76623  1.0000
  H   H29       1.0  0.61027  0.13702  0.32691  1.0000
  H   H30       1.0  0.38973  0.86298  0.67309  1.0000
  H   H31       1.0  0.21750  0.03178  0.18480  1.0000
  H   H32       1.0  0.78251  0.96822  0.81520  1.0000
  H   H33       1.0  0.59572  0.90029  0.40147  1.0000
  H   H34       1.0  0.40428  0.09971  0.59853  1.0000
  H   H35       1.0  0.79614  0.96356  0.36152  1.0000
  H   H36       1.0  0.20386  0.03644  0.63848  1.0000
  C   C1        1.0  0.87172  0.69114  0.00461  1.0000
  C   C2        1.0  0.12828  0.30886  0.99539  1.0000
  C   C3        1.0  0.95838  0.75081  0.92891  1.0000
  C   C4        1.0  0.04162  0.24919  0.07109  1.0000
  C   C5        1.0  0.93320  0.65262  0.85361  1.0000
  C   C6        1.0  0.06680  0.34738  0.14639  1.0000
  C   C7        1.0  0.82863  0.50075  0.85628  1.0000
  C   C8        1.0  0.17137  0.49925  0.14372  1.0000
  C   C9        1.0  0.74549  0.44259  0.93413  1.0000
  C   C10       1.0  0.25450  0.55741  0.06588  1.0000
  C   C11       1.0  0.76633  0.54054  0.00837  1.0000
  C   C12       1.0  0.23367  0.45946  0.99163  1.0000
  C   C13       1.0  0.68103  0.50906  0.09594  1.0000
  C   C14       1.0  0.31897  0.49094  0.90406  1.0000
  C   C15       1.0  0.13536  0.31108  0.50580  1.0000
  C   C16       1.0  0.86464  0.68892  0.49419  1.0000
  C   C17       1.0  0.03156  0.25833  0.57778  1.0000
  C   C18       1.0  0.96844  0.74167  0.42221  1.0000
  C   C19       1.0  0.03077  0.36567  0.64599  1.0000
  C   C20       1.0  0.96923  0.63433  0.35400  1.0000
  C   C21       1.0  0.12791  0.51912  0.64004  1.0000
  C   C22       1.0  0.87209  0.48088  0.35996  1.0000
  C   C23       1.0  0.22740  0.57041  0.56543  1.0000
  C   C24       1.0  0.77259  0.42960  0.43457  1.0000
  C   C25       1.0  0.23130  0.46371  0.49848  1.0000
  C   C26       1.0  0.76870  0.53630  0.50152  1.0000
  C   C27       1.0  0.33282  0.48962  0.41528  1.0000
  C   C28       1.0  0.66719  0.51039  0.58472  1.0000
  C   C29       1.0  0.41779  0.04709  0.09955  1.0000
  C   C30       1.0  0.58221  0.95291  0.90045  1.0000
  C   C31       1.0  0.41067  0.96380  0.25290  1.0000
  C   C32       1.0  0.58933  0.03620  0.74710  1.0000
  C   C33       1.0  0.60320  0.02987  0.28904  1.0000
  C   C34       1.0  0.39681  0.97013  0.71096  1.0000
  S   S1        1.0  0.86189  0.78192  0.10908  1.0000
  S   S2        1.0  0.13811  0.21808  0.89092  1.0000
  S   S3        1.0  0.18428  0.20882  0.41269  1.0000
  S   S4        1.0  0.81572  0.79118  0.58731  1.0000
  N   N1        1.0  0.72103  0.63307  0.15200  1.0000
  N   N2        1.0  0.27897  0.36693  0.84800  1.0000
  N   N3        1.0  0.31661  0.35914  0.36647  1.0000
  N   N4        1.0  0.68340  0.64086  0.63353  1.0000
  N   N5        1.0  0.35514  0.06541  0.18933  1.0000
  N   N6        1.0  0.64486  0.93459  0.81067  1.0000
  N   N7        1.0  0.66304  0.91843  0.34359  1.0000
  N   N8        1.0  0.33696  0.08157  0.65641  1.0000
  O   O1        1.0  0.58085  0.38065  0.11314  1.0000
  O   O2        1.0  0.41915  0.61935  0.88686  1.0000
  O   O3        1.0  0.03472  0.81763  0.15821  1.0000
  O   O4        1.0  0.96528  0.18236  0.84180  1.0000
  O   O5        1.0  0.77899  0.90715  0.09971  1.0000
  O   O6        1.0  0.22101  0.09284  0.90029  1.0000
  O   O7        1.0  0.42252  0.62002  0.39467  1.0000
  O   O8        1.0  0.57749  0.37998  0.60533  1.0000
  O   O9        1.0  0.02597  0.14487  0.35428  1.0000
  O   O10       1.0  0.97402  0.85513  0.64572  1.0000
  O   O11       1.0  0.28410  0.10180  0.44163  1.0000
  O   O12       1.0  0.71589  0.89820  0.55837  1.0000
