data_image0
_chemical_formula_structural       K4H24C32N20O4
_chemical_formula_sum              "K4 H24 C32 N20 O4"
_cell_length_a       3.94391
_cell_length_b       12.3823
_cell_length_c       20.063
_cell_angle_alpha    104.48
_cell_angle_beta     95.634
_cell_angle_gamma    89.9765

_space_group_name_H-M_alt    "P 1"
_space_group_IT_number       1

loop_
  _space_group_symop_operation_xyz
  'x, y, z'

loop_
  _atom_site_type_symbol
  _atom_site_label
  _atom_site_symmetry_multiplicity
  _atom_site_fract_x
  _atom_site_fract_y
  _atom_site_fract_z
  _atom_site_occupancy
  K   K1        1.0  0.97825  0.89583  0.07488  1.0000
  K   K2        1.0  0.90273  0.60403  0.92498  1.0000
  K   K3        1.0  0.02175  0.10417  0.92512  1.0000
  K   K4        1.0  0.09725  0.39598  0.07502  1.0000
  H   H1        1.0  0.58012  0.52440  0.40013  1.0000
  H   H2        1.0  0.18054  0.97548  0.60012  1.0000
  H   H3        1.0  0.41987  0.47560  0.59988  1.0000
  H   H4        1.0  0.81946  0.02452  0.39988  1.0000
  H   H5        1.0  0.81888  0.41915  0.48418  1.0000
  H   H6        1.0  0.33497  0.08031  0.51580  1.0000
  H   H7        1.0  0.18113  0.58085  0.51582  1.0000
  H   H8        1.0  0.66503  0.91969  0.48420  1.0000
  H   H9        1.0  0.70787  0.21527  0.46178  1.0000
  H   H10       1.0  0.24628  0.28426  0.53802  1.0000
  H   H11       1.0  0.29215  0.78472  0.53822  1.0000
  H   H12       1.0  0.75371  0.71574  0.46198  1.0000
  H   H13       1.0  0.34678  0.11543  0.35359  1.0000
  H   H14       1.0  0.99314  0.38443  0.64613  1.0000
  H   H15       1.0  0.65323  0.88457  0.64641  1.0000
  H   H16       1.0  0.00686  0.61557  0.35387  1.0000
  H   H17       1.0  0.00095  0.11468  0.24995  1.0000
  H   H18       1.0  0.75015  0.38549  0.74990  1.0000
  H   H19       1.0  0.99904  0.88532  0.75005  1.0000
  H   H20       1.0  0.24984  0.61451  0.25010  1.0000
  H   H21       1.0  0.06708  0.38138  0.24575  1.0000
  H   H22       1.0  0.82211  0.11902  0.75440  1.0000
  H   H23       1.0  0.93292  0.61862  0.75425  1.0000
  H   H24       1.0  0.17789  0.88098  0.24560  1.0000
  C   C1        1.0  0.33284  0.37976  0.32991  1.0000
  C   C2        1.0  0.00320  0.12031  0.67014  1.0000
  C   C3        1.0  0.66716  0.62024  0.67009  1.0000
  C   C4        1.0  0.99680  0.87969  0.32986  1.0000
  C   C5        1.0  0.53207  0.43496  0.39071  1.0000
  C   C6        1.0  0.14158  0.06490  0.60936  1.0000
  C   C7        1.0  0.46793  0.56504  0.60929  1.0000
  C   C8        1.0  0.85843  0.93510  0.39064  1.0000
  C   C9        1.0  0.66289  0.37536  0.43729  1.0000
  C   C10       1.0  0.22582  0.12425  0.56266  1.0000
  C   C11       1.0  0.33712  0.62464  0.56271  1.0000
  C   C12       1.0  0.77419  0.87574  0.43734  1.0000
  C   C13       1.0  0.59885  0.26014  0.42480  1.0000
  C   C14       1.0  0.17426  0.23951  0.57506  1.0000
  C   C15       1.0  0.40116  0.73986  0.57520  1.0000
  C   C16       1.0  0.82574  0.76049  0.42494  1.0000
  C   C17       1.0  0.40033  0.20498  0.36511  1.0000
  C   C18       1.0  0.03519  0.29485  0.63470  1.0000
  C   C19       1.0  0.59967  0.79501  0.63489  1.0000
  C   C20       1.0  0.96482  0.70515  0.36531  1.0000
  C   C21       1.0  0.26362  0.26288  0.31680  1.0000
  C   C22       1.0  0.94667  0.23718  0.68311  1.0000
  C   C23       1.0  0.73638  0.73712  0.68320  1.0000
  C   C24       1.0  0.05334  0.76282  0.31689  1.0000
  C   C25       1.0  0.05357  0.20384  0.25601  1.0000
  C   C26       1.0  0.79728  0.29635  0.74389  1.0000
  C   C27       1.0  0.94643  0.79616  0.74399  1.0000
  C   C28       1.0  0.20272  0.70365  0.25611  1.0000
  C   C29       1.0  0.71929  0.19738  0.15286  1.0000
  C   C30       1.0  0.56667  0.30275  0.84713  1.0000
  C   C31       1.0  0.28070  0.80262  0.84715  1.0000
  C   C32       1.0  0.43333  0.69725  0.15287  1.0000
  N   N1        1.0  0.92725  0.25523  0.21004  1.0000
  N   N2        1.0  0.71757  0.24501  0.78991  1.0000
  N   N3        1.0  0.07274  0.74478  0.78996  1.0000
  N   N4        1.0  0.28243  0.75499  0.21009  1.0000
  N   N5        1.0  0.60597  0.09039  0.13909  1.0000
  N   N6        1.0  0.46699  0.40976  0.86096  1.0000
  N   N7        1.0  0.39402  0.90961  0.86091  1.0000
  N   N8        1.0  0.53301  0.59024  0.13904  1.0000
  N   N9        1.0  0.41319  0.07418  0.07824  1.0000
  N   N10       1.0  0.33508  0.42590  0.92182  1.0000
  N   N11       1.0  0.58681  0.92582  0.92176  1.0000
  N   N12       1.0  0.66492  0.57410  0.07818  1.0000
  N   N13       1.0  0.41138  0.16665  0.05612  1.0000
  N   N14       1.0  0.35547  0.33338  0.94388  1.0000
  N   N15       1.0  0.58862  0.83335  0.94388  1.0000
  N   N16       1.0  0.64453  0.66662  0.05612  1.0000
  N   N17       1.0  0.60227  0.24629  0.10237  1.0000
  N   N18       1.0  0.50017  0.25376  0.89758  1.0000
  N   N19       1.0  0.39772  0.75371  0.89763  1.0000
  N   N20       1.0  0.49983  0.74624  0.10242  1.0000
  O   O1        1.0  0.20758  0.43798  0.28499  1.0000
  O   O2        1.0  0.92341  0.06229  0.71518  1.0000
  O   O3        1.0  0.79242  0.56202  0.71501  1.0000
  O   O4        1.0  0.07659  0.93771  0.28482  1.0000
