data_image0
_chemical_formula_structural       Zn2Si2H48C48S8N8F12
_chemical_formula_sum              "Zn2 Si2 H48 C48 S8 N8 F12"
_cell_length_a       7.7151
_cell_length_b       11.4787
_cell_length_c       22.4032
_cell_angle_alpha    84.3352
_cell_angle_beta     80.08
_cell_angle_gamma    70.36

_space_group_name_H-M_alt    "P 1"
_space_group_IT_number       1

loop_
  _space_group_symop_operation_xyz
  'x, y, z'

loop_
  _atom_site_type_symbol
  _atom_site_label
  _atom_site_symmetry_multiplicity
  _atom_site_fract_x
  _atom_site_fract_y
  _atom_site_fract_z
  _atom_site_occupancy
  Zn  Zn1       1.0  0.47337  0.25004  0.74998  1.0000
  Zn  Zn2       1.0  0.52663  0.74996  0.25002  1.0000
  Si  Si1       1.0  0.97443  0.24999  0.75002  1.0000
  Si  Si2       1.0  0.02557  0.75001  0.24998  1.0000
  H   H1        1.0  0.30977  0.03709  0.76246  1.0000
  H   H2        1.0  0.10898  0.46313  0.73742  1.0000
  H   H3        1.0  0.69023  0.96290  0.23754  1.0000
  H   H4        1.0  0.89102  0.53687  0.26258  1.0000
  H   H5        1.0  0.40239  0.81135  0.78630  1.0000
  H   H6        1.0  0.00005  0.68892  0.71357  1.0000
  H   H7        1.0  0.59761  0.18865  0.21370  1.0000
  H   H8        1.0  0.99995  0.31108  0.28643  1.0000
  H   H9        1.0  0.91240  0.83397  0.83362  1.0000
  H   H10       1.0  0.58028  0.66591  0.66655  1.0000
  H   H11       1.0  0.08759  0.16603  0.16638  1.0000
  H   H12       1.0  0.41972  0.33409  0.33345  1.0000
  H   H13       1.0  0.79805  0.05768  0.80850  1.0000
  H   H14       1.0  0.66411  0.44218  0.69158  1.0000
  H   H15       1.0  0.20195  0.94232  0.19150  1.0000
  H   H16       1.0  0.33589  0.55782  0.30843  1.0000
  H   H17       1.0  0.99056  0.49797  0.85683  1.0000
  H   H18       1.0  0.34572  0.00208  0.64322  1.0000
  H   H19       1.0  0.00944  0.50203  0.14317  1.0000
  H   H20       1.0  0.65428  0.99792  0.35677  1.0000
  H   H21       1.0  0.03743  0.63722  0.83365  1.0000
  H   H22       1.0  0.50872  0.86277  0.66634  1.0000
  H   H23       1.0  0.96257  0.36278  0.16635  1.0000
  H   H24       1.0  0.49128  0.13723  0.33366  1.0000
  H   H25       1.0  0.80800  0.73689  0.92879  1.0000
  H   H26       1.0  0.47369  0.76313  0.57131  1.0000
  H   H27       1.0  0.19200  0.26311  0.07121  1.0000
  H   H28       1.0  0.52631  0.23687  0.42869  1.0000
  H   H29       1.0  0.02159  0.62129  0.94308  1.0000
  H   H30       1.0  0.58594  0.87874  0.55689  1.0000
  H   H31       1.0  0.97841  0.37871  0.05692  1.0000
  H   H32       1.0  0.41406  0.12126  0.44311  1.0000
  H   H33       1.0  0.87112  0.73241  0.03014  1.0000
  H   H34       1.0  0.63361  0.76749  0.46994  1.0000
  H   H35       1.0  0.12888  0.26759  0.96986  1.0000
  H   H36       1.0  0.36639  0.23251  0.53006  1.0000
  H   H37       1.0  0.77749  0.79687  0.13643  1.0000
  H   H38       1.0  0.71094  0.70306  0.36365  1.0000
  H   H39       1.0  0.22251  0.20313  0.86357  1.0000
  H   H40       1.0  0.28906  0.29694  0.63635  1.0000
  H   H41       1.0  0.43867  0.57640  0.17645  1.0000
  H   H42       1.0  0.19171  0.92351  0.32358  1.0000
  H   H43       1.0  0.56133  0.42360  0.82355  1.0000
  H   H44       1.0  0.80829  0.07650  0.67642  1.0000
  H   H45       1.0  0.52870  0.49380  0.07346  1.0000
  H   H46       1.0  0.09596  0.00615  0.42656  1.0000
  H   H47       1.0  0.47130  0.50620  0.92654  1.0000
  H   H48       1.0  0.90403  0.99385  0.57344  1.0000
  C   C1        1.0  0.44272  0.98835  0.77815  1.0000
  C   C2        1.0  0.20899  0.51183  0.72178  1.0000
  C   C3        1.0  0.55728  0.01165  0.22185  1.0000
  C   C4        1.0  0.79101  0.48817  0.27822  1.0000
  C   C5        1.0  0.49518  0.86203  0.79175  1.0000
  C   C6        1.0  0.14894  0.63816  0.70818  1.0000
  C   C7        1.0  0.50482  0.13797  0.20825  1.0000
  C   C8        1.0  0.85106  0.36184  0.29182  1.0000
  C   C9        1.0  0.66813  0.80067  0.81156  1.0000
  C   C10       1.0  0.28051  0.69941  0.68846  1.0000
  C   C11       1.0  0.33188  0.19933  0.18844  1.0000
  C   C12       1.0  0.71949  0.30059  0.31154  1.0000
  C   C13       1.0  0.77706  0.87357  0.81849  1.0000
  C   C14       1.0  0.46926  0.62641  0.68160  1.0000
  C   C15       1.0  0.22294  0.12643  0.18151  1.0000
  C   C16       1.0  0.53074  0.37359  0.31840  1.0000
  C   C17       1.0  0.71340  0.00019  0.80429  1.0000
  C   C18       1.0  0.51778  0.49978  0.69576  1.0000
  C   C19       1.0  0.28660  0.99981  0.19571  1.0000
  C   C20       1.0  0.48222  0.50022  0.30424  1.0000
  C   C21       1.0  0.93306  0.59913  0.85975  1.0000
  C   C22       1.0  0.39223  0.90092  0.64030  1.0000
  C   C23       1.0  0.06694  0.40087  0.14025  1.0000
  C   C24       1.0  0.60776  0.09908  0.35970  1.0000
  C   C25       1.0  0.89066  0.63837  0.92526  1.0000
  C   C26       1.0  0.45430  0.86167  0.57479  1.0000
  C   C27       1.0  0.10934  0.36163  0.07474  1.0000
  C   C28       1.0  0.54570  0.13833  0.42521  1.0000
  C   C29       1.0  0.70673  0.60719  0.04211  1.0000
  C   C30       1.0  0.35598  0.89269  0.45796  1.0000
  C   C31       1.0  0.29327  0.39281  0.95789  1.0000
  C   C32       1.0  0.64402  0.10731  0.54204  1.0000
  C   C33       1.0  0.77530  0.69469  0.06056  1.0000
  C   C34       1.0  0.53054  0.80522  0.43951  1.0000
  C   C35       1.0  0.22470  0.30531  0.93944  1.0000
  C   C36       1.0  0.46946  0.19478  0.56049  1.0000
  C   C37       1.0  0.72198  0.73219  0.12003  1.0000
  C   C38       1.0  0.57429  0.76773  0.38004  1.0000
  C   C39       1.0  0.27802  0.26781  0.87997  1.0000
  C   C40       1.0  0.42571  0.23227  0.61996  1.0000
  C   C41       1.0  0.53792  0.60596  0.14305  1.0000
  C   C42       1.0  0.28699  0.89392  0.35701  1.0000
  C   C43       1.0  0.46209  0.39404  0.85695  1.0000
  C   C44       1.0  0.71301  0.10608  0.64299  1.0000
  C   C45       1.0  0.58689  0.56141  0.08521  1.0000
  C   C46       1.0  0.23353  0.93851  0.41483  1.0000
  C   C47       1.0  0.41311  0.43858  0.91479  1.0000
  C   C48       1.0  0.76647  0.06149  0.58517  1.0000
  S   S1        1.0  0.73195  0.63986  0.82107  1.0000
  S   S2        1.0  0.19317  0.86025  0.67905  1.0000
  S   S3        1.0  0.26805  0.36014  0.17893  1.0000
  S   S4        1.0  0.80683  0.13975  0.32095  1.0000
  S   S5        1.0  0.76080  0.54668  0.97034  1.0000
  S   S6        1.0  0.27770  0.95324  0.52972  1.0000
  S   S7        1.0  0.23921  0.45331  0.02966  1.0000
  S   S8        1.0  0.72230  0.04676  0.47028  1.0000
  N   N1        1.0  0.55011  0.05737  0.78366  1.0000
  N   N2        1.0  0.39088  0.44271  0.71631  1.0000
  N   N3        1.0  0.44989  0.94263  0.21634  1.0000
  N   N4        1.0  0.60912  0.55729  0.28369  1.0000
  N   N5        1.0  0.60456  0.68966  0.16056  1.0000
  N   N6        1.0  0.45491  0.81025  0.33949  1.0000
  N   N7        1.0  0.39544  0.31034  0.83944  1.0000
  N   N8        1.0  0.54509  0.18975  0.66051  1.0000
  F   F1        1.0  0.74832  0.25011  0.74993  1.0000
  F   F2        1.0  0.25168  0.74989  0.25007  1.0000
  F   F3        1.0  0.95687  0.35037  0.68826  1.0000
  F   F4        1.0  0.99496  0.14962  0.81178  1.0000
  F   F5        1.0  0.04313  0.64964  0.31174  1.0000
  F   F6        1.0  0.00504  0.85038  0.18822  1.0000
  F   F7        1.0  0.89151  0.37205  0.79666  1.0000
  F   F8        1.0  0.06018  0.12792  0.70339  1.0000
  F   F9        1.0  0.10849  0.62795  0.20334  1.0000
  F   F10       1.0  0.93982  0.87208  0.29661  1.0000
  F   F11       1.0  0.20074  0.24988  0.75010  1.0000
  F   F12       1.0  0.79926  0.75012  0.24990  1.0000
