data_image0
_chemical_formula_structural       Cd2H14C22N4O10
_chemical_formula_sum              "Cd2 H14 C22 N4 O10"
_cell_length_a       8.24759
_cell_length_b       8.38194
_cell_length_c       8.76966
_cell_angle_alpha    107.293
_cell_angle_beta     107.522
_cell_angle_gamma    103.06

_space_group_name_H-M_alt    "P 1"
_space_group_IT_number       1

loop_
  _space_group_symop_operation_xyz
  'x, y, z'

loop_
  _atom_site_type_symbol
  _atom_site_label
  _atom_site_symmetry_multiplicity
  _atom_site_fract_x
  _atom_site_fract_y
  _atom_site_fract_z
  _atom_site_occupancy
  Cd  Cd1       1.0  0.08413  0.30667  0.10032  1.0000
  Cd  Cd2       1.0  0.91587  0.69333  0.89968  1.0000
  H   H1        1.0  0.64906  0.27689  0.87373  1.0000
  H   H2        1.0  0.35094  0.72311  0.12627  1.0000
  H   H3        1.0  0.76638  0.41672  0.54720  1.0000
  H   H4        1.0  0.23362  0.58327  0.45279  1.0000
  H   H5        1.0  0.35382  0.12667  0.04396  1.0000
  H   H6        1.0  0.64617  0.87333  0.95603  1.0000
  H   H7        1.0  0.69959  0.17224  0.26277  1.0000
  H   H8        1.0  0.30041  0.82775  0.73722  1.0000
  H   H9        1.0  0.96650  0.26363  0.45101  1.0000
  H   H10       1.0  0.03351  0.73637  0.54899  1.0000
  H   H11       1.0  0.34662  0.98865  0.43921  1.0000
  H   H12       1.0  0.65338  0.01135  0.56079  1.0000
  H   H13       1.0  0.41891  0.38617  0.92259  1.0000
  H   H14       1.0  0.58109  0.61383  0.07741  1.0000
  C   C1        1.0  0.50271  0.43079  0.42907  1.0000
  C   C2        1.0  0.49729  0.56921  0.57093  1.0000
  C   C3        1.0  0.43706  0.22108  0.17664  1.0000
  C   C4        1.0  0.56294  0.77892  0.82336  1.0000
  C   C5        1.0  0.60612  0.23996  0.28479  1.0000
  C   C6        1.0  0.39388  0.76004  0.71521  1.0000
  C   C7        1.0  0.18457  0.33741  0.69789  1.0000
  C   C8        1.0  0.81544  0.66260  0.30211  1.0000
  C   C9        1.0  0.08755  0.24176  0.51890  1.0000
  C   C10       1.0  0.91245  0.75824  0.48110  1.0000
  C   C11       1.0  0.14482  0.11386  0.42862  1.0000
  C   C12       1.0  0.85518  0.88614  0.57138  1.0000
  C   C13       1.0  0.30300  0.08699  0.51327  1.0000
  C   C14       1.0  0.69700  0.91300  0.48673  1.0000
  C   C15       1.0  0.40795  0.19306  0.68974  1.0000
  C   C16       1.0  0.59206  0.80694  0.31026  1.0000
  C   C17       1.0  0.34440  0.31301  0.78303  1.0000
  C   C18       1.0  0.65560  0.68699  0.21697  1.0000
  C   C19       1.0  0.11616  0.46146  0.79981  1.0000
  C   C20       1.0  0.88384  0.53854  0.20018  1.0000
  C   C21       1.0  0.03673  0.00494  0.23867  1.0000
  C   C22       1.0  0.96327  0.99506  0.76133  1.0000
  N   N1        1.0  0.37302  0.33984  0.26605  1.0000
  N   N2        1.0  0.62698  0.66016  0.73394  1.0000
  N   N3        1.0  0.64454  0.37064  0.44182  1.0000
  N   N4        1.0  0.35545  0.62936  0.55817  1.0000
  O   O1        1.0  0.18779  0.52669  0.96569  1.0000
  O   O2        1.0  0.81221  0.47331  0.03431  1.0000
  O   O3        1.0  0.56753  0.17242  0.76407  1.0000
  O   O4        1.0  0.43247  0.82758  0.23593  1.0000
  O   O5        1.0  0.05922  0.85695  0.17692  1.0000
  O   O6        1.0  0.94078  0.14305  0.82308  1.0000
  O   O7        1.0  0.92984  0.06271  0.14937  1.0000
  O   O8        1.0  0.07016  0.93729  0.85063  1.0000
  O   O9        1.0  0.98392  0.49990  0.71508  1.0000
  O   O10       1.0  0.01608  0.50010  0.28493  1.0000
