data_image0
_chemical_formula_structural       Cd4H32C56I12N20O16
_chemical_formula_sum              "Cd4 H32 C56 I12 N20 O16"
_cell_length_a       7.86835
_cell_length_b       14.6939
_cell_length_c       17.0329
_cell_angle_alpha    90.0003
_cell_angle_beta     90.0001
_cell_angle_gamma    89.9997

_space_group_name_H-M_alt    "P 1"
_space_group_IT_number       1

loop_
  _space_group_symop_operation_xyz
  'x, y, z'

loop_
  _atom_site_type_symbol
  _atom_site_label
  _atom_site_symmetry_multiplicity
  _atom_site_fract_x
  _atom_site_fract_y
  _atom_site_fract_z
  _atom_site_occupancy
  Cd  Cd1       1.0  0.88050  0.21386  0.40746  1.0000
  Cd  Cd2       1.0  0.11952  0.71386  0.59253  1.0000
  Cd  Cd3       1.0  0.61953  0.21386  0.90747  1.0000
  Cd  Cd4       1.0  0.38048  0.71386  0.09253  1.0000
  H   H1        1.0  0.63749  0.65938  0.57222  1.0000
  H   H2        1.0  0.36252  0.15939  0.42779  1.0000
  H   H3        1.0  0.86251  0.65939  0.07222  1.0000
  H   H4        1.0  0.13750  0.15938  0.92777  1.0000
  H   H5        1.0  0.50783  0.73524  0.52475  1.0000
  H   H6        1.0  0.49218  0.23525  0.47526  1.0000
  H   H7        1.0  0.99216  0.73524  0.02475  1.0000
  H   H8        1.0  0.00785  0.23524  0.97524  1.0000
  H   H9        1.0  0.90457  0.11036  0.69561  1.0000
  H   H10       1.0  0.09542  0.61036  0.30439  1.0000
  H   H11       1.0  0.59543  0.11036  0.19561  1.0000
  H   H12       1.0  0.40454  0.61037  0.80439  1.0000
  H   H13       1.0  0.84616  0.95345  0.60696  1.0000
  H   H14       1.0  0.15381  0.45344  0.39305  1.0000
  H   H15       1.0  0.65380  0.95344  0.10695  1.0000
  H   H16       1.0  0.34618  0.45345  0.89305  1.0000
  H   H17       1.0  0.13418  0.23220  0.71615  1.0000
  H   H18       1.0  0.86580  0.73221  0.28384  1.0000
  H   H19       1.0  0.36581  0.23220  0.21615  1.0000
  H   H20       1.0  0.63417  0.73220  0.78385  1.0000
  H   H21       1.0  0.15545  0.31850  0.57127  1.0000
  H   H22       1.0  0.84456  0.81851  0.42873  1.0000
  H   H23       1.0  0.34456  0.31850  0.07127  1.0000
  H   H24       1.0  0.65542  0.81850  0.92873  1.0000
  H   H25       1.0  0.64819  0.87418  0.50972  1.0000
  H   H26       1.0  0.35179  0.37418  0.49029  1.0000
  H   H27       1.0  0.85180  0.87417  0.00971  1.0000
  H   H28       1.0  0.14820  0.37418  0.99029  1.0000
  H   H29       1.0  0.62821  0.99575  0.38406  1.0000
  H   H30       1.0  0.37178  0.49575  0.61594  1.0000
  H   H31       1.0  0.87178  0.99575  0.88407  1.0000
  H   H32       1.0  0.12820  0.49575  0.11594  1.0000
  C   C1        1.0  0.75778  0.39058  0.39852  1.0000
  C   C2        1.0  0.24223  0.89058  0.60148  1.0000
  C   C3        1.0  0.74221  0.39058  0.89852  1.0000
  C   C4        1.0  0.25779  0.89058  0.10147  1.0000
  C   C5        1.0  0.67228  0.48299  0.39503  1.0000
  C   C6        1.0  0.32773  0.98300  0.60498  1.0000
  C   C7        1.0  0.82771  0.48301  0.89502  1.0000
  C   C8        1.0  0.17230  0.98300  0.10496  1.0000
  C   C9        1.0  0.58257  0.50932  0.32754  1.0000
  C   C10       1.0  0.41743  0.00932  0.67246  1.0000
  C   C11       1.0  0.91742  0.50933  0.82754  1.0000
  C   C12       1.0  0.08260  0.00933  0.17245  1.0000
  C   C13       1.0  0.51182  0.59652  0.32080  1.0000
  C   C14       1.0  0.48819  0.09651  0.67921  1.0000
  C   C15       1.0  0.98815  0.59653  0.82079  1.0000
  C   C16       1.0  0.01186  0.09653  0.17919  1.0000
  C   C17       1.0  0.52358  0.65584  0.38459  1.0000
  C   C18       1.0  0.47643  0.15583  0.61542  1.0000
  C   C19       1.0  0.97641  0.65584  0.88459  1.0000
  C   C20       1.0  0.02360  0.15584  0.11541  1.0000
  C   C21       1.0  0.59916  0.62992  0.45682  1.0000
  C   C22       1.0  0.40086  0.12993  0.54319  1.0000
  C   C23       1.0  0.90083  0.62993  0.95682  1.0000
  C   C24       1.0  0.09917  0.12992  0.04316  1.0000
  C   C25       1.0  0.67828  0.54314  0.45862  1.0000
  C   C26       1.0  0.32172  0.04314  0.54138  1.0000
  C   C27       1.0  0.82172  0.54314  0.95862  1.0000
  C   C28       1.0  0.17830  0.04314  0.04137  1.0000
  C   C29       1.0  0.42590  0.62734  0.24555  1.0000
  C   C30       1.0  0.57413  0.12733  0.75445  1.0000
  C   C31       1.0  0.07408  0.62736  0.74555  1.0000
  C   C32       1.0  0.92594  0.12736  0.25445  1.0000
  C   C33       1.0  0.07428  0.21676  0.66049  1.0000
  C   C34       1.0  0.92571  0.71677  0.33951  1.0000
  C   C35       1.0  0.42572  0.21676  0.16049  1.0000
  C   C36       1.0  0.57425  0.71676  0.83952  1.0000
  C   C37       1.0  0.08538  0.25812  0.58789  1.0000
  C   C38       1.0  0.91462  0.75812  0.41211  1.0000
  C   C39       1.0  0.41462  0.25812  0.08789  1.0000
  C   C40       1.0  0.58535  0.75812  0.91211  1.0000
  C   C41       1.0  0.92695  0.13813  0.57399  1.0000
  C   C42       1.0  0.07306  0.63812  0.42601  1.0000
  C   C43       1.0  0.57306  0.13812  0.07399  1.0000
  C   C44       1.0  0.42692  0.63813  0.92601  1.0000
  C   C45       1.0  0.82660  0.07019  0.53529  1.0000
  C   C46       1.0  0.17340  0.57018  0.46470  1.0000
  C   C47       1.0  0.67341  0.07018  0.03530  1.0000
  C   C48       1.0  0.32657  0.57019  0.96471  1.0000
  C   C49       1.0  0.69914  0.94205  0.50209  1.0000
  C   C50       1.0  0.30084  0.44206  0.49791  1.0000
  C   C51       1.0  0.80085  0.94205  0.00209  1.0000
  C   C52       1.0  0.19915  0.44206  0.99791  1.0000
  C   C53       1.0  0.68782  0.00343  0.44098  1.0000
  C   C54       1.0  0.31218  0.50343  0.55901  1.0000
  C   C55       1.0  0.81219  0.00343  0.94098  1.0000
  C   C56       1.0  0.18780  0.50343  0.05901  1.0000
  I   I1        1.0  0.79486  0.50119  0.56510  1.0000
  I   I2        1.0  0.20515  0.00119  0.43491  1.0000
  I   I3        1.0  0.70513  0.50119  0.06509  1.0000
  I   I4        1.0  0.29488  0.00119  0.93490  1.0000
  I   I5        1.0  0.42083  0.78826  0.37482  1.0000
  I   I6        1.0  0.57916  0.28826  0.62520  1.0000
  I   I7        1.0  0.07914  0.78827  0.87482  1.0000
  I   I8        1.0  0.92087  0.28827  0.12517  1.0000
  I   I9        1.0  0.54086  0.41225  0.23818  1.0000
  I   I10       1.0  0.45915  0.91225  0.76182  1.0000
  I   I11       1.0  0.95913  0.41226  0.73817  1.0000
  I   I12       1.0  0.04090  0.91227  0.26182  1.0000
  N   N1        1.0  0.60116  0.68730  0.52021  1.0000
  N   N2        1.0  0.39885  0.18730  0.47980  1.0000
  N   N3        1.0  0.89883  0.68730  0.02021  1.0000
  N   N4        1.0  0.10116  0.18730  0.97977  1.0000
  N   N5        1.0  0.99419  0.20828  0.53418  1.0000
  N   N6        1.0  0.00581  0.70828  0.46582  1.0000
  N   N7        1.0  0.50582  0.20828  0.03417  1.0000
  N   N8        1.0  0.49416  0.70828  0.96583  1.0000
  N   N9        1.0  0.97268  0.14127  0.65079  1.0000
  N   N10       1.0  0.02731  0.64126  0.34920  1.0000
  N   N11       1.0  0.52733  0.14126  0.15079  1.0000
  N   N12       1.0  0.47265  0.64127  0.84921  1.0000
  N   N13       1.0  0.78764  0.98530  0.56101  1.0000
  N   N14       1.0  0.21236  0.48530  0.43900  1.0000
  N   N15       1.0  0.71236  0.98529  0.06101  1.0000
  N   N16       1.0  0.28763  0.48531  0.93900  1.0000
  N   N17       1.0  0.76635  0.08307  0.46258  1.0000
  N   N18       1.0  0.23365  0.58307  0.53742  1.0000
  N   N19       1.0  0.73366  0.08307  0.96258  1.0000
  N   N20       1.0  0.26632  0.58307  0.03742  1.0000
  O   O1        1.0  0.66500  0.32156  0.41522  1.0000
  O   O2        1.0  0.33502  0.82157  0.58478  1.0000
  O   O3        1.0  0.83502  0.32156  0.91520  1.0000
  O   O4        1.0  0.16500  0.82157  0.08478  1.0000
  O   O5        1.0  0.91497  0.38456  0.38353  1.0000
  O   O6        1.0  0.08504  0.88455  0.61647  1.0000
  O   O7        1.0  0.58503  0.38456  0.88354  1.0000
  O   O8        1.0  0.41499  0.88456  0.11646  1.0000
  O   O9        1.0  0.52414  0.66989  0.19779  1.0000
  O   O10       1.0  0.47587  0.16989  0.80222  1.0000
  O   O11       1.0  0.97580  0.66990  0.69778  1.0000
  O   O12       1.0  0.02421  0.16990  0.30221  1.0000
  O   O13       1.0  0.27092  0.61066  0.23418  1.0000
  O   O14       1.0  0.72908  0.11065  0.76583  1.0000
  O   O15       1.0  0.22903  0.61070  0.73417  1.0000
  O   O16       1.0  0.77098  0.11070  0.26583  1.0000
