data_image0
_chemical_formula_structural       Zn4H32C56I12N20O16
_chemical_formula_sum              "Zn4 H32 C56 I12 N20 O16"
_cell_length_a       8.2693
_cell_length_b       14.2249
_cell_length_c       16.4053
_cell_angle_alpha    90.0001
_cell_angle_beta     89.9999
_cell_angle_gamma    90.0005

_space_group_name_H-M_alt    "P 1"
_space_group_IT_number       1

loop_
  _space_group_symop_operation_xyz
  'x, y, z'

loop_
  _atom_site_type_symbol
  _atom_site_label
  _atom_site_symmetry_multiplicity
  _atom_site_fract_x
  _atom_site_fract_y
  _atom_site_fract_z
  _atom_site_occupancy
  Zn  Zn1       1.0  0.64194  0.79713  0.09607  1.0000
  Zn  Zn2       1.0  0.35807  0.29713  0.90393  1.0000
  Zn  Zn3       1.0  0.85807  0.79713  0.59607  1.0000
  Zn  Zn4       1.0  0.14192  0.29712  0.40392  1.0000
  H   H1        1.0  0.86284  0.34175  0.91918  1.0000
  H   H2        1.0  0.13717  0.84175  0.08083  1.0000
  H   H3        1.0  0.63717  0.34175  0.41918  1.0000
  H   H4        1.0  0.36282  0.84176  0.58082  1.0000
  H   H5        1.0  0.00380  0.27038  0.96441  1.0000
  H   H6        1.0  0.99620  0.77038  0.03560  1.0000
  H   H7        1.0  0.49619  0.27038  0.46440  1.0000
  H   H8        1.0  0.50380  0.77039  0.53559  1.0000
  H   H9        1.0  0.54363  0.89342  0.81258  1.0000
  H   H10       1.0  0.45633  0.39341  0.18743  1.0000
  H   H11       1.0  0.95636  0.89340  0.31257  1.0000
  H   H12       1.0  0.04366  0.39340  0.68742  1.0000
  H   H13       1.0  0.68354  0.04566  0.88739  1.0000
  H   H14       1.0  0.31644  0.54565  0.11262  1.0000
  H   H15       1.0  0.81646  0.04564  0.38738  1.0000
  H   H16       1.0  0.18356  0.54564  0.61261  1.0000
  H   H17       1.0  0.35266  0.67901  0.96266  1.0000
  H   H18       1.0  0.64734  0.17902  0.03735  1.0000
  H   H19       1.0  0.14735  0.67901  0.46266  1.0000
  H   H20       1.0  0.85266  0.17900  0.53735  1.0000
  H   H21       1.0  0.32433  0.76310  0.81061  1.0000
  H   H22       1.0  0.67566  0.26311  0.18940  1.0000
  H   H23       1.0  0.17567  0.76309  0.31061  1.0000
  H   H24       1.0  0.82435  0.26309  0.68939  1.0000
  H   H25       1.0  0.88282  0.12438  0.98592  1.0000
  H   H26       1.0  0.11719  0.62437  0.01407  1.0000
  H   H27       1.0  0.61720  0.12437  0.48591  1.0000
  H   H28       1.0  0.38282  0.62436  0.51407  1.0000
  H   H29       1.0  0.89084  0.00463  0.12041  1.0000
  H   H30       1.0  0.10919  0.50464  0.87958  1.0000
  H   H31       1.0  0.60919  0.00464  0.62041  1.0000
  H   H32       1.0  0.39082  0.50463  0.37958  1.0000
  C   C1        1.0  0.72345  0.61028  0.10636  1.0000
  C   C2        1.0  0.27655  0.11029  0.89365  1.0000
  C   C3        1.0  0.77655  0.61028  0.60636  1.0000
  C   C4        1.0  0.22344  0.11029  0.39363  1.0000
  C   C5        1.0  0.82755  0.52190  0.10467  1.0000
  C   C6        1.0  0.17244  0.02190  0.89533  1.0000
  C   C7        1.0  0.67244  0.52190  0.60468  1.0000
  C   C8        1.0  0.32756  0.02190  0.39531  1.0000
  C   C9        1.0  0.92745  0.49872  0.17093  1.0000
  C   C10       1.0  0.07255  0.99871  0.82909  1.0000
  C   C11       1.0  0.57254  0.49871  0.67092  1.0000
  C   C12       1.0  0.42747  0.99872  0.32906  1.0000
  C   C13       1.0  0.00462  0.41111  0.17612  1.0000
  C   C14       1.0  0.99537  0.91112  0.82388  1.0000
  C   C15       1.0  0.49537  0.41111  0.67613  1.0000
  C   C16       1.0  0.50464  0.91112  0.32387  1.0000
  C   C17       1.0  0.98888  0.34864  0.11102  1.0000
  C   C18       1.0  0.01112  0.84865  0.88898  1.0000
  C   C19       1.0  0.51112  0.34864  0.61102  1.0000
  C   C20       1.0  0.48889  0.84863  0.38897  1.0000
  C   C21       1.0  0.90748  0.37317  0.03801  1.0000
  C   C22       1.0  0.09252  0.87318  0.96200  1.0000
  C   C23       1.0  0.59252  0.37317  0.53801  1.0000
  C   C24       1.0  0.40748  0.87318  0.46199  1.0000
  C   C25       1.0  0.82210  0.45959  0.03863  1.0000
  C   C26       1.0  0.17789  0.95960  0.96137  1.0000
  C   C27       1.0  0.67789  0.45960  0.53864  1.0000
  C   C28       1.0  0.32209  0.95960  0.46137  1.0000
  C   C29       1.0  0.10808  0.38392  0.24926  1.0000
  C   C30       1.0  0.89191  0.88393  0.75074  1.0000
  C   C31       1.0  0.39190  0.38392  0.74926  1.0000
  C   C32       1.0  0.60812  0.88393  0.25073  1.0000
  C   C33       1.0  0.41307  0.74056  0.93887  1.0000
  C   C34       1.0  0.58693  0.24057  0.06114  1.0000
  C   C35       1.0  0.08694  0.74055  0.43887  1.0000
  C   C36       1.0  0.91306  0.24055  0.56113  1.0000
  C   C37       1.0  0.40062  0.78023  0.86220  1.0000
  C   C38       1.0  0.59937  0.28023  0.13781  1.0000
  C   C39       1.0  0.09938  0.78021  0.36220  1.0000
  C   C40       1.0  0.90063  0.28022  0.63780  1.0000
  C   C41       1.0  0.56797  0.86398  0.93718  1.0000
  C   C42       1.0  0.43201  0.36398  0.06283  1.0000
  C   C43       1.0  0.93202  0.86397  0.43718  1.0000
  C   C44       1.0  0.06798  0.36397  0.56282  1.0000
  C   C45       1.0  0.67705  0.93219  0.96980  1.0000
  C   C46       1.0  0.32294  0.43218  0.03020  1.0000
  C   C47       1.0  0.82295  0.93218  0.46979  1.0000
  C   C48       1.0  0.17705  0.43218  0.53019  1.0000
  C   C49       1.0  0.82363  0.05768  0.99694  1.0000
  C   C50       1.0  0.17637  0.55768  0.00306  1.0000
  C   C51       1.0  0.67638  0.05767  0.49693  1.0000
  C   C52       1.0  0.32364  0.55767  0.50305  1.0000
  C   C53       1.0  0.82849  0.99713  0.06271  1.0000
  C   C54       1.0  0.17151  0.49713  0.93729  1.0000
  C   C55       1.0  0.67152  0.99713  0.56270  1.0000
  C   C56       1.0  0.32849  0.49712  0.43728  1.0000
  I   I1        1.0  0.69753  0.50012  0.93087  1.0000
  I   I2        1.0  0.30246  0.00012  0.06914  1.0000
  I   I3        1.0  0.80246  0.50013  0.43087  1.0000
  I   I4        1.0  0.19753  0.00013  0.56912  1.0000
  I   I5        1.0  0.97687  0.60113  0.26080  1.0000
  I   I6        1.0  0.02314  0.10113  0.73920  1.0000
  I   I7        1.0  0.52312  0.60113  0.76080  1.0000
  I   I8        1.0  0.47690  0.10113  0.23920  1.0000
  I   I9        1.0  0.09686  0.21427  0.11918  1.0000
  I   I10       1.0  0.90314  0.71427  0.88082  1.0000
  I   I11       1.0  0.40314  0.21427  0.61918  1.0000
  I   I12       1.0  0.59686  0.71428  0.38082  1.0000
  N   N1        1.0  0.90695  0.31405  0.97183  1.0000
  N   N2        1.0  0.09305  0.81405  0.02818  1.0000
  N   N3        1.0  0.59305  0.31405  0.47183  1.0000
  N   N4        1.0  0.40694  0.81406  0.52817  1.0000
  N   N5        1.0  0.51616  0.79369  0.98544  1.0000
  N   N6        1.0  0.48383  0.29369  0.01457  1.0000
  N   N7        1.0  0.98384  0.79368  0.48544  1.0000
  N   N8        1.0  0.01616  0.29368  0.51456  1.0000
  N   N9        1.0  0.50056  0.85781  0.86239  1.0000
  N   N10       1.0  0.49941  0.35781  0.13762  1.0000
  N   N11       1.0  0.99943  0.85779  0.36238  1.0000
  N   N12       1.0  0.00058  0.35780  0.63762  1.0000
  N   N13       1.0  0.72665  0.01560  0.93936  1.0000
  N   N14       1.0  0.27333  0.51560  0.06064  1.0000
  N   N15       1.0  0.77335  0.01559  0.43935  1.0000
  N   N16       1.0  0.22666  0.51559  0.56063  1.0000
  N   N17       1.0  0.73817  0.91887  0.04473  1.0000
  N   N18       1.0  0.26183  0.41887  0.95527  1.0000
  N   N19       1.0  0.76183  0.91886  0.54473  1.0000
  N   N20       1.0  0.23817  0.41886  0.45526  1.0000
  O   O1        1.0  0.79711  0.68971  0.09383  1.0000
  O   O2        1.0  0.20290  0.18971  0.90618  1.0000
  O   O3        1.0  0.70291  0.68970  0.59383  1.0000
  O   O4        1.0  0.29709  0.18971  0.40617  1.0000
  O   O5        1.0  0.57601  0.60204  0.12061  1.0000
  O   O6        1.0  0.42399  0.10205  0.87940  1.0000
  O   O7        1.0  0.92398  0.60204  0.62061  1.0000
  O   O8        1.0  0.07600  0.10204  0.37938  1.0000
  O   O9        1.0  0.03116  0.33582  0.30368  1.0000
  O   O10       1.0  0.96882  0.83582  0.69633  1.0000
  O   O11       1.0  0.46882  0.33582  0.80368  1.0000
  O   O12       1.0  0.53120  0.83582  0.19632  1.0000
  O   O13       1.0  0.25348  0.40808  0.25148  1.0000
  O   O14       1.0  0.74651  0.90809  0.74853  1.0000
  O   O15       1.0  0.24651  0.40808  0.75148  1.0000
  O   O16       1.0  0.75352  0.90809  0.24853  1.0000
