data_image0
_chemical_formula_structural       Zn2H46C50N4O12
_chemical_formula_sum              "Zn2 H46 C50 N4 O12"
_cell_length_a       9.95927
_cell_length_b       10.8799
_cell_length_c       11.8682
_cell_angle_alpha    83.3858
_cell_angle_beta     77.4106
_cell_angle_gamma    65.0674

_space_group_name_H-M_alt    "P 1"
_space_group_IT_number       1

loop_
  _space_group_symop_operation_xyz
  'x, y, z'

loop_
  _atom_site_type_symbol
  _atom_site_label
  _atom_site_symmetry_multiplicity
  _atom_site_fract_x
  _atom_site_fract_y
  _atom_site_fract_z
  _atom_site_occupancy
  Zn  Zn1       1.0  0.63545  0.25263  0.49633  1.0000
  Zn  Zn2       1.0  0.36455  0.74737  0.50367  1.0000
  H   H1        1.0  0.44469  0.44764  0.64781  1.0000
  H   H2        1.0  0.55531  0.55236  0.35219  1.0000
  H   H3        1.0  0.58416  0.47681  0.59684  1.0000
  H   H4        1.0  0.41584  0.52319  0.40316  1.0000
  H   H5        1.0  0.48619  0.08311  0.64232  1.0000
  H   H6        1.0  0.51381  0.91689  0.35768  1.0000
  H   H7        1.0  0.54501  0.90422  0.80031  1.0000
  H   H8        1.0  0.45499  0.09578  0.19969  1.0000
  H   H9        1.0  0.98638  0.90789  0.74799  1.0000
  H   H10       1.0  0.01362  0.09211  0.25201  1.0000
  H   H11       1.0  0.90645  0.09006  0.59685  1.0000
  H   H12       1.0  0.09355  0.90994  0.40314  1.0000
  H   H13       1.0  0.92819  0.72484  0.87245  1.0000
  H   H14       1.0  0.07181  0.27516  0.12755  1.0000
  H   H15       1.0  0.75053  0.71987  0.88357  1.0000
  H   H16       1.0  0.24947  0.28013  0.11644  1.0000
  H   H17       1.0  0.77924  0.94613  0.42761  1.0000
  H   H18       1.0  0.22076  0.05387  0.57239  1.0000
  H   H19       1.0  0.87333  0.81436  0.24865  1.0000
  H   H20       1.0  0.12667  0.18564  0.75135  1.0000
  H   H21       1.0  0.70198  0.19479  0.05927  1.0000
  H   H22       1.0  0.29802  0.80521  0.94073  1.0000
  H   H23       1.0  0.62493  0.31181  0.24542  1.0000
  H   H24       1.0  0.37507  0.68819  0.75458  1.0000
  H   H25       1.0  0.86058  0.99179  0.95310  1.0000
  H   H26       1.0  0.13942  0.00821  0.04690  1.0000
  H   H27       1.0  0.96878  0.84081  0.02309  1.0000
  H   H28       1.0  0.03122  0.15919  0.97691  1.0000
  H   H29       1.0  0.63577  0.92644  0.01483  1.0000
  H   H30       1.0  0.36423  0.07356  0.98517  1.0000
  H   H31       1.0  0.75648  0.77287  0.07313  1.0000
  H   H32       1.0  0.24352  0.22713  0.92688  1.0000
  H   H33       1.0  0.07606  0.27080  0.48886  1.0000
  H   H34       1.0  0.92394  0.72920  0.51114  1.0000
  H   H35       1.0  0.88189  0.55936  0.22711  1.0000
  H   H36       1.0  0.11811  0.44064  0.77289  1.0000
  H   H37       1.0  0.32210  0.48856  0.28540  1.0000
  H   H38       1.0  0.67789  0.51144  0.71460  1.0000
  H   H39       1.0  0.24621  0.69111  0.22923  1.0000
  H   H40       1.0  0.75379  0.30889  0.77076  1.0000
  H   H41       1.0  0.17862  0.77878  0.10383  1.0000
  H   H42       1.0  0.82138  0.22122  0.89617  1.0000
  H   H43       1.0  0.51097  0.63359  0.15132  1.0000
  H   H44       1.0  0.48903  0.36641  0.84868  1.0000
  H   H45       1.0  0.25309  0.51230  0.97530  1.0000
  H   H46       1.0  0.74691  0.48770  0.02470  1.0000
  C   C1        1.0  0.83091  0.37814  0.38161  1.0000
  C   C2        1.0  0.16909  0.62186  0.61839  1.0000
  C   C3        1.0  0.59385  0.04243  0.67147  1.0000
  C   C4        1.0  0.40615  0.95757  0.32853  1.0000
  C   C5        1.0  0.62832  0.94362  0.75854  1.0000
  C   C6        1.0  0.37168  0.05638  0.24146  1.0000
  C   C7        1.0  0.77009  0.89254  0.79001  1.0000
  C   C8        1.0  0.22991  0.10746  0.20999  1.0000
  C   C9        1.0  0.87269  0.94559  0.73011  1.0000
  C   C10       1.0  0.12731  0.05441  0.26989  1.0000
  C   C11       1.0  0.83029  0.04552  0.64472  1.0000
  C   C12       1.0  0.16971  0.95448  0.35528  1.0000
  C   C13       1.0  0.80613  0.78772  0.88600  1.0000
  C   C14       1.0  0.19387  0.21228  0.11400  1.0000
  C   C15       1.0  0.76880  0.99820  0.34379  1.0000
  C   C16       1.0  0.23120  0.00180  0.65622  1.0000
  C   C17       1.0  0.81907  0.92460  0.24326  1.0000
  C   C18       1.0  0.18093  0.07540  0.75675  1.0000
  C   C19       1.0  0.79963  0.99337  0.13674  1.0000
  C   C20       1.0  0.20037  0.00663  0.86326  1.0000
  C   C21       1.0  0.72484  0.13502  0.13845  1.0000
  C   C22       1.0  0.27516  0.86498  0.86155  1.0000
  C   C23       1.0  0.67905  0.20164  0.24213  1.0000
  C   C24       1.0  0.32095  0.79837  0.75788  1.0000
  C   C25       1.0  0.85402  0.91992  0.02511  1.0000
  C   C26       1.0  0.14598  0.08008  0.97490  1.0000
  C   C27       1.0  0.75392  0.85186  0.00574  1.0000
  C   C28       1.0  0.24608  0.14814  0.99427  1.0000
  C   C29       1.0  0.33730  0.30561  0.46041  1.0000
  C   C30       1.0  0.66270  0.69440  0.53958  1.0000
  C   C31       1.0  0.21044  0.37500  0.39504  1.0000
  C   C32       1.0  0.78956  0.62500  0.60496  1.0000
  C   C33       1.0  0.08387  0.34493  0.42098  1.0000
  C   C34       1.0  0.91613  0.65507  0.57902  1.0000
  C   C35       1.0  0.96677  0.41070  0.35926  1.0000
  C   C36       1.0  0.03323  0.58929  0.64073  1.0000
  C   C37       1.0  0.97493  0.50814  0.27342  1.0000
  C   C38       1.0  0.02507  0.49186  0.72657  1.0000
  C   C39       1.0  0.10199  0.53765  0.24748  1.0000
  C   C40       1.0  0.89801  0.46235  0.75252  1.0000
  C   C41       1.0  0.22072  0.46968  0.30678  1.0000
  C   C42       1.0  0.77928  0.53032  0.69322  1.0000
  C   C43       1.0  0.22332  0.67775  0.14578  1.0000
  C   C44       1.0  0.77668  0.32225  0.85422  1.0000
  C   C45       1.0  0.50594  0.57654  0.08369  1.0000
  C   C46       1.0  0.49405  0.42346  0.91631  1.0000
  C   C47       1.0  0.36601  0.58385  0.07120  1.0000
  C   C48       1.0  0.63399  0.41615  0.92879  1.0000
  C   C49       1.0  0.36138  0.50647  0.98676  1.0000
  C   C50       1.0  0.63862  0.49353  0.01323  1.0000
  N   N1        1.0  0.70215  0.13445  0.34363  1.0000
  N   N2        1.0  0.29785  0.86555  0.65637  1.0000
  N   N3        1.0  0.69307  0.09367  0.61579  1.0000
  N   N4        1.0  0.30693  0.90633  0.38421  1.0000
  O   O1        1.0  0.43377  0.36070  0.44643  1.0000
  O   O2        1.0  0.56623  0.63930  0.55357  1.0000
  O   O3        1.0  0.34644  0.20236  0.52166  1.0000
  O   O4        1.0  0.65357  0.79764  0.47833  1.0000
  O   O5        1.0  0.10158  0.63558  0.16269  1.0000
  O   O6        1.0  0.89842  0.36442  0.83731  1.0000
  O   O7        1.0  0.82575  0.28891  0.46168  1.0000
  O   O8        1.0  0.17425  0.71109  0.53832  1.0000
  O   O9        1.0  0.55705  0.39981  0.62955  1.0000
  O   O10       1.0  0.44295  0.60019  0.37045  1.0000
  O   O11       1.0  0.73192  0.43755  0.31979  1.0000
  O   O12       1.0  0.26808  0.56245  0.68021  1.0000
