data_image0
_chemical_formula_structural       Na4H8C12Cl4O12
_chemical_formula_sum              "Na4 H8 C12 Cl4 O12"
_cell_length_a       3.61578
_cell_length_b       8.86507
_cell_length_c       14.6273
_cell_angle_alpha    94.7308
_cell_angle_beta     89.9987
_cell_angle_gamma    89.9992

_space_group_name_H-M_alt    "P 1"
_space_group_IT_number       1

loop_
  _space_group_symop_operation_xyz
  'x, y, z'

loop_
  _atom_site_type_symbol
  _atom_site_label
  _atom_site_symmetry_multiplicity
  _atom_site_fract_x
  _atom_site_fract_y
  _atom_site_fract_z
  _atom_site_occupancy
  Na  Na1       1.0  0.50317  0.08095  0.78549  1.0000
  Na  Na2       1.0  0.00318  0.41905  0.71450  1.0000
  Na  Na3       1.0  0.49685  0.91905  0.21451  1.0000
  Na  Na4       1.0  0.99683  0.58095  0.28549  1.0000
  H   H1        1.0  0.93537  0.87646  0.74435  1.0000
  H   H2        1.0  0.43535  0.62354  0.75566  1.0000
  H   H3        1.0  0.06466  0.12354  0.25566  1.0000
  H   H4        1.0  0.56466  0.37646  0.24434  1.0000
  H   H5        1.0  0.06519  0.82092  0.83910  1.0000
  H   H6        1.0  0.56519  0.67910  0.66091  1.0000
  H   H7        1.0  0.93483  0.17908  0.16091  1.0000
  H   H8        1.0  0.43483  0.32091  0.33909  1.0000
  C   C1        1.0  0.46888  0.41220  0.91117  1.0000
  C   C2        1.0  0.96887  0.08779  0.58883  1.0000
  C   C3        1.0  0.53109  0.58779  0.08883  1.0000
  C   C4        1.0  0.03113  0.91219  0.41118  1.0000
  C   C5        1.0  0.67299  0.42415  0.07304  1.0000
  C   C6        1.0  0.17299  0.07583  0.42694  1.0000
  C   C7        1.0  0.32696  0.57584  0.92695  1.0000
  C   C8        1.0  0.82699  0.92416  0.57306  1.0000
  C   C9        1.0  0.63156  0.34644  0.98582  1.0000
  C   C10       1.0  0.13159  0.15357  0.51419  1.0000
  C   C11       1.0  0.36840  0.65357  0.01418  1.0000
  C   C12       1.0  0.86844  0.84644  0.48582  1.0000
  Cl  Cl1       1.0  0.78072  0.16106  0.97029  1.0000
  Cl  Cl2       1.0  0.28070  0.33894  0.52970  1.0000
  Cl  Cl3       1.0  0.21926  0.83894  0.02970  1.0000
  Cl  Cl4       1.0  0.71931  0.66106  0.47031  1.0000
  O   O1        1.0  0.02380  0.91280  0.80618  1.0000
  O   O2        1.0  0.52381  0.58721  0.69383  1.0000
  O   O3        1.0  0.97622  0.08722  0.19383  1.0000
  O   O4        1.0  0.47622  0.41278  0.30617  1.0000
  O   O5        1.0  0.82512  0.36860  0.14078  1.0000
  O   O6        1.0  0.32513  0.13140  0.35921  1.0000
  O   O7        1.0  0.17485  0.63140  0.85921  1.0000
  O   O8        1.0  0.67485  0.86861  0.64079  1.0000
  O   O9        1.0  0.43292  0.34614  0.83139  1.0000
  O   O10       1.0  0.93295  0.15388  0.66861  1.0000
  O   O11       1.0  0.56702  0.65387  0.16861  1.0000
  O   O12       1.0  0.06710  0.84612  0.33139  1.0000
