data_image0
_chemical_formula_structural       Zn2H36C46N12Cl4O8
_chemical_formula_sum              "Zn2 H36 C46 N12 Cl4 O8"
_cell_length_a       9.92069
_cell_length_b       10.9014
_cell_length_c       15.2512
_cell_angle_alpha    69.8205
_cell_angle_beta     81.2658
_cell_angle_gamma    72.7157

_space_group_name_H-M_alt    "P 1"
_space_group_IT_number       1

loop_
  _space_group_symop_operation_xyz
  'x, y, z'

loop_
  _atom_site_type_symbol
  _atom_site_label
  _atom_site_symmetry_multiplicity
  _atom_site_fract_x
  _atom_site_fract_y
  _atom_site_fract_z
  _atom_site_occupancy
  Zn  Zn1       1.0  0.63107  0.31327  0.39245  1.0000
  Zn  Zn2       1.0  0.36894  0.68673  0.60755  1.0000
  H   H1        1.0  0.68316  0.50761  0.49347  1.0000
  H   H2        1.0  0.31684  0.49239  0.50653  1.0000
  H   H3        1.0  0.74755  0.52280  0.21049  1.0000
  H   H4        1.0  0.25246  0.47720  0.78951  1.0000
  H   H5        1.0  0.81888  0.74235  0.22921  1.0000
  H   H6        1.0  0.18113  0.25765  0.77078  1.0000
  H   H7        1.0  0.69733  0.74130  0.47759  1.0000
  H   H8        1.0  0.30267  0.25871  0.52241  1.0000
  H   H9        1.0  0.75021  0.84551  0.36848  1.0000
  H   H10       1.0  0.24979  0.15449  0.63152  1.0000
  H   H11       1.0  0.00427  0.70494  0.39127  1.0000
  H   H12       1.0  0.99573  0.29507  0.60873  1.0000
  H   H13       1.0  0.95016  0.59700  0.49844  1.0000
  H   H14       1.0  0.04983  0.40300  0.50156  1.0000
  H   H15       1.0  0.87346  0.78311  0.56695  1.0000
  H   H16       1.0  0.12654  0.21689  0.43305  1.0000
  H   H17       1.0  0.05391  0.76093  0.52317  1.0000
  H   H18       1.0  0.94609  0.23907  0.47684  1.0000
  H   H19       1.0  0.71659  0.00989  0.51890  1.0000
  H   H20       1.0  0.28341  0.99011  0.48110  1.0000
  H   H21       1.0  0.91660  0.20424  0.26621  1.0000
  H   H22       1.0  0.08340  0.79576  0.73379  1.0000
  H   H23       1.0  0.07772  0.93497  0.33861  1.0000
  H   H24       1.0  0.92229  0.06503  0.66140  1.0000
  H   H25       1.0  0.00799  0.51944  0.15855  1.0000
  H   H26       1.0  0.99201  0.48055  0.84145  1.0000
  H   H27       1.0  0.33529  0.39713  0.96206  1.0000
  H   H28       1.0  0.66471  0.60287  0.03794  1.0000
  H   H29       1.0  0.51745  0.35454  0.07496  1.0000
  H   H30       1.0  0.48255  0.64547  0.92504  1.0000
  H   H31       1.0  0.49987  0.92417  0.86210  1.0000
  H   H32       1.0  0.50013  0.07582  0.13790  1.0000
  H   H33       1.0  0.57244  0.28179  0.88555  1.0000
  H   H34       1.0  0.42756  0.71820  0.11445  1.0000
  H   H35       1.0  0.63098  0.35966  0.71286  1.0000
  H   H36       1.0  0.36901  0.64034  0.28714  1.0000
  C   C1        1.0  0.70924  0.54026  0.41897  1.0000
  C   C2        1.0  0.29077  0.45975  0.58103  1.0000
  C   C3        1.0  0.74659  0.55232  0.27158  1.0000
  C   C4        1.0  0.25341  0.44768  0.72842  1.0000
  C   C5        1.0  0.78062  0.66073  0.28010  1.0000
  C   C6        1.0  0.21938  0.33927  0.71990  1.0000
  C   C7        1.0  0.77617  0.74264  0.41857  1.0000
  C   C8        1.0  0.22383  0.25736  0.58142  1.0000
  C   C9        1.0  0.92609  0.70167  0.45084  1.0000
  C   C10       1.0  0.07390  0.29833  0.54916  1.0000
  C   C11       1.0  0.94427  0.79109  0.50364  1.0000
  C   C12       1.0  0.05573  0.20891  0.49637  1.0000
  C   C13       1.0  0.79182  0.02833  0.45943  1.0000
  C   C14       1.0  0.20818  0.97167  0.54057  1.0000
  C   C15       1.0  0.89947  0.12411  0.32931  1.0000
  C   C16       1.0  0.10053  0.87589  0.67069  1.0000
  C   C17       1.0  0.97929  0.99237  0.36336  1.0000
  C   C18       1.0  0.02072  0.00763  0.63664  1.0000
  C   C19       1.0  0.36687  0.40897  0.18004  1.0000
  C   C20       1.0  0.63313  0.59103  0.81996  1.0000
  C   C21       1.0  0.22140  0.45707  0.20239  1.0000
  C   C22       1.0  0.77861  0.54293  0.79762  1.0000
  C   C23       1.0  0.11956  0.48148  0.14088  1.0000
  C   C24       1.0  0.88044  0.51851  0.85913  1.0000
  C   C25       1.0  0.16069  0.45818  0.05444  1.0000
  C   C26       1.0  0.83931  0.54181  0.94557  1.0000
  C   C27       1.0  0.30458  0.41204  0.03010  1.0000
  C   C28       1.0  0.69542  0.58797  0.96990  1.0000
  C   C29       1.0  0.40488  0.38867  0.09247  1.0000
  C   C30       1.0  0.59512  0.61133  0.90753  1.0000
  C   C31       1.0  0.48543  0.37837  0.24179  1.0000
  C   C32       1.0  0.51457  0.62162  0.75821  1.0000
  C   C33       1.0  0.59248  0.19002  0.68957  1.0000
  C   C34       1.0  0.40751  0.80999  0.31043  1.0000
  C   C35       1.0  0.55350  0.06764  0.73270  1.0000
  C   C36       1.0  0.44650  0.93236  0.26730  1.0000
  C   C37       1.0  0.52560  0.02082  0.82867  1.0000
  C   C38       1.0  0.47440  0.97917  0.17133  1.0000
  C   C39       1.0  0.53332  0.09854  0.88368  1.0000
  C   C40       1.0  0.46667  0.90146  0.11632  1.0000
  C   C41       1.0  0.56813  0.22249  0.84177  1.0000
  C   C42       1.0  0.43186  0.77751  0.15824  1.0000
  C   C43       1.0  0.59933  0.26579  0.74603  1.0000
  C   C44       1.0  0.40067  0.73421  0.25397  1.0000
  C   C45       1.0  0.63695  0.24169  0.58778  1.0000
  C   C46       1.0  0.36304  0.75831  0.41222  1.0000
  N   N1        1.0  0.75562  0.65169  0.37357  1.0000
  N   N2        1.0  0.24438  0.34831  0.62643  1.0000
  N   N3        1.0  0.70245  0.47773  0.35906  1.0000
  N   N4        1.0  0.29756  0.52228  0.64094  1.0000
  N   N5        1.0  0.90926  0.93378  0.44589  1.0000
  N   N6        1.0  0.09074  0.06622  0.55411  1.0000
  N   N7        1.0  0.78310  0.14504  0.39015  1.0000
  N   N8        1.0  0.21690  0.85496  0.60985  1.0000
  N   N9        1.0  0.06462  0.48015  0.98765  1.0000
  N   N10       1.0  0.93538  0.51985  0.01235  1.0000
  N   N11       1.0  0.50973  0.05869  0.98168  1.0000
  N   N12       1.0  0.49027  0.94130  0.01832  1.0000
  Cl  Cl1       1.0  0.16006  0.49548  0.30555  1.0000
  Cl  Cl2       1.0  0.83994  0.50452  0.69445  1.0000
  Cl  Cl3       1.0  0.54578  0.96473  0.66890  1.0000
  Cl  Cl4       1.0  0.45422  0.03527  0.33110  1.0000
  O   O1        1.0  0.45561  0.34445  0.33131  1.0000
  O   O2        1.0  0.54439  0.65554  0.66869  1.0000
  O   O3        1.0  0.60575  0.38495  0.20459  1.0000
  O   O4        1.0  0.39426  0.61505  0.79541  1.0000
  O   O5        1.0  0.55322  0.25344  0.52667  1.0000
  O   O6        1.0  0.44678  0.74655  0.47333  1.0000
  O   O7        1.0  0.75263  0.27203  0.56956  1.0000
  O   O8        1.0  0.24736  0.72798  0.43045  1.0000
