data_image0
_chemical_formula_structural       Ag4H24C40N16
_chemical_formula_sum              "Ag4 H24 C40 N16"
_cell_length_a       5.2305
_cell_length_b       7.79699
_cell_length_c       24.3481
_cell_angle_alpha    97.1411
_cell_angle_beta     93.1234
_cell_angle_gamma    103.957

_space_group_name_H-M_alt    "P 1"
_space_group_IT_number       1

loop_
  _space_group_symop_operation_xyz
  'x, y, z'

loop_
  _atom_site_type_symbol
  _atom_site_label
  _atom_site_symmetry_multiplicity
  _atom_site_fract_x
  _atom_site_fract_y
  _atom_site_fract_z
  _atom_site_occupancy
  Ag  Ag1       1.0  0.72737  0.35766  0.54439  1.0000
  Ag  Ag2       1.0  0.27263  0.64234  0.45562  1.0000
  Ag  Ag3       1.0  0.20298  0.32967  0.95452  1.0000
  Ag  Ag4       1.0  0.79702  0.67033  0.04548  1.0000
  H   H1        1.0  0.25796  0.02578  0.48367  1.0000
  H   H2        1.0  0.74204  0.97422  0.51633  1.0000
  H   H3        1.0  0.95532  0.91752  0.39642  1.0000
  H   H4        1.0  0.04468  0.08248  0.60358  1.0000
  H   H5        1.0  0.56808  0.21205  0.30791  1.0000
  H   H6        1.0  0.43192  0.78795  0.69209  1.0000
  H   H7        1.0  0.85298  0.29759  0.39852  1.0000
  H   H8        1.0  0.14702  0.70241  0.60148  1.0000
  H   H9        1.0  0.64645  0.97700  0.10900  1.0000
  H   H10       1.0  0.35355  0.02301  0.89100  1.0000
  H   H11       1.0  0.77568  0.09884  0.02110  1.0000
  H   H12       1.0  0.22432  0.90116  0.97890  1.0000
  H   H13       1.0  0.53636  0.34003  0.09057  1.0000
  H   H14       1.0  0.46364  0.65997  0.90943  1.0000
  H   H15       1.0  0.43772  0.23030  0.18212  1.0000
  H   H16       1.0  0.56229  0.76971  0.81788  1.0000
  H   H17       1.0  0.27249  0.71682  0.16509  1.0000
  H   H18       1.0  0.72750  0.28317  0.83491  1.0000
  H   H19       1.0  0.84713  0.49190  0.16817  1.0000
  H   H20       1.0  0.15286  0.50810  0.83183  1.0000
  H   H21       1.0  0.05731  0.41785  0.32846  1.0000
  H   H22       1.0  0.94270  0.58216  0.67154  1.0000
  H   H23       1.0  0.48852  0.64277  0.33249  1.0000
  H   H24       1.0  0.51148  0.35724  0.66750  1.0000
  C   C1        1.0  0.35083  0.37036  0.55350  1.0000
  C   C2        1.0  0.64916  0.62964  0.44650  1.0000
  C   C3        1.0  0.81935  0.33438  0.94444  1.0000
  C   C4        1.0  0.18065  0.66562  0.05556  1.0000
  C   C5        1.0  0.32220  0.06153  0.44375  1.0000
  C   C6        1.0  0.67780  0.93847  0.55625  1.0000
  C   C7        1.0  0.15244  0.00276  0.39555  1.0000
  C   C8        1.0  0.84756  0.99724  0.60445  1.0000
  C   C9        1.0  0.23933  0.05579  0.34546  1.0000
  C   C10       1.0  0.76067  0.94420  0.65454  1.0000
  C   C11       1.0  0.49532  0.16521  0.34592  1.0000
  C   C12       1.0  0.50468  0.83479  0.65408  1.0000
  C   C13       1.0  0.65208  0.21346  0.39626  1.0000
  C   C14       1.0  0.34792  0.78654  0.60374  1.0000
  C   C15       1.0  0.06023  0.99755  0.29386  1.0000
  C   C16       1.0  0.93977  0.00244  0.70614  1.0000
  C   C17       1.0  0.66876  0.83344  0.24906  1.0000
  C   C18       1.0  0.33125  0.16656  0.75094  1.0000
  C   C19       1.0  0.96168  0.01814  0.20356  1.0000
  C   C20       1.0  0.03832  0.98186  0.79644  1.0000
  C   C21       1.0  0.03383  0.09232  0.15191  1.0000
  C   C22       1.0  0.96617  0.90768  0.84809  1.0000
  C   C23       1.0  0.84584  0.05587  0.10606  1.0000
  C   C24       1.0  0.15417  0.94414  0.89394  1.0000
  C   C25       1.0  0.91842  0.12372  0.05743  1.0000
  C   C26       1.0  0.08158  0.87628  0.94257  1.0000
  C   C27       1.0  0.34125  0.25780  0.09627  1.0000
  C   C28       1.0  0.65875  0.74220  0.90373  1.0000
  C   C29       1.0  0.28745  0.19744  0.14701  1.0000
  C   C30       1.0  0.71256  0.80256  0.85299  1.0000
  C   C31       1.0  0.41474  0.69872  0.24888  1.0000
  C   C32       1.0  0.58526  0.30128  0.75112  1.0000
  C   C33       1.0  0.23029  0.65415  0.20220  1.0000
  C   C34       1.0  0.76971  0.34584  0.79780  1.0000
  C   C35       1.0  0.99354  0.52734  0.20416  1.0000
  C   C36       1.0  0.00646  0.47266  0.79584  1.0000
  C   C37       1.0  0.10948  0.48677  0.29270  1.0000
  C   C38       1.0  0.89053  0.51323  0.70730  1.0000
  C   C39       1.0  0.35135  0.61236  0.29529  1.0000
  C   C40       1.0  0.64866  0.38764  0.70471  1.0000
  N   N1        1.0  0.12602  0.36875  0.55199  1.0000
  N   N2        1.0  0.87398  0.63125  0.44801  1.0000
  N   N3        1.0  0.59522  0.33303  0.94564  1.0000
  N   N4        1.0  0.40478  0.66698  0.05436  1.0000
  N   N5        1.0  0.56937  0.16435  0.44457  1.0000
  N   N6        1.0  0.43063  0.83565  0.55544  1.0000
  N   N7        1.0  0.82919  0.87842  0.29634  1.0000
  N   N8        1.0  0.17081  0.12158  0.70366  1.0000
  N   N9        1.0  0.72352  0.90300  0.20198  1.0000
  N   N10       1.0  0.27648  0.09700  0.79802  1.0000
  N   N11       1.0  0.13887  0.06812  0.24818  1.0000
  N   N12       1.0  0.86113  0.93188  0.75182  1.0000
  N   N13       1.0  0.16234  0.22140  0.05197  1.0000
  N   N14       1.0  0.83766  0.77860  0.94803  1.0000
  N   N15       1.0  0.93045  0.44293  0.24830  1.0000
  N   N16       1.0  0.06955  0.55708  0.75170  1.0000
