data_image0
_chemical_formula_structural       Ag4H24C28N16
_chemical_formula_sum              "Ag4 H24 C28 N16"
_cell_length_a       5.21448
_cell_length_b       12.3228
_cell_length_c       13.0791
_cell_angle_alpha    109.371
_cell_angle_beta     89.9999
_cell_angle_gamma    90

_space_group_name_H-M_alt    "P 1"
_space_group_IT_number       1

loop_
  _space_group_symop_operation_xyz
  'x, y, z'

loop_
  _atom_site_type_symbol
  _atom_site_label
  _atom_site_symmetry_multiplicity
  _atom_site_fract_x
  _atom_site_fract_y
  _atom_site_fract_z
  _atom_site_occupancy
  Ag  Ag1       1.0  0.97567  0.55234  0.88669  1.0000
  Ag  Ag2       1.0  0.47569  0.44765  0.61331  1.0000
  Ag  Ag3       1.0  0.02432  0.44765  0.11331  1.0000
  Ag  Ag4       1.0  0.52433  0.55234  0.38669  1.0000
  H   H1        1.0  0.42387  0.34301  0.77789  1.0000
  H   H2        1.0  0.92387  0.65699  0.72211  1.0000
  H   H3        1.0  0.57613  0.65698  0.22211  1.0000
  H   H4        1.0  0.07613  0.34301  0.27789  1.0000
  H   H5        1.0  0.75868  0.24472  0.90626  1.0000
  H   H6        1.0  0.25868  0.75528  0.59374  1.0000
  H   H7        1.0  0.24132  0.75528  0.09374  1.0000
  H   H8        1.0  0.74131  0.24472  0.40626  1.0000
  H   H9        1.0  0.08043  0.98222  0.79026  1.0000
  H   H10       1.0  0.58043  0.01778  0.70974  1.0000
  H   H11       1.0  0.91957  0.01778  0.20974  1.0000
  H   H12       1.0  0.41957  0.98222  0.29026  1.0000
  H   H13       1.0  0.90573  0.05295  0.90925  1.0000
  H   H14       1.0  0.40572  0.94705  0.59075  1.0000
  H   H15       1.0  0.09428  0.94704  0.09075  1.0000
  H   H16       1.0  0.59427  0.05296  0.40925  1.0000
  H   H17       1.0  0.34739  0.20156  0.04474  1.0000
  H   H18       1.0  0.84739  0.79845  0.45526  1.0000
  H   H19       1.0  0.65261  0.79844  0.95525  1.0000
  H   H20       1.0  0.15260  0.20156  0.54474  1.0000
  H   H21       1.0  0.31323  0.84429  0.84483  1.0000
  H   H22       1.0  0.81323  0.15572  0.65517  1.0000
  H   H23       1.0  0.68677  0.15571  0.15517  1.0000
  H   H24       1.0  0.18677  0.84429  0.34483  1.0000
  C   C1        1.0  0.35936  0.57774  0.89014  1.0000
  C   C2        1.0  0.85939  0.42226  0.60986  1.0000
  C   C3        1.0  0.64062  0.42226  0.10986  1.0000
  C   C4        1.0  0.14064  0.57774  0.39014  1.0000
  C   C5        1.0  0.28591  0.29381  0.80692  1.0000
  C   C6        1.0  0.78592  0.70618  0.69308  1.0000
  C   C7        1.0  0.71409  0.70618  0.19308  1.0000
  C   C8        1.0  0.21408  0.29382  0.30692  1.0000
  C   C9        1.0  0.94848  0.24798  0.87341  1.0000
  C   C10       1.0  0.44848  0.75202  0.62659  1.0000
  C   C11       1.0  0.05152  0.75201  0.12659  1.0000
  C   C12       1.0  0.55151  0.24799  0.37341  1.0000
  C   C13       1.0  0.09254  0.05064  0.86940  1.0000
  C   C14       1.0  0.59253  0.94936  0.63060  1.0000
  C   C15       1.0  0.90746  0.94936  0.13059  1.0000
  C   C16       1.0  0.40746  0.05064  0.36940  1.0000
  C   C17       1.0  0.30620  0.02598  0.93656  1.0000
  C   C18       1.0  0.80619  0.97402  0.56344  1.0000
  C   C19       1.0  0.69381  0.97402  0.06344  1.0000
  C   C20       1.0  0.19380  0.02598  0.43656  1.0000
  C   C21       1.0  0.41285  0.11286  0.02451  1.0000
  C   C22       1.0  0.91285  0.88714  0.47549  1.0000
  C   C23       1.0  0.58716  0.88714  0.97549  1.0000
  C   C24       1.0  0.08715  0.11286  0.52451  1.0000
  C   C25       1.0  0.39530  0.91301  0.91280  1.0000
  C   C26       1.0  0.89529  0.08699  0.58720  1.0000
  C   C27       1.0  0.60471  0.08699  0.08720  1.0000
  C   C28       1.0  0.10470  0.91301  0.41280  1.0000
  N   N1        1.0  0.58391  0.57685  0.89233  1.0000
  N   N2        1.0  0.08394  0.42315  0.60768  1.0000
  N   N3        1.0  0.41608  0.42315  0.10768  1.0000
  N   N4        1.0  0.91610  0.57685  0.39233  1.0000
  N   N5        1.0  0.04766  0.33332  0.84421  1.0000
  N   N6        1.0  0.54766  0.66668  0.65579  1.0000
  N   N7        1.0  0.95234  0.66668  0.15579  1.0000
  N   N8        1.0  0.45233  0.33332  0.34421  1.0000
  N   N9        1.0  0.33844  0.18952  0.81063  1.0000
  N   N10       1.0  0.83844  0.81048  0.68937  1.0000
  N   N11       1.0  0.66156  0.81048  0.18937  1.0000
  N   N12       1.0  0.16155  0.18952  0.31063  1.0000
  N   N13       1.0  0.11998  0.16145  0.85338  1.0000
  N   N14       1.0  0.61998  0.83855  0.64662  1.0000
  N   N15       1.0  0.88002  0.83854  0.14662  1.0000
  N   N16       1.0  0.38002  0.16145  0.35338  1.0000
