data_image0
_chemical_formula_structural       CuH12C10N4Cl2O4
_chemical_formula_sum              "Cu1 H12 C10 N4 Cl2 O4"
_cell_length_a       5.09973
_cell_length_b       7.3859
_cell_length_c       9.92249
_cell_angle_alpha    73.0953
_cell_angle_beta     83.6239
_cell_angle_gamma    77.0733

_space_group_name_H-M_alt    "P 1"
_space_group_IT_number       1

loop_
  _space_group_symop_operation_xyz
  'x, y, z'

loop_
  _atom_site_type_symbol
  _atom_site_label
  _atom_site_symmetry_multiplicity
  _atom_site_fract_x
  _atom_site_fract_y
  _atom_site_fract_z
  _atom_site_occupancy
  Cu  Cu1       1.0  1.00000  0.00000  0.00000  1.0000
  H   H1        1.0  0.35043  0.27345  0.01700  1.0000
  H   H2        1.0  0.64957  0.72656  0.98300  1.0000
  H   H3        1.0  0.67688  0.14240  0.26076  1.0000
  H   H4        1.0  0.32312  0.85760  0.73924  1.0000
  H   H5        1.0  0.81670  0.42815  0.34692  1.0000
  H   H6        1.0  0.18330  0.57185  0.65309  1.0000
  H   H7        1.0  0.26044  0.51455  0.17157  1.0000
  H   H8        1.0  0.73956  0.48545  0.82843  1.0000
  H   H9        1.0  0.72617  0.08393  0.66065  1.0000
  H   H10       1.0  0.27383  0.91607  0.33935  1.0000
  H   H11       1.0  0.67190  0.33722  0.63573  1.0000
  H   H12       1.0  0.32809  0.66278  0.36428  1.0000
  C   C1        1.0  0.83920  0.21903  0.22074  1.0000
  C   C2        1.0  0.16080  0.78097  0.77926  1.0000
  C   C3        1.0  0.91306  0.36445  0.26397  1.0000
  C   C4        1.0  0.08693  0.63556  0.73603  1.0000
  C   C5        1.0  0.13890  0.40831  0.17848  1.0000
  C   C6        1.0  0.86110  0.59169  0.82152  1.0000
  C   C7        1.0  0.43443  0.18744  0.80832  1.0000
  C   C8        1.0  0.56557  0.81255  0.19168  1.0000
  C   C9        1.0  0.57164  0.21411  0.66093  1.0000
  C   C10       1.0  0.42837  0.78588  0.33907  1.0000
  N   N1        1.0  0.00944  0.17697  0.11510  1.0000
  N   N2        1.0  0.99056  0.82303  0.88490  1.0000
  N   N3        1.0  0.18989  0.29340  0.09130  1.0000
  N   N4        1.0  0.81011  0.70660  0.90870  1.0000
  Cl  Cl1       1.0  0.34983  0.25309  0.52343  1.0000
  Cl  Cl2       1.0  0.65017  0.74690  0.47657  1.0000
  O   O1        1.0  0.20623  0.13909  0.82835  1.0000
  O   O2        1.0  0.79377  0.86091  0.17165  1.0000
  O   O3        1.0  0.56751  0.21390  0.89904  1.0000
  O   O4        1.0  0.43249  0.78610  0.10096  1.0000
