data_image0
_chemical_formula_structural       Cd4H24C20N8O20
_chemical_formula_sum              "Cd4 H24 C20 N8 O20"
_cell_length_a       7.72553
_cell_length_b       7.54454
_cell_length_c       14.0554
_cell_angle_alpha    90
_cell_angle_beta     90
_cell_angle_gamma    90.0001

_space_group_name_H-M_alt    "P 1"
_space_group_IT_number       1

loop_
  _space_group_symop_operation_xyz
  'x, y, z'

loop_
  _atom_site_type_symbol
  _atom_site_label
  _atom_site_symmetry_multiplicity
  _atom_site_fract_x
  _atom_site_fract_y
  _atom_site_fract_z
  _atom_site_occupancy
  Cd  Cd1       1.0  0.99826  0.25000  0.32394  1.0000
  Cd  Cd2       1.0  0.49826  0.25000  0.17606  1.0000
  Cd  Cd3       1.0  0.50174  0.75000  0.82394  1.0000
  Cd  Cd4       1.0  0.00174  0.75000  0.67606  1.0000
  H   H1        1.0  0.95479  0.90698  0.25709  1.0000
  H   H2        1.0  0.45479  0.90698  0.24291  1.0000
  H   H3        1.0  0.95479  0.59302  0.25709  1.0000
  H   H4        1.0  0.54521  0.40698  0.75709  1.0000
  H   H5        1.0  0.04521  0.09302  0.74291  1.0000
  H   H6        1.0  0.54521  0.09302  0.75709  1.0000
  H   H7        1.0  0.04521  0.40698  0.74291  1.0000
  H   H8        1.0  0.45479  0.59302  0.24291  1.0000
  H   H9        1.0  0.92391  0.90549  0.37286  1.0000
  H   H10       1.0  0.42391  0.90549  0.12714  1.0000
  H   H11       1.0  0.92391  0.59451  0.37286  1.0000
  H   H12       1.0  0.57610  0.40549  0.87286  1.0000
  H   H13       1.0  0.07609  0.09451  0.62714  1.0000
  H   H14       1.0  0.57610  0.09451  0.87286  1.0000
  H   H15       1.0  0.07609  0.40549  0.62714  1.0000
  H   H16       1.0  0.42391  0.59451  0.12714  1.0000
  H   H17       1.0  0.12205  0.90650  0.32976  1.0000
  H   H18       1.0  0.62206  0.90650  0.17024  1.0000
  H   H19       1.0  0.12205  0.59350  0.32976  1.0000
  H   H20       1.0  0.37795  0.40650  0.82976  1.0000
  H   H21       1.0  0.87795  0.09350  0.67024  1.0000
  H   H22       1.0  0.37795  0.09350  0.82976  1.0000
  H   H23       1.0  0.87795  0.40650  0.67024  1.0000
  H   H24       1.0  0.62205  0.59350  0.17024  1.0000
  C   C1        1.0  0.61559  0.25000  0.40485  1.0000
  C   C2        1.0  0.11559  0.25000  0.09515  1.0000
  C   C3        1.0  0.88442  0.75000  0.90485  1.0000
  C   C4        1.0  0.38441  0.75000  0.59515  1.0000
  C   C5        1.0  0.72245  0.25000  0.49037  1.0000
  C   C6        1.0  0.22245  0.25000  0.00963  1.0000
  C   C7        1.0  0.77755  0.75000  0.99038  1.0000
  C   C8        1.0  0.27755  0.75000  0.50963  1.0000
  C   C9        1.0  0.60511  0.25000  0.57252  1.0000
  C   C10       1.0  0.10511  0.25000  0.92748  1.0000
  C   C11       1.0  0.89489  0.75000  0.07253  1.0000
  C   C12       1.0  0.39488  0.75000  0.42748  1.0000
  C   C13       1.0  0.42337  0.25000  0.53726  1.0000
  C   C14       1.0  0.92337  0.25000  0.96274  1.0000
  C   C15       1.0  0.07663  0.75000  0.03726  1.0000
  C   C16       1.0  0.57663  0.75000  0.46274  1.0000
  C   C17       1.0  0.43210  0.25000  0.43137  1.0000
  C   C18       1.0  0.93209  0.25000  0.06863  1.0000
  C   C19       1.0  0.06791  0.75000  0.93137  1.0000
  C   C20       1.0  0.56790  0.75000  0.56863  1.0000
  N   N1        1.0  0.00025  0.95780  0.32018  1.0000
  N   N2        1.0  0.50025  0.95780  0.17983  1.0000
  N   N3        1.0  0.00024  0.54220  0.32018  1.0000
  N   N4        1.0  0.49976  0.45780  0.82018  1.0000
  N   N5        1.0  0.99975  0.04220  0.67982  1.0000
  N   N6        1.0  0.49975  0.04220  0.82017  1.0000
  N   N7        1.0  0.99975  0.45780  0.67982  1.0000
  N   N8        1.0  0.50025  0.54220  0.17982  1.0000
  O   O1        1.0  0.67568  0.25000  0.32107  1.0000
  O   O2        1.0  0.17567  0.25000  0.17893  1.0000
  O   O3        1.0  0.82433  0.75000  0.82108  1.0000
  O   O4        1.0  0.32432  0.75000  0.67893  1.0000
  O   O5        1.0  0.88545  0.25000  0.49180  1.0000
  O   O6        1.0  0.38545  0.25000  0.00820  1.0000
  O   O7        1.0  0.61455  0.75000  0.99180  1.0000
  O   O8        1.0  0.11455  0.75000  0.50820  1.0000
  O   O9        1.0  0.65212  0.25000  0.65838  1.0000
  O   O10       1.0  0.15211  0.25000  0.84161  1.0000
  O   O11       1.0  0.84789  0.75000  0.15839  1.0000
  O   O12       1.0  0.34788  0.75000  0.34161  1.0000
  O   O13       1.0  0.29144  0.25000  0.58821  1.0000
  O   O14       1.0  0.79144  0.25000  0.91179  1.0000
  O   O15       1.0  0.20856  0.75000  0.08821  1.0000
  O   O16       1.0  0.70856  0.75000  0.41179  1.0000
  O   O17       1.0  0.31083  0.25000  0.37213  1.0000
  O   O18       1.0  0.81083  0.25000  0.12787  1.0000
  O   O19       1.0  0.18917  0.75000  0.87213  1.0000
  O   O20       1.0  0.68916  0.75000  0.62787  1.0000
