data_image0
_chemical_formula_structural       H18Pb2C18S2N2O12
_chemical_formula_sum              "H18 Pb2 C18 S2 N2 O12"
_cell_length_a       7.21619
_cell_length_b       7.80757
_cell_length_c       12.4663
_cell_angle_alpha    88.635
_cell_angle_beta     75.5321
_cell_angle_gamma    64.3732

_space_group_name_H-M_alt    "P 1"
_space_group_IT_number       1

loop_
  _space_group_symop_operation_xyz
  'x, y, z'

loop_
  _atom_site_type_symbol
  _atom_site_label
  _atom_site_symmetry_multiplicity
  _atom_site_fract_x
  _atom_site_fract_y
  _atom_site_fract_z
  _atom_site_occupancy
  H   H1        1.0  0.22902  0.54890  0.25748  1.0000
  H   H2        1.0  0.77101  0.45112  0.74254  1.0000
  H   H3        1.0  0.00131  0.56281  0.25606  1.0000
  H   H4        1.0  0.99872  0.43724  0.74394  1.0000
  H   H5        1.0  0.14219  0.29072  0.33008  1.0000
  H   H6        1.0  0.85775  0.70929  0.66993  1.0000
  H   H7        1.0  0.00479  0.35617  0.53724  1.0000
  H   H8        1.0  0.99520  0.64380  0.46277  1.0000
  H   H9        1.0  0.11781  0.09659  0.65802  1.0000
  H   H10       1.0  0.88216  0.90337  0.34199  1.0000
  H   H11       1.0  0.36527  0.75926  0.57516  1.0000
  H   H12       1.0  0.63477  0.24072  0.42482  1.0000
  H   H13       1.0  0.17031  0.84923  0.77113  1.0000
  H   H14       1.0  0.82961  0.15073  0.22888  1.0000
  H   H15       1.0  0.21010  0.98183  0.87015  1.0000
  H   H16       1.0  0.78988  0.01814  0.12982  1.0000
  H   H17       1.0  0.94997  0.99491  0.88159  1.0000
  H   H18       1.0  0.04998  0.00510  0.11843  1.0000
  Pb  Pb1       1.0  0.31287  0.34309  0.02597  1.0000
  Pb  Pb2       1.0  0.68710  0.65692  0.97406  1.0000
  C   C1        1.0  0.42988  0.91629  0.21798  1.0000
  C   C2        1.0  0.57016  0.08370  0.78201  1.0000
  C   C3        1.0  0.32882  0.99088  0.33798  1.0000
  C   C4        1.0  0.67119  0.00913  0.66201  1.0000
  C   C5        1.0  0.19115  0.17700  0.38383  1.0000
  C   C6        1.0  0.80880  0.82300  0.61617  1.0000
  C   C7        1.0  0.11548  0.21192  0.49963  1.0000
  C   C8        1.0  0.88447  0.78804  0.50037  1.0000
  C   C9        1.0  0.17847  0.06397  0.56795  1.0000
  C   C10       1.0  0.82153  0.93599  0.43204  1.0000
  C   C11       1.0  0.31601  0.87555  0.52265  1.0000
  C   C12       1.0  0.68403  0.12443  0.47734  1.0000
  C   C13       1.0  0.38672  0.84441  0.40749  1.0000
  C   C14       1.0  0.61327  0.15560  0.59249  1.0000
  C   C15       1.0  0.17411  0.73066  0.92450  1.0000
  C   C16       1.0  0.82588  0.26934  0.07552  1.0000
  C   C17       1.0  0.12183  0.90235  0.85940  1.0000
  C   C18       1.0  0.87813  0.09765  0.14060  1.0000
  S   S1        1.0  0.54962  0.62842  0.31951  1.0000
  S   S2        1.0  0.45042  0.37159  0.68048  1.0000
  N   N1        1.0  0.55146  0.72431  0.20265  1.0000
  N   N2        1.0  0.44859  0.27570  0.79735  1.0000
  O   O1        1.0  0.12978  0.57172  0.21085  1.0000
  O   O2        1.0  0.87027  0.42833  0.78915  1.0000
  O   O3        1.0  0.40851  0.01681  0.13768  1.0000
  O   O4        1.0  0.59149  0.98319  0.86231  1.0000
  O   O5        1.0  0.44061  0.50576  0.33046  1.0000
  O   O6        1.0  0.55951  0.49417  0.66953  1.0000
  O   O7        1.0  0.76361  0.53435  0.33574  1.0000
  O   O8        1.0  0.23643  0.46580  0.66423  1.0000
  O   O9        1.0  0.34771  0.65810  0.95358  1.0000
  O   O10       1.0  0.65234  0.34185  0.04639  1.0000
  O   O11       1.0  0.04842  0.65204  0.94728  1.0000
  O   O12       1.0  0.95152  0.34800  0.05279  1.0000
