data_image0
_chemical_formula_structural       Cd4H16C16N32
_chemical_formula_sum              "Cd4 H16 C16 N32"
_cell_length_a       8.6795
_cell_length_b       8.80006
_cell_length_c       10.1362
_cell_angle_alpha    90
_cell_angle_beta     91.3748
_cell_angle_gamma    90

_space_group_name_H-M_alt    "P 1"
_space_group_IT_number       1

loop_
  _space_group_symop_operation_xyz
  'x, y, z'

loop_
  _atom_site_type_symbol
  _atom_site_label
  _atom_site_symmetry_multiplicity
  _atom_site_fract_x
  _atom_site_fract_y
  _atom_site_fract_z
  _atom_site_occupancy
  Cd  Cd1       1.0  0.00608  0.68452  0.63008  1.0000
  Cd  Cd2       1.0  0.49392  0.18452  0.86992  1.0000
  Cd  Cd3       1.0  0.99392  0.31548  0.36992  1.0000
  Cd  Cd4       1.0  0.50608  0.81548  0.13008  1.0000
  H   H1        1.0  0.33992  0.17044  0.41134  1.0000
  H   H2        1.0  0.16008  0.67044  0.08866  1.0000
  H   H3        1.0  0.66008  0.82956  0.58866  1.0000
  H   H4        1.0  0.83992  0.32956  0.91134  1.0000
  H   H5        1.0  0.48268  0.16133  0.52881  1.0000
  H   H6        1.0  0.01732  0.66133  0.97119  1.0000
  H   H7        1.0  0.51732  0.83867  0.47119  1.0000
  H   H8        1.0  0.98268  0.33867  0.02881  1.0000
  H   H9        1.0  0.22522  0.47022  0.84175  1.0000
  H   H10       1.0  0.27478  0.97022  0.65825  1.0000
  H   H11       1.0  0.77478  0.52978  0.15825  1.0000
  H   H12       1.0  0.72522  0.02978  0.34175  1.0000
  H   H13       1.0  0.82632  0.89671  0.89369  1.0000
  H   H14       1.0  0.67368  0.39671  0.60631  1.0000
  H   H15       1.0  0.17368  0.10329  0.10631  1.0000
  H   H16       1.0  0.32632  0.60329  0.39369  1.0000
  C   C1        1.0  0.29549  0.28064  0.58270  1.0000
  C   C2        1.0  0.20451  0.78064  0.91730  1.0000
  C   C3        1.0  0.70451  0.71936  0.41730  1.0000
  C   C4        1.0  0.79549  0.21936  0.08270  1.0000
  C   C5        1.0  0.22970  0.41722  0.74509  1.0000
  C   C6        1.0  0.27030  0.91722  0.75491  1.0000
  C   C7        1.0  0.77031  0.58278  0.25491  1.0000
  C   C8        1.0  0.72969  0.08278  0.24509  1.0000
  C   C9        1.0  0.63708  0.58932  0.90408  1.0000
  C   C10       1.0  0.86291  0.08932  0.59592  1.0000
  C   C11       1.0  0.36291  0.41068  0.09591  1.0000
  C   C12       1.0  0.13709  0.91068  0.40408  1.0000
  C   C13       1.0  0.77604  0.78434  0.88374  1.0000
  C   C14       1.0  0.72396  0.28434  0.61626  1.0000
  C   C15       1.0  0.22396  0.21566  0.11626  1.0000
  C   C16       1.0  0.27604  0.71566  0.38374  1.0000
  N   N1        1.0  0.13430  0.45419  0.64590  1.0000
  N   N2        1.0  0.36570  0.95419  0.85410  1.0000
  N   N3        1.0  0.86571  0.54581  0.35411  1.0000
  N   N4        1.0  0.63430  0.04581  0.14589  1.0000
  N   N5        1.0  0.17673  0.36636  0.53889  1.0000
  N   N6        1.0  0.32327  0.86636  0.96111  1.0000
  N   N7        1.0  0.82327  0.63364  0.46111  1.0000
  N   N8        1.0  0.67673  0.13364  0.03889  1.0000
  N   N9        1.0  0.33213  0.30820  0.71181  1.0000
  N   N10       1.0  0.16787  0.80820  0.78819  1.0000
  N   N11       1.0  0.66788  0.69180  0.28820  1.0000
  N   N12       1.0  0.83213  0.19180  0.21180  1.0000
  N   N13       1.0  0.36755  0.17061  0.50951  1.0000
  N   N14       1.0  0.13245  0.67061  0.99049  1.0000
  N   N15       1.0  0.63245  0.82939  0.49049  1.0000
  N   N16       1.0  0.86755  0.32939  0.00951  1.0000
  N   N17       1.0  0.81344  0.68559  0.78651  1.0000
  N   N18       1.0  0.68655  0.18559  0.71349  1.0000
  N   N19       1.0  0.18655  0.31441  0.21349  1.0000
  N   N20       1.0  0.31345  0.81441  0.28651  1.0000
  N   N21       1.0  0.72444  0.56040  0.79935  1.0000
  N   N22       1.0  0.77556  0.06040  0.70065  1.0000
  N   N23       1.0  0.27556  0.43960  0.20065  1.0000
  N   N24       1.0  0.22444  0.93960  0.29935  1.0000
  N   N25       1.0  0.66586  0.72808  0.95977  1.0000
  N   N26       1.0  0.83414  0.22808  0.54023  1.0000
  N   N27       1.0  0.33414  0.27192  0.04023  1.0000
  N   N28       1.0  0.16586  0.77192  0.45977  1.0000
  N   N29       1.0  0.53729  0.48056  0.94905  1.0000
  N   N30       1.0  0.96271  0.98056  0.55095  1.0000
  N   N31       1.0  0.46271  0.51944  0.05095  1.0000
  N   N32       1.0  0.03729  0.01944  0.44905  1.0000
