data_image0
_chemical_formula_structural       CdAg2H12C8N16
_chemical_formula_sum              "Cd1 Ag2 H12 C8 N16"
_cell_length_a       6.65512
_cell_length_b       6.95756
_cell_length_c       9.43842
_cell_angle_alpha    73.1016
_cell_angle_beta     73.6916
_cell_angle_gamma    97.489

_space_group_name_H-M_alt    "P 1"
_space_group_IT_number       1

loop_
  _space_group_symop_operation_xyz
  'x, y, z'

loop_
  _atom_site_type_symbol
  _atom_site_label
  _atom_site_symmetry_multiplicity
  _atom_site_fract_x
  _atom_site_fract_y
  _atom_site_fract_z
  _atom_site_occupancy
  Cd  Cd1       1.0  0.50000  0.50000  0.50000  1.0000
  Ag  Ag1       1.0  0.59780  0.92698  0.76323  1.0000
  Ag  Ag2       1.0  0.40220  0.07302  0.23677  1.0000
  H   H1        1.0  0.81498  0.72906  0.58116  1.0000
  H   H2        1.0  0.18502  0.27094  0.41884  1.0000
  H   H3        1.0  0.96839  0.76602  0.39837  1.0000
  H   H4        1.0  0.03160  0.23398  0.60164  1.0000
  H   H5        1.0  0.90491  0.77796  0.13036  1.0000
  H   H6        1.0  0.09510  0.22204  0.86963  1.0000
  H   H7        1.0  0.91956  0.82433  0.93955  1.0000
  H   H8        1.0  0.08045  0.17568  0.06045  1.0000
  H   H9        1.0  0.84446  0.42127  0.17612  1.0000
  H   H10       1.0  0.15553  0.57872  0.82388  1.0000
  H   H11       1.0  0.12609  0.55611  0.33335  1.0000
  H   H12       1.0  0.87392  0.44389  0.66665  1.0000
  C   C1        1.0  0.80684  0.98384  0.41827  1.0000
  C   C2        1.0  0.19315  0.01617  0.58173  1.0000
  C   C3        1.0  0.81514  0.28363  0.27778  1.0000
  C   C4        1.0  0.18485  0.71636  0.72222  1.0000
  C   C5        1.0  0.61236  0.71993  0.10135  1.0000
  C   C6        1.0  0.38764  0.28007  0.89866  1.0000
  C   C7        1.0  0.27654  0.62161  0.23542  1.0000
  C   C8        1.0  0.72347  0.37839  0.76458  1.0000
  N   N1        1.0  0.71931  0.27183  0.42623  1.0000
  N   N2        1.0  0.28069  0.72816  0.57377  1.0000
  N   N3        1.0  0.71415  0.07429  0.51883  1.0000
  N   N4        1.0  0.28584  0.92571  0.48117  1.0000
  N   N5        1.0  0.87469  0.10753  0.26704  1.0000
  N   N6        1.0  0.12531  0.89247  0.73296  1.0000
  N   N7        1.0  0.82371  0.77818  0.46572  1.0000
  N   N8        1.0  0.17628  0.22182  0.53429  1.0000
  N   N9        1.0  0.28297  0.69649  0.08832  1.0000
  N   N10       1.0  0.71703  0.30352  0.91169  1.0000
  N   N11       1.0  0.49976  0.76188  0.00130  1.0000
  N   N12       1.0  0.50024  0.23812  0.99870  1.0000
  N   N13       1.0  0.47558  0.62979  0.25261  1.0000
  N   N14       1.0  0.52443  0.37020  0.74739  1.0000
  N   N15       1.0  0.82936  0.75113  0.05636  1.0000
  N   N16       1.0  0.17065  0.24887  0.94364  1.0000
