data_image0
_chemical_formula_structural       Hg4H36C36I8N12O8
_chemical_formula_sum              "Hg4 H36 C36 I8 N12 O8"
_cell_length_a       7.01324
_cell_length_b       11.1739
_cell_length_c       18.7615
_cell_angle_alpha    107.327
_cell_angle_beta     95.6907
_cell_angle_gamma    89.9695

_space_group_name_H-M_alt    "P 1"
_space_group_IT_number       1

loop_
  _space_group_symop_operation_xyz
  'x, y, z'

loop_
  _atom_site_type_symbol
  _atom_site_label
  _atom_site_symmetry_multiplicity
  _atom_site_fract_x
  _atom_site_fract_y
  _atom_site_fract_z
  _atom_site_occupancy
  Hg  Hg1       1.0  0.96555  0.57692  0.40040  1.0000
  Hg  Hg2       1.0  0.53466  0.17685  0.59953  1.0000
  Hg  Hg3       1.0  0.03446  0.42308  0.59960  1.0000
  Hg  Hg4       1.0  0.46534  0.82315  0.40047  1.0000
  H   H1        1.0  0.08800  0.43453  0.09368  1.0000
  H   H2        1.0  0.41229  0.34067  0.90630  1.0000
  H   H3        1.0  0.91200  0.56547  0.90632  1.0000
  H   H4        1.0  0.58771  0.65933  0.09370  1.0000
  H   H5        1.0  0.67725  0.43335  0.09890  1.0000
  H   H6        1.0  0.82305  0.33456  0.90113  1.0000
  H   H7        1.0  0.32275  0.56665  0.90110  1.0000
  H   H8        1.0  0.17695  0.66544  0.09888  1.0000
  H   H9        1.0  0.75064  0.45914  0.22716  1.0000
  H   H10       1.0  0.74996  0.23239  0.77281  1.0000
  H   H11       1.0  0.24937  0.54086  0.77284  1.0000
  H   H12       1.0  0.25004  0.76761  0.22719  1.0000
  H   H13       1.0  0.51356  0.16544  0.00892  1.0000
  H   H14       1.0  0.98675  0.15651  0.99102  1.0000
  H   H15       1.0  0.48645  0.83456  0.99108  1.0000
  H   H16       1.0  0.01325  0.84349  0.00898  1.0000
  H   H17       1.0  0.52573  0.08673  0.07922  1.0000
  H   H18       1.0  0.97457  0.00753  0.92070  1.0000
  H   H19       1.0  0.47428  0.91326  0.92078  1.0000
  H   H20       1.0  0.02543  0.99248  0.07930  1.0000
  H   H21       1.0  0.72650  0.17725  0.07227  1.0000
  H   H22       1.0  0.77382  0.10516  0.92767  1.0000
  H   H23       1.0  0.27351  0.82275  0.92773  1.0000
  H   H24       1.0  0.22618  0.89484  0.07233  1.0000
  H   H25       1.0  0.40266  0.12659  0.20111  1.0000
  H   H26       1.0  0.09751  0.92543  0.79879  1.0000
  H   H27       1.0  0.59734  0.87341  0.79889  1.0000
  H   H28       1.0  0.90249  0.07457  0.20121  1.0000
  H   H29       1.0  0.73185  0.32555  0.40965  1.0000
  H   H30       1.0  0.76820  0.91625  0.59032  1.0000
  H   H31       1.0  0.26815  0.67445  0.59035  1.0000
  H   H32       1.0  0.23180  0.08375  0.40968  1.0000
  H   H33       1.0  0.51499  0.14515  0.33546  1.0000
  H   H34       1.0  0.98502  0.80977  0.66444  1.0000
  H   H35       1.0  0.48502  0.85485  0.66454  1.0000
  H   H36       1.0  0.01498  0.19023  0.33556  1.0000
  C   C1        1.0  0.69344  0.38686  0.24819  1.0000
  C   C2        1.0  0.80709  0.13902  0.75177  1.0000
  C   C3        1.0  0.30656  0.61314  0.75181  1.0000
  C   C4        1.0  0.19291  0.86098  0.24823  1.0000
  C   C5        1.0  0.27240  0.28952  0.11370  1.0000
  C   C6        1.0  0.22794  0.17577  0.88632  1.0000
  C   C7        1.0  0.72760  0.71048  0.88630  1.0000
  C   C8        1.0  0.77206  0.82424  0.11368  1.0000
  C   C9        1.0  0.38730  0.46835  0.09557  1.0000
  C   C10       1.0  0.11300  0.37276  0.90444  1.0000
  C   C11       1.0  0.61270  0.53165  0.90444  1.0000
  C   C12       1.0  0.88700  0.62724  0.09556  1.0000
  C   C13       1.0  0.56917  0.17178  0.06669  1.0000
  C   C14       1.0  0.93113  0.10515  0.93325  1.0000
  C   C15       1.0  0.43083  0.82822  0.93331  1.0000
  C   C16       1.0  0.06887  0.89486  0.06675  1.0000
  C   C17       1.0  0.49552  0.28777  0.12267  1.0000
  C   C18       1.0  0.00484  0.16516  0.87731  1.0000
  C   C19       1.0  0.50448  0.71224  0.87733  1.0000
  C   C20       1.0  0.99515  0.83484  0.12269  1.0000
  C   C21       1.0  0.50135  0.20238  0.23438  1.0000
  C   C22       1.0  0.99887  0.96807  0.76553  1.0000
  C   C23       1.0  0.49865  0.79762  0.76562  1.0000
  C   C24       1.0  0.00112  0.03193  0.23447  1.0000
  C   C25       1.0  0.56513  0.29267  0.20324  1.0000
  C   C26       1.0  0.93535  0.08960  0.79670  1.0000
  C   C27       1.0  0.43487  0.70733  0.79676  1.0000
  C   C28       1.0  0.06465  0.91040  0.20330  1.0000
  C   C29       1.0  0.68450  0.31261  0.35052  1.0000
  C   C30       1.0  0.81573  0.96242  0.64943  1.0000
  C   C31       1.0  0.31551  0.68739  0.64948  1.0000
  C   C32       1.0  0.18427  0.03758  0.35057  1.0000
  C   C33       1.0  0.56157  0.21289  0.30896  1.0000
  C   C34       1.0  0.93858  0.90408  0.69095  1.0000
  C   C35       1.0  0.43843  0.78711  0.69104  1.0000
  C   C36       1.0  0.06141  0.09592  0.30905  1.0000
  I   I1        1.0  0.75850  0.62582  0.51828  1.0000
  I   I2        1.0  0.74127  0.10719  0.48156  1.0000
  I   I3        1.0  0.24150  0.37418  0.48172  1.0000
  I   I4        1.0  0.25873  0.89281  0.51844  1.0000
  I   I5        1.0  0.25368  0.55181  0.31155  1.0000
  I   I6        1.0  0.24655  0.24014  0.68843  1.0000
  I   I7        1.0  0.74632  0.44819  0.68844  1.0000
  I   I8        1.0  0.75346  0.75986  0.31158  1.0000
  N   N1        1.0  0.22527  0.39981  0.09912  1.0000
  N   N2        1.0  0.27505  0.30059  0.90089  1.0000
  N   N3        1.0  0.77473  0.60019  0.90088  1.0000
  N   N4        1.0  0.72495  0.69942  0.09910  1.0000
  N   N5        1.0  0.54316  0.40368  0.10654  1.0000
  N   N6        1.0  0.95716  0.29722  0.89347  1.0000
  N   N7        1.0  0.45683  0.59632  0.89346  1.0000
  N   N8        1.0  0.04284  0.70278  0.10653  1.0000
  N   N9        1.0  0.75143  0.39613  0.31993  1.0000
  N   N10       1.0  0.74896  0.07661  0.68004  1.0000
  N   N11       1.0  0.24857  0.60387  0.68007  1.0000
  N   N12       1.0  0.25104  0.92339  0.31996  1.0000
  O   O1        1.0  0.16051  0.20863  0.11825  1.0000
  O   O2        1.0  0.33985  0.09024  0.88177  1.0000
  O   O3        1.0  0.83949  0.79136  0.88175  1.0000
  O   O4        1.0  0.66015  0.90976  0.11823  1.0000
  O   O5        1.0  0.38238  0.57293  0.08355  1.0000
  O   O6        1.0  0.11780  0.48937  0.91650  1.0000
  O   O7        1.0  0.61762  0.42707  0.91645  1.0000
  O   O8        1.0  0.88220  0.51063  0.08350  1.0000
