data_image0
_chemical_formula_structural       Mo8H40C28N24O24
_chemical_formula_sum              "Mo8 H40 C28 N24 O24"
_cell_length_a       9.34659
_cell_length_b       11.7169
_cell_length_c       11.9394
_cell_angle_alpha    90
_cell_angle_beta     90
_cell_angle_gamma    90

_space_group_name_H-M_alt    "P 1"
_space_group_IT_number       1

loop_
  _space_group_symop_operation_xyz
  'x, y, z'

loop_
  _atom_site_type_symbol
  _atom_site_label
  _atom_site_symmetry_multiplicity
  _atom_site_fract_x
  _atom_site_fract_y
  _atom_site_fract_z
  _atom_site_occupancy
  Mo  Mo1       1.0  0.37315  0.07443  0.86402  1.0000
  Mo  Mo2       1.0  0.12685  0.92557  0.36402  1.0000
  Mo  Mo3       1.0  0.62685  0.57443  0.63598  1.0000
  Mo  Mo4       1.0  0.87315  0.42557  0.13598  1.0000
  Mo  Mo5       1.0  0.37293  0.09531  0.16876  1.0000
  Mo  Mo6       1.0  0.12707  0.90470  0.66876  1.0000
  Mo  Mo7       1.0  0.62707  0.59531  0.33124  1.0000
  Mo  Mo8       1.0  0.87293  0.40469  0.83124  1.0000
  H   H1        1.0  0.28351  0.76492  0.86228  1.0000
  H   H2        1.0  0.21649  0.23508  0.36228  1.0000
  H   H3        1.0  0.71649  0.26492  0.63772  1.0000
  H   H4        1.0  0.78351  0.73508  0.13772  1.0000
  H   H5        1.0  0.36072  0.78033  0.21167  1.0000
  H   H6        1.0  0.13928  0.21967  0.71167  1.0000
  H   H7        1.0  0.63928  0.28033  0.28833  1.0000
  H   H8        1.0  0.86072  0.71967  0.78833  1.0000
  H   H9        1.0  0.48485  0.39850  0.80584  1.0000
  H   H10       1.0  0.01516  0.60150  0.30583  1.0000
  H   H11       1.0  0.51515  0.89850  0.69417  1.0000
  H   H12       1.0  0.98485  0.10150  0.19416  1.0000
  H   H13       1.0  0.47453  0.39557  0.15971  1.0000
  H   H14       1.0  0.02547  0.60443  0.65971  1.0000
  H   H15       1.0  0.52547  0.89557  0.34029  1.0000
  H   H16       1.0  0.97453  0.10443  0.84029  1.0000
  H   H17       1.0  0.23321  0.59520  0.12971  1.0000
  H   H18       1.0  0.26679  0.40480  0.62971  1.0000
  H   H19       1.0  0.76679  0.09520  0.37029  1.0000
  H   H20       1.0  0.73321  0.90480  0.87029  1.0000
  H   H21       1.0  0.41071  0.58015  0.08273  1.0000
  H   H22       1.0  0.08929  0.41985  0.58273  1.0000
  H   H23       1.0  0.58929  0.08015  0.41727  1.0000
  H   H24       1.0  0.91071  0.91985  0.91727  1.0000
  H   H25       1.0  0.30348  0.56684  0.87909  1.0000
  H   H26       1.0  0.19652  0.43316  0.37909  1.0000
  H   H27       1.0  0.69652  0.06684  0.62091  1.0000
  H   H28       1.0  0.80348  0.93316  0.12091  1.0000
  H   H29       1.0  0.13430  0.55576  0.94451  1.0000
  H   H30       1.0  0.36570  0.44424  0.44450  1.0000
  H   H31       1.0  0.86570  0.05576  0.55549  1.0000
  H   H32       1.0  0.63430  0.94424  0.05550  1.0000
  H   H33       1.0  0.22867  0.38627  0.05722  1.0000
  H   H34       1.0  0.27133  0.61373  0.55722  1.0000
  H   H35       1.0  0.77133  0.88627  0.44278  1.0000
  H   H36       1.0  0.72867  0.11373  0.94278  1.0000
  H   H37       1.0  0.23019  0.36365  0.90952  1.0000
  H   H38       1.0  0.26981  0.63635  0.40952  1.0000
  H   H39       1.0  0.76981  0.86365  0.59048  1.0000
  H   H40       1.0  0.73019  0.13635  0.09048  1.0000
  C   C1        1.0  0.31032  0.79651  0.94538  1.0000
  C   C2        1.0  0.18968  0.20349  0.44537  1.0000
  C   C3        1.0  0.68968  0.29651  0.55462  1.0000
  C   C4        1.0  0.81032  0.70349  0.05462  1.0000
  C   C5        1.0  0.34927  0.80616  0.12511  1.0000
  C   C6        1.0  0.15073  0.19384  0.62512  1.0000
  C   C7        1.0  0.65073  0.30616  0.37489  1.0000
  C   C8        1.0  0.84927  0.69384  0.87489  1.0000
  C   C9        1.0  0.51941  0.39462  0.89239  1.0000
  C   C10       1.0  0.98059  0.60538  0.39239  1.0000
  C   C11       1.0  0.48059  0.89462  0.60761  1.0000
  C   C12       1.0  0.01941  0.10538  0.10762  1.0000
  C   C13       1.0  0.51479  0.39409  0.07461  1.0000
  C   C14       1.0  0.98521  0.60590  0.57461  1.0000
  C   C15       1.0  0.48521  0.89409  0.42539  1.0000
  C   C16       1.0  0.01479  0.10591  0.92539  1.0000
  C   C17       1.0  0.30379  0.60893  0.05747  1.0000
  C   C18       1.0  0.19621  0.39107  0.55747  1.0000
  C   C19       1.0  0.69621  0.10893  0.44253  1.0000
  C   C20       1.0  0.80379  0.89107  0.94253  1.0000
  C   C21       1.0  0.24916  0.54233  0.95731  1.0000
  C   C22       1.0  0.25084  0.45767  0.45731  1.0000
  C   C23       1.0  0.75084  0.04233  0.54269  1.0000
  C   C24       1.0  0.74916  0.95767  0.04269  1.0000
  C   C25       1.0  0.27507  0.41474  0.97766  1.0000
  C   C26       1.0  0.22493  0.58526  0.47766  1.0000
  C   C27       1.0  0.72493  0.91474  0.52234  1.0000
  C   C28       1.0  0.77507  0.08526  0.02234  1.0000
  N   N1        1.0  0.33734  0.90432  0.97132  1.0000
  N   N2        1.0  0.16266  0.09568  0.47132  1.0000
  N   N3        1.0  0.66266  0.40432  0.52868  1.0000
  N   N4        1.0  0.83734  0.59568  0.02868  1.0000
  N   N5        1.0  0.36108  0.91021  0.08415  1.0000
  N   N6        1.0  0.13892  0.08979  0.58415  1.0000
  N   N7        1.0  0.63892  0.41021  0.41585  1.0000
  N   N8        1.0  0.86108  0.58979  0.91585  1.0000
  N   N9        1.0  0.31684  0.73255  0.04065  1.0000
  N   N10       1.0  0.18316  0.26745  0.54065  1.0000
  N   N11       1.0  0.68316  0.23255  0.45935  1.0000
  N   N12       1.0  0.81684  0.76745  0.95935  1.0000
  N   N13       1.0  0.65273  0.39451  0.92826  1.0000
  N   N14       1.0  0.84727  0.60549  0.42826  1.0000
  N   N15       1.0  0.34727  0.89451  0.57174  1.0000
  N   N16       1.0  0.15273  0.10549  0.07174  1.0000
  N   N17       1.0  0.65022  0.39404  0.04313  1.0000
  N   N18       1.0  0.84978  0.60596  0.54313  1.0000
  N   N19       1.0  0.34978  0.89404  0.45687  1.0000
  N   N20       1.0  0.15022  0.10596  0.95687  1.0000
  N   N21       1.0  0.42961  0.39384  0.98199  1.0000
  N   N22       1.0  0.07039  0.60616  0.48199  1.0000
  N   N23       1.0  0.57039  0.89384  0.51801  1.0000
  N   N24       1.0  0.92961  0.10616  0.01801  1.0000
  O   O1        1.0  0.42392  0.12025  0.01467  1.0000
  O   O2        1.0  0.07608  0.87975  0.51467  1.0000
  O   O3        1.0  0.57608  0.62025  0.48533  1.0000
  O   O4        1.0  0.92392  0.37975  0.98533  1.0000
  O   O5        1.0  0.53793  0.02271  0.82132  1.0000
  O   O6        1.0  0.96207  0.97729  0.32132  1.0000
  O   O7        1.0  0.46207  0.52271  0.67868  1.0000
  O   O8        1.0  0.03793  0.47729  0.17868  1.0000
  O   O9        1.0  0.35818  0.20653  0.80065  1.0000
  O   O10       1.0  0.14182  0.79347  0.30065  1.0000
  O   O11       1.0  0.64182  0.70653  0.69935  1.0000
  O   O12       1.0  0.85818  0.29347  0.19935  1.0000
  O   O13       1.0  0.24910  0.98643  0.77003  1.0000
  O   O14       1.0  0.25090  0.01357  0.27003  1.0000
  O   O15       1.0  0.75090  0.48643  0.72997  1.0000
  O   O16       1.0  0.74910  0.51357  0.22997  1.0000
  O   O17       1.0  0.53869  0.05835  0.22212  1.0000
  O   O18       1.0  0.96131  0.94165  0.72212  1.0000
  O   O19       1.0  0.46131  0.55835  0.27788  1.0000
  O   O20       1.0  0.03869  0.44165  0.77788  1.0000
  O   O21       1.0  0.34539  0.23370  0.21575  1.0000
  O   O22       1.0  0.15461  0.76630  0.71575  1.0000
  O   O23       1.0  0.65461  0.73370  0.28425  1.0000
  O   O24       1.0  0.84539  0.26630  0.78425  1.0000
