data_image0
_chemical_formula_structural       Mo4H44C36N12O12
_chemical_formula_sum              "Mo4 H44 C36 N12 O12"
_cell_length_a       10.3439
_cell_length_b       10.3439
_cell_length_c       10.483
_cell_angle_alpha    90
_cell_angle_beta     90
_cell_angle_gamma    106.745

_space_group_name_H-M_alt    "P 1"
_space_group_IT_number       1

loop_
  _space_group_symop_operation_xyz
  'x, y, z'

loop_
  _atom_site_type_symbol
  _atom_site_label
  _atom_site_symmetry_multiplicity
  _atom_site_fract_x
  _atom_site_fract_y
  _atom_site_fract_z
  _atom_site_occupancy
  Mo  Mo1       1.0  0.10157  0.60157  0.64049  1.0000
  Mo  Mo2       1.0  0.39843  0.89843  0.64049  1.0000
  Mo  Mo3       1.0  0.89843  0.39843  0.35951  1.0000
  Mo  Mo4       1.0  0.60157  0.10157  0.35951  1.0000
  H   H1        1.0  0.94671  0.70967  0.36097  1.0000
  H   H2        1.0  0.55328  0.79034  0.36097  1.0000
  H   H3        1.0  0.79034  0.55328  0.63903  1.0000
  H   H4        1.0  0.70966  0.94672  0.63903  1.0000
  H   H5        1.0  0.05328  0.29033  0.63903  1.0000
  H   H6        1.0  0.44672  0.20966  0.63903  1.0000
  H   H7        1.0  0.20967  0.44672  0.36097  1.0000
  H   H8        1.0  0.29034  0.05328  0.36097  1.0000
  H   H9        1.0  0.09224  0.76327  0.10445  1.0000
  H   H10       1.0  0.40776  0.73673  0.10445  1.0000
  H   H11       1.0  0.73673  0.40776  0.89555  1.0000
  H   H12       1.0  0.76327  0.09224  0.89555  1.0000
  H   H13       1.0  0.90776  0.23673  0.89555  1.0000
  H   H14       1.0  0.59224  0.26327  0.89555  1.0000
  H   H15       1.0  0.26327  0.59224  0.10445  1.0000
  H   H16       1.0  0.23673  0.90776  0.10445  1.0000
  H   H17       1.0  0.13229  0.86771  0.88736  1.0000
  H   H18       1.0  0.36771  0.63229  0.88736  1.0000
  H   H19       1.0  0.63229  0.36771  0.11264  1.0000
  H   H20       1.0  0.86771  0.13229  0.11264  1.0000
  H   H21       1.0  0.85886  0.93436  0.25975  1.0000
  H   H22       1.0  0.64114  0.56564  0.25975  1.0000
  H   H23       1.0  0.56564  0.64114  0.74025  1.0000
  H   H24       1.0  0.93436  0.85886  0.74025  1.0000
  H   H25       1.0  0.14114  0.06564  0.74025  1.0000
  H   H26       1.0  0.35886  0.43436  0.74025  1.0000
  H   H27       1.0  0.43436  0.35886  0.25975  1.0000
  H   H28       1.0  0.06564  0.14114  0.25975  1.0000
  H   H29       1.0  0.87138  0.77960  0.19368  1.0000
  H   H30       1.0  0.62862  0.72040  0.19368  1.0000
  H   H31       1.0  0.72040  0.62862  0.80632  1.0000
  H   H32       1.0  0.77960  0.87138  0.80632  1.0000
  H   H33       1.0  0.12862  0.22040  0.80632  1.0000
  H   H34       1.0  0.37138  0.27960  0.80632  1.0000
  H   H35       1.0  0.27960  0.37138  0.19368  1.0000
  H   H36       1.0  0.22040  0.12862  0.19368  1.0000
  H   H37       1.0  0.89639  0.75605  0.95466  1.0000
  H   H38       1.0  0.60361  0.74395  0.95466  1.0000
  H   H39       1.0  0.74395  0.60361  0.04534  1.0000
  H   H40       1.0  0.75605  0.89639  0.04534  1.0000
  H   H41       1.0  0.10361  0.24395  0.04534  1.0000
  H   H42       1.0  0.39639  0.25605  0.04534  1.0000
  H   H43       1.0  0.25605  0.39639  0.95466  1.0000
  H   H44       1.0  0.24395  0.10361  0.95466  1.0000
  C   C1        1.0  0.03704  0.78665  0.39146  1.0000
  C   C2        1.0  0.46296  0.71335  0.39146  1.0000
  C   C3        1.0  0.71335  0.46296  0.60854  1.0000
  C   C4        1.0  0.78665  0.03704  0.60854  1.0000
  C   C5        1.0  0.96296  0.21335  0.60854  1.0000
  C   C6        1.0  0.53704  0.28665  0.60854  1.0000
  C   C7        1.0  0.28665  0.53704  0.39146  1.0000
  C   C8        1.0  0.21335  0.96296  0.39146  1.0000
  C   C9        1.0  0.06062  0.93939  0.19734  1.0000
  C   C10       1.0  0.43939  0.56062  0.19734  1.0000
  C   C11       1.0  0.56062  0.43939  0.80266  1.0000
  C   C12       1.0  0.93939  0.06061  0.80266  1.0000
  C   C13       1.0  0.12616  0.87384  0.09336  1.0000
  C   C14       1.0  0.37384  0.62616  0.09336  1.0000
  C   C15       1.0  0.62616  0.37384  0.90664  1.0000
  C   C16       1.0  0.87384  0.12616  0.90664  1.0000
  C   C17       1.0  0.08561  0.91439  0.96205  1.0000
  C   C18       1.0  0.41439  0.58561  0.96205  1.0000
  C   C19       1.0  0.58561  0.41439  0.03795  1.0000
  C   C20       1.0  0.91439  0.08561  0.03795  1.0000
  C   C21       1.0  0.90677  0.89016  0.18433  1.0000
  C   C22       1.0  0.59323  0.60984  0.18433  1.0000
  C   C23       1.0  0.60984  0.59323  0.81567  1.0000
  C   C24       1.0  0.89016  0.90677  0.81567  1.0000
  C   C25       1.0  0.09323  0.10984  0.81567  1.0000
  C   C26       1.0  0.40677  0.39016  0.81567  1.0000
  C   C27       1.0  0.39016  0.40677  0.18433  1.0000
  C   C28       1.0  0.10984  0.09323  0.18433  1.0000
  C   C29       1.0  0.93095  0.86682  0.94677  1.0000
  C   C30       1.0  0.56904  0.63318  0.94677  1.0000
  C   C31       1.0  0.63318  0.56904  0.05323  1.0000
  C   C32       1.0  0.86682  0.93096  0.05323  1.0000
  C   C33       1.0  0.06904  0.13318  0.05323  1.0000
  C   C34       1.0  0.43096  0.36682  0.05323  1.0000
  C   C35       1.0  0.36682  0.43096  0.94677  1.0000
  C   C36       1.0  0.13317  0.06904  0.94677  1.0000
  N   N1        1.0  0.10855  0.78058  0.49443  1.0000
  N   N2        1.0  0.39144  0.71942  0.49443  1.0000
  N   N3        1.0  0.71942  0.39144  0.50557  1.0000
  N   N4        1.0  0.78058  0.10856  0.50557  1.0000
  N   N5        1.0  0.89144  0.21942  0.50557  1.0000
  N   N6        1.0  0.60856  0.28058  0.50557  1.0000
  N   N7        1.0  0.28058  0.60856  0.49443  1.0000
  N   N8        1.0  0.21942  0.89144  0.49443  1.0000
  N   N9        1.0  0.09975  0.90025  0.32433  1.0000
  N   N10       1.0  0.40025  0.59975  0.32433  1.0000
  N   N11       1.0  0.59975  0.40024  0.67567  1.0000
  N   N12       1.0  0.90025  0.09975  0.67567  1.0000
  O   O1        1.0  1.00000  0.50000  0.50000  1.0000
  O   O2        1.0  0.50000  0.00000  0.50000  1.0000
  O   O3        1.0  0.25000  0.75000  0.69717  1.0000
  O   O4        1.0  0.75000  0.25000  0.30283  1.0000
  O   O5        1.0  0.13694  0.47104  0.72331  1.0000
  O   O6        1.0  0.36306  0.02896  0.72331  1.0000
  O   O7        1.0  0.02896  0.36307  0.27669  1.0000
  O   O8        1.0  0.47104  0.13694  0.27669  1.0000
  O   O9        1.0  0.86306  0.52896  0.27669  1.0000
  O   O10       1.0  0.63693  0.97104  0.27669  1.0000
  O   O11       1.0  0.97104  0.63694  0.72331  1.0000
  O   O12       1.0  0.52896  0.86307  0.72331  1.0000
