data_image0
_chemical_formula_structural       Mo4H22C18N6O12
_chemical_formula_sum              "Mo4 H22 C18 N6 O12"
_cell_length_a       7.30025
_cell_length_b       7.48916
_cell_length_c       11.5944
_cell_angle_alpha    85.9137
_cell_angle_beta     85.9575
_cell_angle_gamma    89.1802

_space_group_name_H-M_alt    "P 1"
_space_group_IT_number       1

loop_
  _space_group_symop_operation_xyz
  'x, y, z'

loop_
  _atom_site_type_symbol
  _atom_site_label
  _atom_site_symmetry_multiplicity
  _atom_site_fract_x
  _atom_site_fract_y
  _atom_site_fract_z
  _atom_site_occupancy
  Mo  Mo1       1.0  0.36687  0.67443  0.55417  1.0000
  Mo  Mo2       1.0  0.63313  0.32556  0.44583  1.0000
  Mo  Mo3       1.0  0.13660  0.35910  0.41116  1.0000
  Mo  Mo4       1.0  0.86341  0.64091  0.58886  1.0000
  H   H1        1.0  0.32494  0.39673  0.84903  1.0000
  H   H2        1.0  0.67506  0.60327  0.15097  1.0000
  H   H3        1.0  0.03620  0.03974  0.66085  1.0000
  H   H4        1.0  0.96380  0.96026  0.33915  1.0000
  H   H5        1.0  0.99397  0.85775  0.81381  1.0000
  H   H6        1.0  0.00603  0.14225  0.18619  1.0000
  H   H7        1.0  0.79960  0.13820  0.78215  1.0000
  H   H8        1.0  0.20039  0.86180  0.21785  1.0000
  H   H9        1.0  0.67273  0.96017  0.85234  1.0000
  H   H10       1.0  0.32727  0.03982  0.14766  1.0000
  H   H11       1.0  0.61178  0.24804  0.95039  1.0000
  H   H12       1.0  0.38822  0.75196  0.04961  1.0000
  H   H13       1.0  0.86307  0.37239  0.05696  1.0000
  H   H14       1.0  0.13693  0.62761  0.94304  1.0000
  H   H15       1.0  0.91661  0.38762  0.90465  1.0000
  H   H16       1.0  0.08339  0.61237  0.09535  1.0000
  H   H17       1.0  0.18421  0.27141  0.01603  1.0000
  H   H18       1.0  0.81579  0.72859  0.98397  1.0000
  H   H19       1.0  0.33494  0.87878  0.84821  1.0000
  H   H20       1.0  0.66506  0.12122  0.15179  1.0000
  H   H21       1.0  0.40898  0.04847  0.93310  1.0000
  H   H22       1.0  0.59102  0.95152  0.06690  1.0000
  C   C1        1.0  0.26567  0.33392  0.77932  1.0000
  C   C2        1.0  0.73433  0.66607  0.22068  1.0000
  C   C3        1.0  0.11886  0.14974  0.68346  1.0000
  C   C4        1.0  0.88115  0.85026  0.31654  1.0000
  C   C5        1.0  0.12347  0.06573  0.90060  1.0000
  C   C6        1.0  0.87653  0.93427  0.09940  1.0000
  C   C7        1.0  0.95914  0.94348  0.88550  1.0000
  C   C8        1.0  0.04086  0.05652  0.11450  1.0000
  C   C9        1.0  0.78439  0.05317  0.86333  1.0000
  C   C10       1.0  0.21561  0.94683  0.13667  1.0000
  C   C11       1.0  0.73643  0.16758  0.96588  1.0000
  C   C12       1.0  0.26357  0.83243  0.03411  1.0000
  C   C13       1.0  0.89546  0.29344  0.98143  1.0000
  C   C14       1.0  0.10453  0.70656  0.01857  1.0000
  C   C15       1.0  0.06951  0.18249  0.00279  1.0000
  C   C16       1.0  0.93049  0.81751  0.99721  1.0000
  C   C17       1.0  0.29709  0.95514  0.92389  1.0000
  C   C18       1.0  0.70291  0.04486  0.07611  1.0000
  N   N1        1.0  0.27859  0.39443  0.66961  1.0000
  N   N2        1.0  0.72141  0.60558  0.33040  1.0000
  N   N3        1.0  0.18570  0.27824  0.60980  1.0000
  N   N4        1.0  0.81430  0.72177  0.39019  1.0000
  N   N5        1.0  0.16495  0.18048  0.79216  1.0000
  N   N6        1.0  0.83505  0.81952  0.20784  1.0000
  O   O1        1.0  0.38837  0.43582  0.43060  1.0000
  O   O2        1.0  0.61162  0.56419  0.56940  1.0000
  O   O3        1.0  0.11375  0.62418  0.51762  1.0000
  O   O4        1.0  0.88626  0.37581  0.48238  1.0000
  O   O5        1.0  0.41717  0.83635  0.44680  1.0000
  O   O6        1.0  0.58284  0.16366  0.55320  1.0000
  O   O7        1.0  0.33230  0.78350  0.67854  1.0000
  O   O8        1.0  0.66770  0.21651  0.32147  1.0000
  O   O9        1.0  0.10977  0.46834  0.27794  1.0000
  O   O10       1.0  0.89024  0.53166  0.72207  1.0000
  O   O11       1.0  0.15183  0.13829  0.38444  1.0000
  O   O12       1.0  0.84817  0.86170  0.61556  1.0000
