data_image0
_chemical_formula_structural       Cu3H12C14N14O10
_chemical_formula_sum              "Cu3 H12 C14 N14 O10"
_cell_length_a       6.56673
_cell_length_b       8.44309
_cell_length_c       11.8322
_cell_angle_alpha    73.2296
_cell_angle_beta     89.1327
_cell_angle_gamma    72.4239

_space_group_name_H-M_alt    "P 1"
_space_group_IT_number       1

loop_
  _space_group_symop_operation_xyz
  'x, y, z'

loop_
  _atom_site_type_symbol
  _atom_site_label
  _atom_site_symmetry_multiplicity
  _atom_site_fract_x
  _atom_site_fract_y
  _atom_site_fract_z
  _atom_site_occupancy
  Cu  Cu1       1.0  0.00006  0.49951  0.49997  1.0000
  Cu  Cu2       1.0  0.63468  0.80318  0.53740  1.0000
  Cu  Cu3       1.0  0.36495  0.19705  0.46259  1.0000
  H   H1        1.0  0.64474  0.61752  0.90421  1.0000
  H   H2        1.0  0.35525  0.38255  0.09574  1.0000
  H   H3        1.0  0.67653  0.46214  0.12218  1.0000
  H   H4        1.0  0.32354  0.53800  0.87778  1.0000
  H   H5        1.0  0.18442  0.03246  0.06988  1.0000
  H   H6        1.0  0.81575  0.96770  0.93013  1.0000
  H   H7        1.0  0.15148  0.18794  0.85261  1.0000
  H   H8        1.0  0.84862  0.81214  0.14738  1.0000
  H   H9        1.0  0.02643  0.86927  0.41774  1.0000
  H   H10       1.0  0.97346  0.13067  0.58233  1.0000
  H   H11       1.0  0.07180  0.81468  0.55768  1.0000
  H   H12       1.0  0.92812  0.18518  0.44238  1.0000
  C   C1        1.0  0.86799  0.50129  0.73518  1.0000
  C   C2        1.0  0.13183  0.49855  0.26473  1.0000
  C   C3        1.0  0.89128  0.40939  0.86564  1.0000
  C   C4        1.0  0.10866  0.59065  0.13430  1.0000
  C   C5        1.0  0.75945  0.48858  0.94116  1.0000
  C   C6        1.0  0.24055  0.51148  0.05879  1.0000
  C   C7        1.0  0.77647  0.40355  0.06161  1.0000
  C   C8        1.0  0.22357  0.59657  0.93837  1.0000
  C   C9        1.0  0.92668  0.23818  0.10459  1.0000
  C   C10       1.0  0.07336  0.76191  0.89542  1.0000
  C   C11       1.0  0.06488  0.15873  0.03195  1.0000
  C   C12       1.0  0.93520  0.84140  0.96804  1.0000
  C   C13       1.0  0.04600  0.24599  0.91157  1.0000
  C   C14       1.0  0.95402  0.75411  0.08841  1.0000
  N   N1        1.0  0.67745  0.60616  0.47150  1.0000
  N   N2        1.0  0.32393  0.39468  0.52803  1.0000
  N   N3        1.0  0.59487  0.62266  0.37530  1.0000
  N   N4        1.0  0.40562  0.37719  0.62468  1.0000
  N   N5        1.0  0.51652  0.63255  0.28552  1.0000
  N   N6        1.0  0.48340  0.36666  0.71477  1.0000
  N   N7        1.0  0.52320  0.00801  0.60483  1.0000
  N   N8        1.0  0.47627  0.99219  0.39535  1.0000
  N   N9        1.0  0.48525  0.98912  0.70796  1.0000
  N   N10       1.0  0.51447  0.01093  0.29224  1.0000
  N   N11       1.0  0.45402  0.96744  0.80716  1.0000
  N   N12       1.0  0.54595  0.03231  0.19310  1.0000
  N   N13       1.0  0.93808  0.14600  0.22961  1.0000
  N   N14       1.0  0.06193  0.85404  0.77037  1.0000
  O   O1        1.0  0.98232  0.41727  0.67106  1.0000
  O   O2        1.0  0.01750  0.58246  0.32889  1.0000
  O   O3        1.0  0.73890  0.65583  0.70086  1.0000
  O   O4        1.0  0.26091  0.34399  0.29900  1.0000
  O   O5        1.0  0.06127  0.99400  0.26680  1.0000
  O   O6        1.0  0.93878  0.00605  0.73315  1.0000
  O   O7        1.0  0.82145  0.22297  0.29412  1.0000
  O   O8        1.0  0.17850  0.77696  0.70588  1.0000
  O   O9        1.0  0.98934  0.80234  0.49380  1.0000
  O   O10       1.0  0.01027  0.19784  0.50626  1.0000
