data_image0
_chemical_formula_structural       Cd2H42C44N6O12
_chemical_formula_sum              "Cd2 H42 C44 N6 O12"
_cell_length_a       9.47405
_cell_length_b       10.4501
_cell_length_c       11.6801
_cell_angle_alpha    116.362
_cell_angle_beta     97.7635
_cell_angle_gamma    91.7454

_space_group_name_H-M_alt    "P 1"
_space_group_IT_number       1

loop_
  _space_group_symop_operation_xyz
  'x, y, z'

loop_
  _atom_site_type_symbol
  _atom_site_label
  _atom_site_symmetry_multiplicity
  _atom_site_fract_x
  _atom_site_fract_y
  _atom_site_fract_z
  _atom_site_occupancy
  Cd  Cd1       1.0  0.79984  0.67486  0.50361  1.0000
  Cd  Cd2       1.0  0.20016  0.32514  0.49639  1.0000
  H   H1        1.0  0.49067  0.72491  0.05200  1.0000
  H   H2        1.0  0.50933  0.27510  0.94800  1.0000
  H   H3        1.0  0.43838  0.80201  0.87708  1.0000
  H   H4        1.0  0.56162  0.19799  0.12292  1.0000
  H   H5        1.0  0.25845  0.97566  0.89448  1.0000
  H   H6        1.0  0.74155  0.02434  0.10552  1.0000
  H   H7        1.0  0.13437  0.07320  0.08596  1.0000
  H   H8        1.0  0.86563  0.92679  0.91404  1.0000
  H   H9        1.0  0.18804  0.99910  0.25985  1.0000
  H   H10       1.0  0.81195  0.00090  0.74016  1.0000
  H   H11       1.0  0.28142  0.71221  0.42993  1.0000
  H   H12       1.0  0.71859  0.28779  0.57007  1.0000
  H   H13       1.0  0.35966  0.85785  0.66903  1.0000
  H   H14       1.0  0.64034  0.14215  0.33097  1.0000
  H   H15       1.0  0.41695  0.00510  0.64492  1.0000
  H   H16       1.0  0.58304  0.99490  0.35508  1.0000
  H   H17       1.0  0.16228  0.01620  0.55367  1.0000
  H   H18       1.0  0.83771  0.98380  0.44633  1.0000
  H   H19       1.0  0.19068  0.05198  0.71604  1.0000
  H   H20       1.0  0.80932  0.94801  0.28396  1.0000
  H   H21       1.0  0.60496  0.62141  0.67486  1.0000
  H   H22       1.0  0.39504  0.37859  0.32514  1.0000
  H   H23       1.0  0.60798  0.60690  0.88177  1.0000
  H   H24       1.0  0.39202  0.39310  0.11823  1.0000
  H   H25       1.0  0.07058  0.66933  0.94039  1.0000
  H   H26       1.0  0.92942  0.33068  0.05961  1.0000
  H   H27       1.0  0.04704  0.68391  0.73204  1.0000
  H   H28       1.0  0.95296  0.31610  0.26796  1.0000
  H   H29       1.0  0.04092  0.75459  0.35580  1.0000
  H   H30       1.0  0.95907  0.24541  0.64420  1.0000
  H   H31       1.0  0.04943  0.76030  0.14792  1.0000
  H   H32       1.0  0.95058  0.23970  0.85209  1.0000
  H   H33       1.0  0.64436  0.49548  0.99710  1.0000
  H   H34       1.0  0.35564  0.50452  0.00290  1.0000
  H   H35       1.0  0.64795  0.51007  0.21777  1.0000
  H   H36       1.0  0.35205  0.48992  0.78223  1.0000
  H   H37       1.0  0.34544  0.98138  0.42156  1.0000
  H   H38       1.0  0.65456  0.01862  0.57844  1.0000
  H   H39       1.0  0.78683  0.36744  0.41437  1.0000
  H   H40       1.0  0.21317  0.63256  0.58563  1.0000
  H   H41       1.0  0.63287  0.41528  0.44113  1.0000
  H   H42       1.0  0.36714  0.58472  0.55887  1.0000
  C   C1        1.0  0.41339  0.80187  0.05797  1.0000
  C   C2        1.0  0.58661  0.19813  0.94203  1.0000
  C   C3        1.0  0.38383  0.84484  0.96091  1.0000
  C   C4        1.0  0.61617  0.15516  0.03910  1.0000
  C   C5        1.0  0.28287  0.94254  0.97077  1.0000
  C   C6        1.0  0.71713  0.05746  0.02923  1.0000
  C   C7        1.0  0.21400  0.99806  0.07874  1.0000
  C   C8        1.0  0.78600  0.00194  0.92126  1.0000
  C   C9        1.0  0.24479  0.95656  0.17723  1.0000
  C   C10       1.0  0.75521  0.04344  0.82277  1.0000
  C   C11       1.0  0.34375  0.85632  0.16643  1.0000
  C   C12       1.0  0.65625  0.14368  0.83357  1.0000
  C   C13       1.0  0.36915  0.79298  0.25929  1.0000
  C   C14       1.0  0.63086  0.20702  0.74071  1.0000
  C   C15       1.0  0.36108  0.80656  0.47049  1.0000
  C   C16       1.0  0.63892  0.19344  0.52951  1.0000
  C   C17       1.0  0.50676  0.74956  0.48455  1.0000
  C   C18       1.0  0.49324  0.25045  0.51545  1.0000
  C   C19       1.0  0.33716  0.91162  0.60722  1.0000
  C   C20       1.0  0.66284  0.08838  0.39278  1.0000
  C   C21       1.0  0.18961  0.96543  0.61759  1.0000
  C   C22       1.0  0.81039  0.03457  0.38241  1.0000
  C   C23       1.0  0.06405  0.85662  0.59000  1.0000
  C   C24       1.0  0.93595  0.14338  0.41000  1.0000
  C   C25       1.0  0.70530  0.63292  0.73787  1.0000
  C   C26       1.0  0.29470  0.36707  0.26213  1.0000
  C   C27       1.0  0.70841  0.62487  0.85345  1.0000
  C   C28       1.0  0.29160  0.37513  0.14655  1.0000
  C   C29       1.0  0.83980  0.63821  0.93096  1.0000
  C   C30       1.0  0.16020  0.36179  0.06904  1.0000
  C   C31       1.0  0.96439  0.65996  0.88639  1.0000
  C   C32       1.0  0.03561  0.34004  0.11361  1.0000
  C   C33       1.0  0.95265  0.66726  0.76957  1.0000
  C   C34       1.0  0.04735  0.33274  0.23043  1.0000
  C   C35       1.0  0.95389  0.69944  0.27490  1.0000
  C   C36       1.0  0.04611  0.30056  0.72509  1.0000
  C   C37       1.0  0.95879  0.70105  0.15725  1.0000
  C   C38       1.0  0.04121  0.29895  0.84275  1.0000
  C   C39       1.0  0.84430  0.63151  0.05491  1.0000
  C   C40       1.0  0.15570  0.36849  0.94508  1.0000
  C   C41       1.0  0.73144  0.55862  0.07607  1.0000
  C   C42       1.0  0.26856  0.44138  0.92393  1.0000
  C   C43       1.0  0.73468  0.56335  0.19719  1.0000
  C   C44       1.0  0.26532  0.43665  0.80281  1.0000
  N   N1        1.0  0.34810  0.87182  0.38304  1.0000
  N   N2        1.0  0.65190  0.12818  0.61697  1.0000
  N   N3        1.0  0.82539  0.65432  0.69628  1.0000
  N   N4        1.0  0.17462  0.34568  0.30372  1.0000
  N   N5        1.0  0.84335  0.63360  0.29597  1.0000
  N   N6        1.0  0.15665  0.36640  0.70403  1.0000
  O   O1        1.0  0.62041  0.81677  0.48195  1.0000
  O   O2        1.0  0.37959  0.18324  0.51805  1.0000
  O   O3        1.0  0.50836  0.64107  0.50596  1.0000
  O   O4        1.0  0.49165  0.35893  0.49404  1.0000
  O   O5        1.0  0.40427  0.66801  0.22058  1.0000
  O   O6        1.0  0.59573  0.33199  0.77943  1.0000
  O   O7        1.0  0.94023  0.90117  0.59334  1.0000
  O   O8        1.0  0.05977  0.09883  0.40666  1.0000
  O   O9        1.0  0.08111  0.72526  0.56054  1.0000
  O   O10       1.0  0.91889  0.27474  0.43946  1.0000
  O   O11       1.0  0.71451  0.42879  0.40013  1.0000
  O   O12       1.0  0.28549  0.57121  0.59986  1.0000
