data_image0
_chemical_formula_structural       Dy4Ag12H24C56N8O44
_chemical_formula_sum              "Dy4 Ag12 H24 C56 N8 O44"
_cell_length_a       8.1367
_cell_length_b       13.8346
_cell_length_c       14.5671
_cell_angle_alpha    90.0001
_cell_angle_beta     89.9999
_cell_angle_gamma    90.0001

_space_group_name_H-M_alt    "P 1"
_space_group_IT_number       1

loop_
  _space_group_symop_operation_xyz
  'x, y, z'

loop_
  _atom_site_type_symbol
  _atom_site_label
  _atom_site_symmetry_multiplicity
  _atom_site_fract_x
  _atom_site_fract_y
  _atom_site_fract_z
  _atom_site_occupancy
  Dy  Dy1       1.0  0.97381  0.75000  0.25000  1.0000
  Dy  Dy2       1.0  0.52618  0.75000  0.75000  1.0000
  Dy  Dy3       1.0  0.02618  0.25000  0.75000  1.0000
  Dy  Dy4       1.0  0.47381  0.25000  0.25000  1.0000
  Ag  Ag1       1.0  0.55250  0.82441  0.01433  1.0000
  Ag  Ag2       1.0  0.94750  0.82441  0.98567  1.0000
  Ag  Ag3       1.0  0.94750  0.67559  0.51433  1.0000
  Ag  Ag4       1.0  0.55250  0.67559  0.48566  1.0000
  Ag  Ag5       1.0  0.44750  0.17559  0.98566  1.0000
  Ag  Ag6       1.0  0.05250  0.17559  0.01433  1.0000
  Ag  Ag7       1.0  0.05250  0.32441  0.48567  1.0000
  Ag  Ag8       1.0  0.44750  0.32441  0.51434  1.0000
  Ag  Ag9       1.0  0.25000  0.55622  0.50000  1.0000
  Ag  Ag10      1.0  0.25000  0.94378  0.00000  1.0000
  Ag  Ag11      1.0  0.75000  0.44378  0.50000  1.0000
  Ag  Ag12      1.0  0.74999  0.05622  1.00000  1.0000
  H   H1        1.0  0.22634  0.73117  0.05564  1.0000
  H   H2        1.0  0.27366  0.73117  0.94436  1.0000
  H   H3        1.0  0.27366  0.76883  0.55564  1.0000
  H   H4        1.0  0.22634  0.76883  0.44436  1.0000
  H   H5        1.0  0.77366  0.26884  0.94436  1.0000
  H   H6        1.0  0.72634  0.26883  0.05564  1.0000
  H   H7        1.0  0.72634  0.23117  0.44436  1.0000
  H   H8        1.0  0.77366  0.23117  0.55564  1.0000
  H   H9        1.0  0.61506  0.47481  0.06772  1.0000
  H   H10       1.0  0.88495  0.47482  0.93227  1.0000
  H   H11       1.0  0.88494  0.02518  0.56773  1.0000
  H   H12       1.0  0.61506  0.02519  0.43228  1.0000
  H   H13       1.0  0.38495  0.52518  0.93227  1.0000
  H   H14       1.0  0.11506  0.52518  0.06773  1.0000
  H   H15       1.0  0.11506  0.97481  0.43228  1.0000
  H   H16       1.0  0.38495  0.97481  0.56773  1.0000
  H   H17       1.0  0.89980  0.35363  0.29144  1.0000
  H   H18       1.0  0.60020  0.35363  0.70856  1.0000
  H   H19       1.0  0.60020  0.14637  0.79144  1.0000
  H   H20       1.0  0.89980  0.14637  0.20856  1.0000
  H   H21       1.0  0.10020  0.64637  0.70856  1.0000
  H   H22       1.0  0.39980  0.64637  0.29144  1.0000
  H   H23       1.0  0.39980  0.85363  0.20856  1.0000
  H   H24       1.0  0.10020  0.85363  0.79144  1.0000
  C   C1        1.0  0.69949  0.66434  0.10741  1.0000
  C   C2        1.0  0.80050  0.66434  0.89259  1.0000
  C   C3        1.0  0.80051  0.83566  0.60741  1.0000
  C   C4        1.0  0.69949  0.83566  0.39259  1.0000
  C   C5        1.0  0.30051  0.33566  0.89259  1.0000
  C   C6        1.0  0.19949  0.33566  0.10741  1.0000
  C   C7        1.0  0.19949  0.16434  0.39259  1.0000
  C   C8        1.0  0.30051  0.16434  0.60741  1.0000
  C   C9        1.0  0.75788  0.57229  0.15082  1.0000
  C   C10       1.0  0.74213  0.57230  0.84918  1.0000
  C   C11       1.0  0.74213  0.92771  0.65082  1.0000
  C   C12       1.0  0.75788  0.92771  0.34918  1.0000
  C   C13       1.0  0.24213  0.42771  0.84918  1.0000
  C   C14       1.0  0.25788  0.42771  0.15082  1.0000
  C   C15       1.0  0.25787  0.07229  0.34918  1.0000
  C   C16       1.0  0.24213  0.07229  0.65082  1.0000
  C   C17       1.0  0.70177  0.48174  0.12431  1.0000
  C   C18       1.0  0.79823  0.48175  0.87568  1.0000
  C   C19       1.0  0.79823  0.01826  0.62432  1.0000
  C   C20       1.0  0.70177  0.01826  0.37568  1.0000
  C   C21       1.0  0.29823  0.51826  0.87568  1.0000
  C   C22       1.0  0.20177  0.51826  0.12432  1.0000
  C   C23       1.0  0.20177  0.98174  0.37569  1.0000
  C   C24       1.0  0.29823  0.98174  0.62432  1.0000
  C   C25       1.0  0.74833  0.39927  0.17587  1.0000
  C   C26       1.0  0.75167  0.39927  0.82413  1.0000
  C   C27       1.0  0.75167  0.10073  0.67587  1.0000
  C   C28       1.0  0.74833  0.10073  0.32413  1.0000
  C   C29       1.0  0.25167  0.60073  0.82413  1.0000
  C   C30       1.0  0.24833  0.60073  0.17587  1.0000
  C   C31       1.0  0.24833  0.89927  0.32413  1.0000
  C   C32       1.0  0.25167  0.89927  0.67587  1.0000
  C   C33       1.0  0.86016  0.41456  0.24949  1.0000
  C   C34       1.0  0.63983  0.41456  0.75051  1.0000
  C   C35       1.0  0.63984  0.08544  0.74949  1.0000
  C   C36       1.0  0.86016  0.08544  0.25051  1.0000
  C   C37       1.0  0.13984  0.58544  0.75051  1.0000
  C   C38       1.0  0.36016  0.58544  0.24949  1.0000
  C   C39       1.0  0.36016  0.91456  0.25051  1.0000
  C   C40       1.0  0.13984  0.91456  0.74949  1.0000
  C   C41       1.0  0.91040  0.50795  0.26972  1.0000
  C   C42       1.0  0.58960  0.50795  0.73027  1.0000
  C   C43       1.0  0.58960  0.99205  0.76973  1.0000
  C   C44       1.0  0.91040  0.99205  0.23027  1.0000
  C   C45       1.0  0.08960  0.49205  0.73027  1.0000
  C   C46       1.0  0.41040  0.49205  0.26973  1.0000
  C   C47       1.0  0.41040  0.00795  0.23027  1.0000
  C   C48       1.0  0.08960  0.00795  0.76973  1.0000
  C   C49       1.0  0.01984  0.53372  0.34832  1.0000
  C   C50       1.0  0.48016  0.53372  0.65168  1.0000
  C   C51       1.0  0.48017  0.96628  0.84832  1.0000
  C   C52       1.0  0.01983  0.96628  0.15168  1.0000
  C   C53       1.0  0.98016  0.46628  0.65168  1.0000
  C   C54       1.0  0.51983  0.46628  0.34832  1.0000
  C   C55       1.0  0.51983  0.03372  0.15168  1.0000
  C   C56       1.0  0.98017  0.03372  0.84832  1.0000
  N   N1        1.0  0.86087  0.58613  0.22173  1.0000
  N   N2        1.0  0.63913  0.58613  0.77827  1.0000
  N   N3        1.0  0.63914  0.91387  0.72173  1.0000
  N   N4        1.0  0.86086  0.91387  0.27827  1.0000
  N   N5        1.0  0.13913  0.41387  0.77827  1.0000
  N   N6        1.0  0.36087  0.41387  0.22173  1.0000
  N   N7        1.0  0.36086  0.08613  0.27827  1.0000
  N   N8        1.0  0.13914  0.08613  0.72173  1.0000
  O   O1        1.0  0.77238  0.74271  0.13361  1.0000
  O   O2        1.0  0.72762  0.74272  0.86639  1.0000
  O   O3        1.0  0.72762  0.75729  0.63361  1.0000
  O   O4        1.0  0.77238  0.75729  0.36639  1.0000
  O   O5        1.0  0.22762  0.25728  0.86639  1.0000
  O   O6        1.0  0.27238  0.25729  0.13361  1.0000
  O   O7        1.0  0.27238  0.24271  0.36639  1.0000
  O   O8        1.0  0.22762  0.24271  0.63361  1.0000
  O   O9        1.0  0.58299  0.66180  0.05086  1.0000
  O   O10       1.0  0.91700  0.66181  0.94914  1.0000
  O   O11       1.0  0.91701  0.83820  0.55086  1.0000
  O   O12       1.0  0.58299  0.83820  0.44914  1.0000
  O   O13       1.0  0.41701  0.33820  0.94914  1.0000
  O   O14       1.0  0.08299  0.33820  0.05086  1.0000
  O   O15       1.0  0.08299  0.16180  0.44914  1.0000
  O   O16       1.0  0.41701  0.16180  0.55086  1.0000
  O   O17       1.0  0.68380  0.31379  0.15990  1.0000
  O   O18       1.0  0.81620  0.31379  0.84010  1.0000
  O   O19       1.0  0.81620  0.18621  0.65990  1.0000
  O   O20       1.0  0.68380  0.18621  0.34010  1.0000
  O   O21       1.0  0.31620  0.68621  0.84010  1.0000
  O   O22       1.0  0.18380  0.68621  0.15990  1.0000
  O   O23       1.0  0.18380  0.81379  0.34010  1.0000
  O   O24       1.0  0.31620  0.81379  0.65990  1.0000
  O   O25       1.0  0.08064  0.46904  0.40047  1.0000
  O   O26       1.0  0.41936  0.46904  0.59953  1.0000
  O   O27       1.0  0.41936  0.03096  0.90047  1.0000
  O   O28       1.0  0.08064  0.03096  0.09953  1.0000
  O   O29       1.0  0.91936  0.53096  0.59953  1.0000
  O   O30       1.0  0.58064  0.53096  0.40047  1.0000
  O   O31       1.0  0.58063  0.96904  0.09953  1.0000
  O   O32       1.0  0.91936  0.96904  0.90047  1.0000
  O   O33       1.0  0.04851  0.62397  0.35997  1.0000
  O   O34       1.0  0.45149  0.62397  0.64003  1.0000
  O   O35       1.0  0.45148  0.87602  0.85997  1.0000
  O   O36       1.0  0.04851  0.87603  0.14003  1.0000
  O   O37       1.0  0.95148  0.37603  0.64003  1.0000
  O   O38       1.0  0.54851  0.37602  0.35997  1.0000
  O   O39       1.0  0.54851  0.12397  0.14003  1.0000
  O   O40       1.0  0.95149  0.12398  0.85997  1.0000
  O   O41       1.0  0.25000  0.77160  1.00000  1.0000
  O   O42       1.0  0.25000  0.72840  0.50000  1.0000
  O   O43       1.0  0.75000  0.22840  1.00000  1.0000
  O   O44       1.0  0.75000  0.27160  0.50000  1.0000
