data_image0
_chemical_formula_structural       Tm4Ag12H24C56N8O44
_chemical_formula_sum              "Tm4 Ag12 H24 C56 N8 O44"
_cell_length_a       8.14488
_cell_length_b       13.7709
_cell_length_c       14.5664
_cell_angle_alpha    89.9999
_cell_angle_beta     90.0001
_cell_angle_gamma    90

_space_group_name_H-M_alt    "P 1"
_space_group_IT_number       1

loop_
  _space_group_symop_operation_xyz
  'x, y, z'

loop_
  _atom_site_type_symbol
  _atom_site_label
  _atom_site_symmetry_multiplicity
  _atom_site_fract_x
  _atom_site_fract_y
  _atom_site_fract_z
  _atom_site_occupancy
  Tm  Tm1       1.0  0.97365  0.25000  0.75000  1.0000
  Tm  Tm2       1.0  0.52635  0.25000  0.25000  1.0000
  Tm  Tm3       1.0  0.02635  0.75000  0.25000  1.0000
  Tm  Tm4       1.0  0.47365  0.75000  0.75000  1.0000
  Ag  Ag1       1.0  0.25000  0.05691  0.50000  1.0000
  Ag  Ag2       1.0  0.25000  0.44308  1.00000  1.0000
  Ag  Ag3       1.0  0.75000  0.94309  0.50000  1.0000
  Ag  Ag4       1.0  0.75000  0.55691  0.00000  1.0000
  Ag  Ag5       1.0  0.55082  0.17433  0.51494  1.0000
  Ag  Ag6       1.0  0.94918  0.17432  0.48506  1.0000
  Ag  Ag7       1.0  0.94918  0.32567  0.01494  1.0000
  Ag  Ag8       1.0  0.55082  0.32567  0.98506  1.0000
  Ag  Ag9       1.0  0.44918  0.82567  0.48506  1.0000
  Ag  Ag10      1.0  0.05082  0.82567  0.51494  1.0000
  Ag  Ag11      1.0  0.05081  0.67433  0.98506  1.0000
  Ag  Ag12      1.0  0.44918  0.67433  0.01494  1.0000
  H   H1        1.0  0.27534  0.22964  0.05553  1.0000
  H   H2        1.0  0.22466  0.22964  0.94447  1.0000
  H   H3        1.0  0.22466  0.27035  0.55553  1.0000
  H   H4        1.0  0.27534  0.27035  0.44447  1.0000
  H   H5        1.0  0.72466  0.77036  0.94447  1.0000
  H   H6        1.0  0.77534  0.77036  0.05553  1.0000
  H   H7        1.0  0.77534  0.72965  0.44447  1.0000
  H   H8        1.0  0.72466  0.72965  0.55553  1.0000
  H   H9        1.0  0.89703  0.64619  0.79216  1.0000
  H   H10       1.0  0.60297  0.64619  0.20784  1.0000
  H   H11       1.0  0.60297  0.85381  0.29216  1.0000
  H   H12       1.0  0.89703  0.85381  0.70784  1.0000
  H   H13       1.0  0.10297  0.35381  0.20784  1.0000
  H   H14       1.0  0.39702  0.35381  0.79216  1.0000
  H   H15       1.0  0.39702  0.14619  0.70784  1.0000
  H   H16       1.0  0.10297  0.14619  0.29216  1.0000
  H   H17       1.0  0.61327  0.52372  0.56874  1.0000
  H   H18       1.0  0.88673  0.52372  0.43126  1.0000
  H   H19       1.0  0.88673  0.97628  0.06874  1.0000
  H   H20       1.0  0.61327  0.97629  0.93126  1.0000
  H   H21       1.0  0.38673  0.47628  0.43126  1.0000
  H   H22       1.0  0.11327  0.47628  0.56874  1.0000
  H   H23       1.0  0.11327  0.02371  0.93126  1.0000
  H   H24       1.0  0.38673  0.02372  0.06874  1.0000
  C   C1        1.0  0.02011  0.46513  0.84812  1.0000
  C   C2        1.0  0.47989  0.46513  0.15188  1.0000
  C   C3        1.0  0.47989  0.03487  0.34812  1.0000
  C   C4        1.0  0.02011  0.03487  0.65188  1.0000
  C   C5        1.0  0.97989  0.53487  0.15188  1.0000
  C   C6        1.0  0.52011  0.53487  0.84812  1.0000
  C   C7        1.0  0.52011  0.96513  0.65188  1.0000
  C   C8        1.0  0.97989  0.96513  0.34812  1.0000
  C   C9        1.0  0.91023  0.49134  0.77004  1.0000
  C   C10       1.0  0.58977  0.49134  0.22996  1.0000
  C   C11       1.0  0.58977  0.00866  0.27004  1.0000
  C   C12       1.0  0.91023  0.00866  0.72996  1.0000
  C   C13       1.0  0.08977  0.50866  0.22996  1.0000
  C   C14       1.0  0.41023  0.50866  0.77004  1.0000
  C   C15       1.0  0.41023  0.99134  0.72996  1.0000
  C   C16       1.0  0.08977  0.99134  0.27004  1.0000
  C   C17       1.0  0.85821  0.58492  0.75018  1.0000
  C   C18       1.0  0.64179  0.58492  0.24982  1.0000
  C   C19       1.0  0.64179  0.91508  0.25018  1.0000
  C   C20       1.0  0.85821  0.91509  0.74982  1.0000
  C   C21       1.0  0.14179  0.41508  0.24982  1.0000
  C   C22       1.0  0.35821  0.41508  0.75018  1.0000
  C   C23       1.0  0.35821  0.08492  0.74982  1.0000
  C   C24       1.0  0.14179  0.08492  0.25018  1.0000
  C   C25       1.0  0.74556  0.60001  0.67692  1.0000
  C   C26       1.0  0.75444  0.60001  0.32308  1.0000
  C   C27       1.0  0.75444  0.89999  0.17692  1.0000
  C   C28       1.0  0.74556  0.89999  0.82308  1.0000
  C   C29       1.0  0.25444  0.39999  0.32308  1.0000
  C   C30       1.0  0.24556  0.39999  0.67692  1.0000
  C   C31       1.0  0.24556  0.10001  0.82308  1.0000
  C   C32       1.0  0.25444  0.10001  0.17692  1.0000
  C   C33       1.0  0.70048  0.51713  0.62512  1.0000
  C   C34       1.0  0.79952  0.51713  0.37488  1.0000
  C   C35       1.0  0.79952  0.98287  0.12512  1.0000
  C   C36       1.0  0.70048  0.98287  0.87488  1.0000
  C   C37       1.0  0.29952  0.48287  0.37488  1.0000
  C   C38       1.0  0.20048  0.48287  0.62512  1.0000
  C   C39       1.0  0.20048  0.01713  0.87488  1.0000
  C   C40       1.0  0.29952  0.01713  0.12512  1.0000
  C   C41       1.0  0.75808  0.42642  0.65144  1.0000
  C   C42       1.0  0.74192  0.42642  0.34856  1.0000
  C   C43       1.0  0.74192  0.07358  0.15144  1.0000
  C   C44       1.0  0.75808  0.07358  0.84856  1.0000
  C   C45       1.0  0.24192  0.57358  0.34855  1.0000
  C   C46       1.0  0.25808  0.57358  0.65144  1.0000
  C   C47       1.0  0.25808  0.92642  0.84856  1.0000
  C   C48       1.0  0.24192  0.92642  0.15144  1.0000
  C   C49       1.0  0.70139  0.33357  0.60848  1.0000
  C   C50       1.0  0.79861  0.33357  0.39152  1.0000
  C   C51       1.0  0.79861  0.16643  0.10848  1.0000
  C   C52       1.0  0.70139  0.16643  0.89152  1.0000
  C   C53       1.0  0.29861  0.66643  0.39152  1.0000
  C   C54       1.0  0.20139  0.66643  0.60848  1.0000
  C   C55       1.0  0.20139  0.83357  0.89152  1.0000
  C   C56       1.0  0.29862  0.83357  0.10848  1.0000
  N   N1        1.0  0.86140  0.41267  0.72209  1.0000
  N   N2        1.0  0.63860  0.41267  0.27791  1.0000
  N   N3        1.0  0.63860  0.08733  0.22209  1.0000
  N   N4        1.0  0.86140  0.08733  0.77791  1.0000
  N   N5        1.0  0.13860  0.58733  0.27791  1.0000
  N   N6        1.0  0.36140  0.58733  0.72209  1.0000
  N   N7        1.0  0.36140  0.91267  0.77791  1.0000
  N   N8        1.0  0.13860  0.91267  0.22209  1.0000
  O   O1        1.0  0.04952  0.37447  0.85899  1.0000
  O   O2        1.0  0.45048  0.37447  0.14102  1.0000
  O   O3        1.0  0.45049  0.12553  0.35899  1.0000
  O   O4        1.0  0.04952  0.12553  0.64101  1.0000
  O   O5        1.0  0.95048  0.62553  0.14101  1.0000
  O   O6        1.0  0.54951  0.62553  0.85899  1.0000
  O   O7        1.0  0.54952  0.87447  0.64101  1.0000
  O   O8        1.0  0.95048  0.87447  0.35899  1.0000
  O   O9        1.0  0.08074  0.52978  0.90073  1.0000
  O   O10       1.0  0.41926  0.52978  0.09927  1.0000
  O   O11       1.0  0.41926  0.97022  0.40073  1.0000
  O   O12       1.0  0.08073  0.97022  0.59927  1.0000
  O   O13       1.0  0.91926  0.47022  0.09927  1.0000
  O   O14       1.0  0.58074  0.47022  0.90073  1.0000
  O   O15       1.0  0.58074  0.02978  0.59927  1.0000
  O   O16       1.0  0.91926  0.02978  0.40073  1.0000
  O   O17       1.0  0.67918  0.68549  0.66133  1.0000
  O   O18       1.0  0.82082  0.68549  0.33867  1.0000
  O   O19       1.0  0.82082  0.81451  0.16133  1.0000
  O   O20       1.0  0.67918  0.81451  0.83867  1.0000
  O   O21       1.0  0.32082  0.31451  0.33867  1.0000
  O   O22       1.0  0.17918  0.31451  0.66133  1.0000
  O   O23       1.0  0.17918  0.18549  0.83867  1.0000
  O   O24       1.0  0.32082  0.18549  0.16133  1.0000
  O   O25       1.0  0.58506  0.33553  0.55179  1.0000
  O   O26       1.0  0.91494  0.33552  0.44821  1.0000
  O   O27       1.0  0.91494  0.16448  0.05179  1.0000
  O   O28       1.0  0.58506  0.16447  0.94821  1.0000
  O   O29       1.0  0.41494  0.66448  0.44821  1.0000
  O   O30       1.0  0.08506  0.66448  0.55179  1.0000
  O   O31       1.0  0.08506  0.83553  0.94821  1.0000
  O   O32       1.0  0.41494  0.83552  0.05179  1.0000
  O   O33       1.0  0.77506  0.25547  0.63535  1.0000
  O   O34       1.0  0.72494  0.25547  0.36465  1.0000
  O   O35       1.0  0.72494  0.24453  0.13535  1.0000
  O   O36       1.0  0.77505  0.24453  0.86466  1.0000
  O   O37       1.0  0.22494  0.74453  0.36465  1.0000
  O   O38       1.0  0.27506  0.74453  0.63535  1.0000
  O   O39       1.0  0.27506  0.75547  0.86466  1.0000
  O   O40       1.0  0.22495  0.75547  0.13535  1.0000
  O   O41       1.0  0.25000  0.26987  1.00000  1.0000
  O   O42       1.0  0.25000  0.23013  0.50000  1.0000
  O   O43       1.0  0.75000  0.73013  1.00000  1.0000
  O   O44       1.0  0.75000  0.76987  0.50000  1.0000
