data_image0
_chemical_formula_structural       Nd2Ag2H24C28N4O26
_chemical_formula_sum              "Nd2 Ag2 H24 C28 N4 O26"
_cell_length_a       6.53824
_cell_length_b       6.53822
_cell_length_c       20.428
_cell_angle_alpha    96.0316
_cell_angle_beta     96.0324
_cell_angle_gamma    102.972

_space_group_name_H-M_alt    "P 1"
_space_group_IT_number       1

loop_
  _space_group_symop_operation_xyz
  'x, y, z'

loop_
  _atom_site_type_symbol
  _atom_site_label
  _atom_site_symmetry_multiplicity
  _atom_site_fract_x
  _atom_site_fract_y
  _atom_site_fract_z
  _atom_site_occupancy
  Nd  Nd1       1.0  0.96304  0.03696  0.75000  1.0000
  Nd  Nd2       1.0  0.03696  0.96304  0.25000  1.0000
  Ag  Ag1       1.0  0.37844  0.62156  0.75000  1.0000
  Ag  Ag2       1.0  0.62155  0.37845  0.25000  1.0000
  H   H1        1.0  0.57396  0.62870  0.49965  1.0000
  H   H2        1.0  0.37130  0.42603  0.00035  1.0000
  H   H3        1.0  0.42603  0.37130  0.50035  1.0000
  H   H4        1.0  0.62870  0.57397  0.99965  1.0000
  H   H5        1.0  0.87687  0.28381  0.49440  1.0000
  H   H6        1.0  0.71619  0.12312  0.00560  1.0000
  H   H7        1.0  0.12313  0.71617  0.50560  1.0000
  H   H8        1.0  0.28382  0.87687  0.99440  1.0000
  H   H9        1.0  0.56743  0.77200  0.40626  1.0000
  H   H10       1.0  0.22800  0.43257  0.09374  1.0000
  H   H11       1.0  0.43257  0.22799  0.59374  1.0000
  H   H12       1.0  0.77201  0.56743  0.90626  1.0000
  H   H13       1.0  0.27900  0.97024  0.65174  1.0000
  H   H14       1.0  0.02976  0.72100  0.84827  1.0000
  H   H15       1.0  0.72100  0.02975  0.34826  1.0000
  H   H16       1.0  0.97025  0.27901  0.15174  1.0000
  H   H17       1.0  0.14849  0.74239  0.65395  1.0000
  H   H18       1.0  0.25762  0.85151  0.84606  1.0000
  H   H19       1.0  0.85151  0.25761  0.34605  1.0000
  H   H20       1.0  0.74239  0.14850  0.15395  1.0000
  H   H21       1.0  0.58161  0.26494  0.76919  1.0000
  H   H22       1.0  0.73506  0.41839  0.73081  1.0000
  H   H23       1.0  0.41839  0.73507  0.23081  1.0000
  H   H24       1.0  0.26494  0.58161  0.26919  1.0000
  C   C1        1.0  0.66688  0.63887  0.63452  1.0000
  C   C2        1.0  0.36113  0.33312  0.86548  1.0000
  C   C3        1.0  0.33312  0.36113  0.36548  1.0000
  C   C4        1.0  0.63887  0.66689  0.13452  1.0000
  C   C5        1.0  0.71999  0.81614  0.59292  1.0000
  C   C6        1.0  0.18386  0.28000  0.90708  1.0000
  C   C7        1.0  0.28001  0.18386  0.40708  1.0000
  C   C8        1.0  0.81614  0.72000  0.09292  1.0000
  C   C9        1.0  0.66045  0.78260  0.52488  1.0000
  C   C10       1.0  0.21741  0.33954  0.97512  1.0000
  C   C11       1.0  0.33954  0.21740  0.47512  1.0000
  C   C12       1.0  0.78260  0.66046  0.02488  1.0000
  C   C13       1.0  0.71311  0.95078  0.48787  1.0000
  C   C14       1.0  0.04922  0.28689  0.01213  1.0000
  C   C15       1.0  0.28689  0.04921  0.51213  1.0000
  C   C16       1.0  0.95079  0.71311  0.98787  1.0000
  C   C17       1.0  0.82917  0.14849  0.52098  1.0000
  C   C18       1.0  0.85152  0.17083  0.97902  1.0000
  C   C19       1.0  0.17083  0.85150  0.47902  1.0000
  C   C20       1.0  0.14849  0.82917  0.02098  1.0000
  C   C21       1.0  0.88703  0.16523  0.58941  1.0000
  C   C22       1.0  0.83477  0.11297  0.91059  1.0000
  C   C23       1.0  0.11297  0.83477  0.41059  1.0000
  C   C24       1.0  0.16523  0.88703  0.08941  1.0000
  C   C25       1.0  0.02672  0.36510  0.62893  1.0000
  C   C26       1.0  0.63491  0.97328  0.87107  1.0000
  C   C27       1.0  0.97327  0.63491  0.37107  1.0000
  C   C28       1.0  0.36510  0.02673  0.12893  1.0000
  N   N1        1.0  0.83147  0.00425  0.62499  1.0000
  N   N2        1.0  0.99576  0.16853  0.87500  1.0000
  N   N3        1.0  0.16853  0.99575  0.37500  1.0000
  N   N4        1.0  0.00424  0.83148  0.12499  1.0000
  O   O1        1.0  0.74297  0.67948  0.69674  1.0000
  O   O2        1.0  0.32052  0.25702  0.80326  1.0000
  O   O3        1.0  0.25703  0.32053  0.30326  1.0000
  O   O4        1.0  0.67948  0.74298  0.19674  1.0000
  O   O5        1.0  0.55270  0.46527  0.60662  1.0000
  O   O6        1.0  0.53472  0.44730  0.89338  1.0000
  O   O7        1.0  0.44730  0.53472  0.39338  1.0000
  O   O8        1.0  0.46528  0.55271  0.10662  1.0000
  O   O9        1.0  0.65283  0.92237  0.42169  1.0000
  O   O10       1.0  0.07763  0.34717  0.07831  1.0000
  O   O11       1.0  0.34717  0.07762  0.57831  1.0000
  O   O12       1.0  0.92238  0.65283  0.92169  1.0000
  O   O13       1.0  0.06392  0.53167  0.60225  1.0000
  O   O14       1.0  0.46833  0.93608  0.89775  1.0000
  O   O15       1.0  0.93608  0.46832  0.39775  1.0000
  O   O16       1.0  0.53166  0.06393  0.10225  1.0000
  O   O17       1.0  0.10004  0.34742  0.68881  1.0000
  O   O18       1.0  0.65258  0.89996  0.81119  1.0000
  O   O19       1.0  0.89995  0.65258  0.31119  1.0000
  O   O20       1.0  0.34742  0.10005  0.18881  1.0000
  O   O21       1.0  0.21208  0.88235  0.68367  1.0000
  O   O22       1.0  0.11765  0.78792  0.81633  1.0000
  O   O23       1.0  0.78792  0.11765  0.31633  1.0000
  O   O24       1.0  0.88235  0.21208  0.18367  1.0000
  O   O25       1.0  0.71644  0.28356  0.75000  1.0000
  O   O26       1.0  0.28356  0.71644  0.25000  1.0000
