data_image0
_chemical_formula_structural       Gd4Ag12H24C56N8O44
_chemical_formula_sum              "Gd4 Ag12 H24 C56 N8 O44"
_cell_length_a       8.03559
_cell_length_b       13.9161
_cell_length_c       14.6129
_cell_angle_alpha    90.0001
_cell_angle_beta     90
_cell_angle_gamma    90

_space_group_name_H-M_alt    "P 1"
_space_group_IT_number       1

loop_
  _space_group_symop_operation_xyz
  'x, y, z'

loop_
  _atom_site_type_symbol
  _atom_site_label
  _atom_site_symmetry_multiplicity
  _atom_site_fract_x
  _atom_site_fract_y
  _atom_site_fract_z
  _atom_site_occupancy
  Gd  Gd1       1.0  0.96907  0.75000  0.25000  1.0000
  Gd  Gd2       1.0  0.53093  0.75000  0.75000  1.0000
  Gd  Gd3       1.0  0.03093  0.25000  0.75000  1.0000
  Gd  Gd4       1.0  0.46907  0.25000  0.25000  1.0000
  Ag  Ag1       1.0  0.55602  0.82354  0.01460  1.0000
  Ag  Ag2       1.0  0.94398  0.82354  0.98541  1.0000
  Ag  Ag3       1.0  0.94398  0.67646  0.51460  1.0000
  Ag  Ag4       1.0  0.55602  0.67646  0.48540  1.0000
  Ag  Ag5       1.0  0.44398  0.17646  0.98540  1.0000
  Ag  Ag6       1.0  0.05602  0.17646  0.01460  1.0000
  Ag  Ag7       1.0  0.05601  0.32354  0.48540  1.0000
  Ag  Ag8       1.0  0.44398  0.32354  0.51460  1.0000
  Ag  Ag9       1.0  0.25000  0.94419  0.00000  1.0000
  Ag  Ag10      1.0  0.25000  0.55581  0.50000  1.0000
  Ag  Ag11      1.0  0.75000  0.05581  1.00000  1.0000
  Ag  Ag12      1.0  0.75000  0.44419  0.50000  1.0000
  H   H1        1.0  0.27345  0.76749  0.55549  1.0000
  H   H2        1.0  0.22655  0.76749  0.44451  1.0000
  H   H3        1.0  0.22655  0.73251  0.05549  1.0000
  H   H4        1.0  0.27345  0.73251  0.94451  1.0000
  H   H5        1.0  0.72655  0.23251  0.44451  1.0000
  H   H6        1.0  0.77345  0.23251  0.55549  1.0000
  H   H7        1.0  0.77345  0.26748  0.94451  1.0000
  H   H8        1.0  0.72655  0.26749  0.05549  1.0000
  H   H9        1.0  0.61441  0.47199  0.06559  1.0000
  H   H10       1.0  0.88559  0.47199  0.93442  1.0000
  H   H11       1.0  0.88559  0.02801  0.56559  1.0000
  H   H12       1.0  0.61441  0.02801  0.43441  1.0000
  H   H13       1.0  0.38559  0.52801  0.93441  1.0000
  H   H14       1.0  0.11441  0.52801  0.06559  1.0000
  H   H15       1.0  0.11441  0.97199  0.43442  1.0000
  H   H16       1.0  0.38559  0.97199  0.56558  1.0000
  H   H17       1.0  0.90080  0.35438  0.29056  1.0000
  H   H18       1.0  0.59920  0.35438  0.70945  1.0000
  H   H19       1.0  0.59920  0.14562  0.79055  1.0000
  H   H20       1.0  0.90080  0.14562  0.20945  1.0000
  H   H21       1.0  0.09920  0.64562  0.70945  1.0000
  H   H22       1.0  0.40080  0.64562  0.29055  1.0000
  H   H23       1.0  0.40080  0.85438  0.20945  1.0000
  H   H24       1.0  0.09920  0.85438  0.79055  1.0000
  C   C1        1.0  0.69329  0.66110  0.10532  1.0000
  C   C2        1.0  0.80671  0.66110  0.89468  1.0000
  C   C3        1.0  0.80671  0.83890  0.60532  1.0000
  C   C4        1.0  0.69329  0.83890  0.39468  1.0000
  C   C5        1.0  0.30671  0.33891  0.89468  1.0000
  C   C6        1.0  0.19329  0.33890  0.10532  1.0000
  C   C7        1.0  0.19329  0.16110  0.39468  1.0000
  C   C8        1.0  0.30671  0.16109  0.60532  1.0000
  C   C9        1.0  0.75414  0.57039  0.14950  1.0000
  C   C10       1.0  0.74586  0.57039  0.85050  1.0000
  C   C11       1.0  0.74586  0.92961  0.64950  1.0000
  C   C12       1.0  0.75414  0.92961  0.35050  1.0000
  C   C13       1.0  0.24586  0.42961  0.85050  1.0000
  C   C14       1.0  0.25415  0.42961  0.14950  1.0000
  C   C15       1.0  0.25414  0.07039  0.35050  1.0000
  C   C16       1.0  0.24586  0.07039  0.64950  1.0000
  C   C17       1.0  0.70057  0.47988  0.12263  1.0000
  C   C18       1.0  0.79943  0.47988  0.87737  1.0000
  C   C19       1.0  0.79943  0.02012  0.62263  1.0000
  C   C20       1.0  0.70057  0.02012  0.37737  1.0000
  C   C21       1.0  0.29943  0.52012  0.87737  1.0000
  C   C22       1.0  0.20057  0.52012  0.12263  1.0000
  C   C23       1.0  0.20057  0.97988  0.37737  1.0000
  C   C24       1.0  0.29943  0.97988  0.62263  1.0000
  C   C25       1.0  0.74841  0.39841  0.17461  1.0000
  C   C26       1.0  0.75159  0.39841  0.82539  1.0000
  C   C27       1.0  0.75159  0.10159  0.67461  1.0000
  C   C28       1.0  0.74841  0.10159  0.32539  1.0000
  C   C29       1.0  0.25159  0.60160  0.82539  1.0000
  C   C30       1.0  0.24841  0.60159  0.17461  1.0000
  C   C31       1.0  0.24841  0.89841  0.32539  1.0000
  C   C32       1.0  0.25159  0.89840  0.67461  1.0000
  C   C33       1.0  0.85963  0.41462  0.24868  1.0000
  C   C34       1.0  0.64037  0.41462  0.75132  1.0000
  C   C35       1.0  0.64037  0.08538  0.74868  1.0000
  C   C36       1.0  0.85963  0.08538  0.25132  1.0000
  C   C37       1.0  0.14037  0.58538  0.75132  1.0000
  C   C38       1.0  0.35963  0.58538  0.24868  1.0000
  C   C39       1.0  0.35963  0.91462  0.25132  1.0000
  C   C40       1.0  0.14037  0.91462  0.74868  1.0000
  C   C41       1.0  0.90767  0.50785  0.26920  1.0000
  C   C42       1.0  0.59233  0.50784  0.73080  1.0000
  C   C43       1.0  0.59233  0.99215  0.76920  1.0000
  C   C44       1.0  0.90767  0.99215  0.23080  1.0000
  C   C45       1.0  0.09233  0.49215  0.73080  1.0000
  C   C46       1.0  0.40767  0.49215  0.26919  1.0000
  C   C47       1.0  0.40767  0.00785  0.23080  1.0000
  C   C48       1.0  0.09233  0.00784  0.76919  1.0000
  C   C49       1.0  0.01638  0.53375  0.34837  1.0000
  C   C50       1.0  0.48362  0.53375  0.65164  1.0000
  C   C51       1.0  0.48362  0.96625  0.84836  1.0000
  C   C52       1.0  0.01638  0.96625  0.15163  1.0000
  C   C53       1.0  0.98362  0.46625  0.65164  1.0000
  C   C54       1.0  0.51638  0.46625  0.34837  1.0000
  C   C55       1.0  0.51638  0.03375  0.15163  1.0000
  C   C56       1.0  0.98362  0.03375  0.84836  1.0000
  N   N1        1.0  0.85617  0.58511  0.22110  1.0000
  N   N2        1.0  0.64383  0.58511  0.77890  1.0000
  N   N3        1.0  0.64383  0.91489  0.72110  1.0000
  N   N4        1.0  0.85617  0.91489  0.27890  1.0000
  N   N5        1.0  0.14383  0.41489  0.77890  1.0000
  N   N6        1.0  0.35618  0.41489  0.22110  1.0000
  N   N7        1.0  0.35617  0.08511  0.27890  1.0000
  N   N8        1.0  0.14383  0.08511  0.72110  1.0000
  O   O1        1.0  0.76304  0.74016  0.13234  1.0000
  O   O2        1.0  0.73696  0.74016  0.86766  1.0000
  O   O3        1.0  0.73697  0.75984  0.63234  1.0000
  O   O4        1.0  0.76304  0.75984  0.36766  1.0000
  O   O5        1.0  0.23697  0.25984  0.86766  1.0000
  O   O6        1.0  0.26303  0.25984  0.13234  1.0000
  O   O7        1.0  0.26304  0.24016  0.36766  1.0000
  O   O8        1.0  0.23696  0.24016  0.63234  1.0000
  O   O9        1.0  0.57822  0.65740  0.04741  1.0000
  O   O10       1.0  0.92178  0.65740  0.95259  1.0000
  O   O11       1.0  0.92178  0.84260  0.54741  1.0000
  O   O12       1.0  0.57822  0.84260  0.45259  1.0000
  O   O13       1.0  0.42178  0.34260  0.95259  1.0000
  O   O14       1.0  0.07822  0.34260  0.04741  1.0000
  O   O15       1.0  0.07822  0.15740  0.45259  1.0000
  O   O16       1.0  0.42178  0.15740  0.54741  1.0000
  O   O17       1.0  0.68547  0.31286  0.15869  1.0000
  O   O18       1.0  0.81453  0.31286  0.84132  1.0000
  O   O19       1.0  0.81453  0.18714  0.65869  1.0000
  O   O20       1.0  0.68546  0.18714  0.34132  1.0000
  O   O21       1.0  0.31454  0.68714  0.84131  1.0000
  O   O22       1.0  0.18546  0.68714  0.15869  1.0000
  O   O23       1.0  0.18547  0.81286  0.34131  1.0000
  O   O24       1.0  0.31454  0.81286  0.65869  1.0000
  O   O25       1.0  0.07908  0.46938  0.39983  1.0000
  O   O26       1.0  0.42092  0.46937  0.60018  1.0000
  O   O27       1.0  0.42092  0.03063  0.89983  1.0000
  O   O28       1.0  0.07908  0.03063  0.10017  1.0000
  O   O29       1.0  0.92092  0.53063  0.60017  1.0000
  O   O30       1.0  0.57908  0.53063  0.39983  1.0000
  O   O31       1.0  0.57908  0.96937  0.10017  1.0000
  O   O32       1.0  0.92092  0.96937  0.89983  1.0000
  O   O33       1.0  0.04276  0.62361  0.36102  1.0000
  O   O34       1.0  0.45724  0.62361  0.63898  1.0000
  O   O35       1.0  0.45724  0.87639  0.86102  1.0000
  O   O36       1.0  0.04276  0.87639  0.13898  1.0000
  O   O37       1.0  0.95724  0.37639  0.63898  1.0000
  O   O38       1.0  0.54276  0.37639  0.36102  1.0000
  O   O39       1.0  0.54276  0.12361  0.13898  1.0000
  O   O40       1.0  0.95724  0.12361  0.86102  1.0000
  O   O41       1.0  0.25000  0.72709  0.50000  1.0000
  O   O42       1.0  0.25000  0.77291  0.00000  1.0000
  O   O43       1.0  0.75000  0.27291  0.50000  1.0000
  O   O44       1.0  0.75000  0.22709  1.00000  1.0000
