data_image0
_chemical_formula_structural       Sm2Ag2H24C28N4O26
_chemical_formula_sum              "Sm2 Ag2 H24 C28 N4 O26"
_cell_length_a       6.53803
_cell_length_b       6.53801
_cell_length_c       20.289
_cell_angle_alpha    96.0566
_cell_angle_beta     96.0567
_cell_angle_gamma    103.117

_space_group_name_H-M_alt    "P 1"
_space_group_IT_number       1

loop_
  _space_group_symop_operation_xyz
  'x, y, z'

loop_
  _atom_site_type_symbol
  _atom_site_label
  _atom_site_symmetry_multiplicity
  _atom_site_fract_x
  _atom_site_fract_y
  _atom_site_fract_z
  _atom_site_occupancy
  Sm  Sm1       1.0  0.96559  0.03441  0.75000  1.0000
  Sm  Sm2       1.0  0.03441  0.96559  0.25000  1.0000
  Ag  Ag1       1.0  0.38115  0.61885  0.75000  1.0000
  Ag  Ag2       1.0  0.61885  0.38114  0.25000  1.0000
  H   H1        1.0  0.57304  0.62861  0.49964  1.0000
  H   H2        1.0  0.37139  0.42697  0.00036  1.0000
  H   H3        1.0  0.42696  0.37139  0.50036  1.0000
  H   H4        1.0  0.62861  0.57303  0.99964  1.0000
  H   H5        1.0  0.87787  0.28442  0.49453  1.0000
  H   H6        1.0  0.71558  0.12213  0.00548  1.0000
  H   H7        1.0  0.12214  0.71558  0.50547  1.0000
  H   H8        1.0  0.28442  0.87787  0.99453  1.0000
  H   H9        1.0  0.56384  0.77283  0.40581  1.0000
  H   H10       1.0  0.22717  0.43617  0.09419  1.0000
  H   H11       1.0  0.43616  0.22716  0.59419  1.0000
  H   H12       1.0  0.77284  0.56383  0.90582  1.0000
  H   H13       1.0  0.27864  0.97218  0.65232  1.0000
  H   H14       1.0  0.02781  0.72136  0.84769  1.0000
  H   H15       1.0  0.72135  0.02781  0.34768  1.0000
  H   H16       1.0  0.97219  0.27864  0.15232  1.0000
  H   H17       1.0  0.15026  0.74411  0.65537  1.0000
  H   H18       1.0  0.25589  0.84974  0.84463  1.0000
  H   H19       1.0  0.84974  0.25588  0.34463  1.0000
  H   H20       1.0  0.74412  0.15027  0.15537  1.0000
  H   H21       1.0  0.58619  0.25777  0.76851  1.0000
  H   H22       1.0  0.74223  0.41382  0.73149  1.0000
  H   H23       1.0  0.41382  0.74223  0.23149  1.0000
  H   H24       1.0  0.25777  0.58618  0.26851  1.0000
  C   C1        1.0  0.67155  0.63802  0.63536  1.0000
  C   C2        1.0  0.36197  0.32844  0.86464  1.0000
  C   C3        1.0  0.32845  0.36197  0.36464  1.0000
  C   C4        1.0  0.63803  0.67156  0.13536  1.0000
  C   C5        1.0  0.72234  0.81557  0.59345  1.0000
  C   C6        1.0  0.18443  0.27767  0.90655  1.0000
  C   C7        1.0  0.27766  0.18442  0.40655  1.0000
  C   C8        1.0  0.81558  0.72234  0.09345  1.0000
  C   C9        1.0  0.66025  0.78254  0.52505  1.0000
  C   C10       1.0  0.21746  0.33976  0.97495  1.0000
  C   C11       1.0  0.33975  0.21746  0.47495  1.0000
  C   C12       1.0  0.78255  0.66025  0.02505  1.0000
  C   C13       1.0  0.71238  0.95116  0.48789  1.0000
  C   C14       1.0  0.04883  0.28762  0.01210  1.0000
  C   C15       1.0  0.28762  0.04884  0.51210  1.0000
  C   C16       1.0  0.95116  0.71238  0.98790  1.0000
  C   C17       1.0  0.82991  0.14881  0.52123  1.0000
  C   C18       1.0  0.85119  0.17009  0.97877  1.0000
  C   C19       1.0  0.17009  0.85119  0.47877  1.0000
  C   C20       1.0  0.14882  0.82991  0.02123  1.0000
  C   C21       1.0  0.88951  0.16499  0.59004  1.0000
  C   C22       1.0  0.83501  0.11049  0.90996  1.0000
  C   C23       1.0  0.11049  0.83500  0.40996  1.0000
  C   C24       1.0  0.16499  0.88952  0.09004  1.0000
  C   C25       1.0  0.03060  0.36430  0.62993  1.0000
  C   C26       1.0  0.63570  0.96939  0.87007  1.0000
  C   C27       1.0  0.96939  0.63569  0.37006  1.0000
  C   C28       1.0  0.36430  0.03062  0.12993  1.0000
  N   N1        1.0  0.83499  0.00350  0.62576  1.0000
  N   N2        1.0  0.99650  0.16501  0.87424  1.0000
  N   N3        1.0  0.16501  0.99649  0.37424  1.0000
  N   N4        1.0  0.00351  0.83499  0.12576  1.0000
  O   O1        1.0  0.75095  0.67897  0.69770  1.0000
  O   O2        1.0  0.32103  0.24905  0.80230  1.0000
  O   O3        1.0  0.24904  0.32103  0.30230  1.0000
  O   O4        1.0  0.67897  0.75096  0.19770  1.0000
  O   O5        1.0  0.55627  0.46401  0.60761  1.0000
  O   O6        1.0  0.53599  0.44372  0.89239  1.0000
  O   O7        1.0  0.44373  0.53599  0.39239  1.0000
  O   O8        1.0  0.46401  0.55628  0.10761  1.0000
  O   O9        1.0  0.65010  0.92324  0.42134  1.0000
  O   O10       1.0  0.07676  0.34990  0.07866  1.0000
  O   O11       1.0  0.34989  0.07676  0.57866  1.0000
  O   O12       1.0  0.92324  0.65010  0.92134  1.0000
  O   O13       1.0  0.06953  0.53133  0.60336  1.0000
  O   O14       1.0  0.46867  0.93046  0.89664  1.0000
  O   O15       1.0  0.93046  0.46866  0.39664  1.0000
  O   O16       1.0  0.53133  0.06955  0.10336  1.0000
  O   O17       1.0  0.10372  0.34513  0.69013  1.0000
  O   O18       1.0  0.65487  0.89627  0.80987  1.0000
  O   O19       1.0  0.89627  0.65486  0.30987  1.0000
  O   O20       1.0  0.34514  0.10373  0.19013  1.0000
  O   O21       1.0  0.21223  0.88525  0.68479  1.0000
  O   O22       1.0  0.11474  0.78777  0.81521  1.0000
  O   O23       1.0  0.78777  0.11473  0.31521  1.0000
  O   O24       1.0  0.88526  0.21223  0.18479  1.0000
  O   O25       1.0  0.72230  0.27769  0.75000  1.0000
  O   O26       1.0  0.27770  0.72231  0.25000  1.0000
