data_image0
_chemical_formula_structural       Tb4Ag12H24C56N8O44
_chemical_formula_sum              "Tb4 Ag12 H24 C56 N8 O44"
_cell_length_a       8.08137
_cell_length_b       13.8801
_cell_length_c       14.5971
_cell_angle_alpha    90.0001
_cell_angle_beta     90.0001
_cell_angle_gamma    90.0001

_space_group_name_H-M_alt    "P 1"
_space_group_IT_number       1

loop_
  _space_group_symop_operation_xyz
  'x, y, z'

loop_
  _atom_site_type_symbol
  _atom_site_label
  _atom_site_symmetry_multiplicity
  _atom_site_fract_x
  _atom_site_fract_y
  _atom_site_fract_z
  _atom_site_occupancy
  Tb  Tb1       1.0  0.97173  0.75000  0.25000  1.0000
  Tb  Tb2       1.0  0.52827  0.75000  0.75000  1.0000
  Tb  Tb3       1.0  0.02827  0.25000  0.75000  1.0000
  Tb  Tb4       1.0  0.47173  0.25000  0.25000  1.0000
  Ag  Ag1       1.0  0.55443  0.82404  0.48535  1.0000
  Ag  Ag2       1.0  0.94557  0.82404  0.51465  1.0000
  Ag  Ag3       1.0  0.94557  0.67596  0.98536  1.0000
  Ag  Ag4       1.0  0.55443  0.67596  0.01465  1.0000
  Ag  Ag5       1.0  0.44557  0.17596  0.51465  1.0000
  Ag  Ag6       1.0  0.05443  0.17596  0.48536  1.0000
  Ag  Ag7       1.0  0.05443  0.32403  0.01464  1.0000
  Ag  Ag8       1.0  0.44557  0.32404  0.98535  1.0000
  Ag  Ag9       1.0  0.25000  0.94341  0.50000  1.0000
  Ag  Ag10      1.0  0.25000  0.55659  1.00000  1.0000
  Ag  Ag11      1.0  0.75000  0.05659  0.50000  1.0000
  Ag  Ag12      1.0  0.75000  0.44341  0.00000  1.0000
  H   H1        1.0  0.22651  0.76843  0.05558  1.0000
  H   H2        1.0  0.27349  0.76843  0.94443  1.0000
  H   H3        1.0  0.27349  0.73156  0.55557  1.0000
  H   H4        1.0  0.22651  0.73156  0.44443  1.0000
  H   H5        1.0  0.77349  0.23157  0.94442  1.0000
  H   H6        1.0  0.72651  0.23156  0.05557  1.0000
  H   H7        1.0  0.72651  0.26844  0.44443  1.0000
  H   H8        1.0  0.77349  0.26844  0.55557  1.0000
  H   H9        1.0  0.61549  0.47333  0.43348  1.0000
  H   H10       1.0  0.88451  0.47333  0.56652  1.0000
  H   H11       1.0  0.88452  0.02667  0.93347  1.0000
  H   H12       1.0  0.61549  0.02667  0.06652  1.0000
  H   H13       1.0  0.38451  0.52667  0.56652  1.0000
  H   H14       1.0  0.11549  0.52667  0.43347  1.0000
  H   H15       1.0  0.11549  0.97333  0.06653  1.0000
  H   H16       1.0  0.38452  0.97333  0.93347  1.0000
  H   H17       1.0  0.90125  0.35426  0.20918  1.0000
  H   H18       1.0  0.59875  0.35427  0.79083  1.0000
  H   H19       1.0  0.59875  0.14573  0.70917  1.0000
  H   H20       1.0  0.90125  0.14573  0.29083  1.0000
  H   H21       1.0  0.09875  0.64573  0.79083  1.0000
  H   H22       1.0  0.40125  0.64573  0.20917  1.0000
  H   H23       1.0  0.40125  0.85427  0.29083  1.0000
  H   H24       1.0  0.09875  0.85427  0.70917  1.0000
  C   C1        1.0  0.69657  0.66274  0.39365  1.0000
  C   C2        1.0  0.80344  0.66274  0.60635  1.0000
  C   C3        1.0  0.80345  0.83726  0.89366  1.0000
  C   C4        1.0  0.69657  0.83726  0.10635  1.0000
  C   C5        1.0  0.30343  0.33726  0.60635  1.0000
  C   C6        1.0  0.19656  0.33726  0.39365  1.0000
  C   C7        1.0  0.19656  0.16274  0.10635  1.0000
  C   C8        1.0  0.30344  0.16274  0.89365  1.0000
  C   C9        1.0  0.75635  0.57137  0.34991  1.0000
  C   C10       1.0  0.74365  0.57137  0.65009  1.0000
  C   C11       1.0  0.74364  0.92863  0.84991  1.0000
  C   C12       1.0  0.75635  0.92863  0.15009  1.0000
  C   C13       1.0  0.24365  0.42863  0.65009  1.0000
  C   C14       1.0  0.25635  0.42863  0.34991  1.0000
  C   C15       1.0  0.25636  0.07137  0.15009  1.0000
  C   C16       1.0  0.24365  0.07137  0.84991  1.0000
  C   C17       1.0  0.70172  0.48082  0.37659  1.0000
  C   C18       1.0  0.79828  0.48082  0.62341  1.0000
  C   C19       1.0  0.79828  0.01918  0.87659  1.0000
  C   C20       1.0  0.70172  0.01918  0.12341  1.0000
  C   C21       1.0  0.29828  0.51918  0.62341  1.0000
  C   C22       1.0  0.20172  0.51918  0.37659  1.0000
  C   C23       1.0  0.20172  0.98082  0.12341  1.0000
  C   C24       1.0  0.29828  0.98082  0.87659  1.0000
  C   C25       1.0  0.74899  0.39890  0.32480  1.0000
  C   C26       1.0  0.75101  0.39890  0.67520  1.0000
  C   C27       1.0  0.75100  0.10110  0.82480  1.0000
  C   C28       1.0  0.74899  0.10110  0.17520  1.0000
  C   C29       1.0  0.25101  0.60109  0.67520  1.0000
  C   C30       1.0  0.24899  0.60110  0.32480  1.0000
  C   C31       1.0  0.24900  0.89890  0.17520  1.0000
  C   C32       1.0  0.25100  0.89890  0.82480  1.0000
  C   C33       1.0  0.86043  0.41480  0.25096  1.0000
  C   C34       1.0  0.63956  0.41480  0.74904  1.0000
  C   C35       1.0  0.63956  0.08521  0.75096  1.0000
  C   C36       1.0  0.86044  0.08521  0.24904  1.0000
  C   C37       1.0  0.13957  0.58521  0.74904  1.0000
  C   C38       1.0  0.36044  0.58520  0.25096  1.0000
  C   C39       1.0  0.36044  0.91479  0.24904  1.0000
  C   C40       1.0  0.13956  0.91479  0.75096  1.0000
  C   C41       1.0  0.90943  0.50810  0.23061  1.0000
  C   C42       1.0  0.59057  0.50810  0.76939  1.0000
  C   C43       1.0  0.59057  0.99190  0.73061  1.0000
  C   C44       1.0  0.90944  0.99190  0.26939  1.0000
  C   C45       1.0  0.09056  0.49190  0.76939  1.0000
  C   C46       1.0  0.40943  0.49190  0.23061  1.0000
  C   C47       1.0  0.40943  0.00810  0.26939  1.0000
  C   C48       1.0  0.09056  0.00810  0.73061  1.0000
  C   C49       1.0  0.01834  0.53394  0.15171  1.0000
  C   C50       1.0  0.48166  0.53395  0.84829  1.0000
  C   C51       1.0  0.48167  0.96605  0.65171  1.0000
  C   C52       1.0  0.01834  0.96605  0.34829  1.0000
  C   C53       1.0  0.98166  0.46605  0.84829  1.0000
  C   C54       1.0  0.51834  0.46605  0.15171  1.0000
  C   C55       1.0  0.51834  0.03395  0.34829  1.0000
  C   C56       1.0  0.98166  0.03395  0.65171  1.0000
  N   N1        1.0  0.85882  0.58579  0.27862  1.0000
  N   N2        1.0  0.64118  0.58579  0.72138  1.0000
  N   N3        1.0  0.64118  0.91421  0.77862  1.0000
  N   N4        1.0  0.85882  0.91421  0.22138  1.0000
  N   N5        1.0  0.14117  0.41421  0.72138  1.0000
  N   N6        1.0  0.35882  0.41421  0.27862  1.0000
  N   N7        1.0  0.35882  0.08579  0.22138  1.0000
  N   N8        1.0  0.14118  0.08579  0.77862  1.0000
  O   O1        1.0  0.76778  0.74146  0.36698  1.0000
  O   O2        1.0  0.73222  0.74146  0.63302  1.0000
  O   O3        1.0  0.73222  0.75854  0.86698  1.0000
  O   O4        1.0  0.76779  0.75854  0.13302  1.0000
  O   O5        1.0  0.23221  0.25854  0.63302  1.0000
  O   O6        1.0  0.26779  0.25854  0.36698  1.0000
  O   O7        1.0  0.26778  0.24146  0.13302  1.0000
  O   O8        1.0  0.23222  0.24146  0.86698  1.0000
  O   O9        1.0  0.58070  0.65963  0.45085  1.0000
  O   O10       1.0  0.91929  0.65964  0.54915  1.0000
  O   O11       1.0  0.91929  0.84037  0.95085  1.0000
  O   O12       1.0  0.58071  0.84036  0.04915  1.0000
  O   O13       1.0  0.41929  0.34036  0.54915  1.0000
  O   O14       1.0  0.08070  0.34036  0.45085  1.0000
  O   O15       1.0  0.08071  0.15963  0.04915  1.0000
  O   O16       1.0  0.41929  0.15963  0.95085  1.0000
  O   O17       1.0  0.68532  0.31340  0.34063  1.0000
  O   O18       1.0  0.81468  0.31340  0.65937  1.0000
  O   O19       1.0  0.81468  0.18660  0.84062  1.0000
  O   O20       1.0  0.68532  0.18660  0.15937  1.0000
  O   O21       1.0  0.31468  0.68660  0.65937  1.0000
  O   O22       1.0  0.18532  0.68660  0.34063  1.0000
  O   O23       1.0  0.18532  0.81340  0.15938  1.0000
  O   O24       1.0  0.31468  0.81340  0.84062  1.0000
  O   O25       1.0  0.07976  0.46945  0.09980  1.0000
  O   O26       1.0  0.42025  0.46946  0.90020  1.0000
  O   O27       1.0  0.42025  0.03054  0.59980  1.0000
  O   O28       1.0  0.07976  0.03055  0.40020  1.0000
  O   O29       1.0  0.92025  0.53055  0.90020  1.0000
  O   O30       1.0  0.57975  0.53055  0.09980  1.0000
  O   O31       1.0  0.57975  0.96946  0.40020  1.0000
  O   O32       1.0  0.92025  0.96946  0.59980  1.0000
  O   O33       1.0  0.04611  0.62396  0.13961  1.0000
  O   O34       1.0  0.45389  0.62397  0.86039  1.0000
  O   O35       1.0  0.45389  0.87603  0.63961  1.0000
  O   O36       1.0  0.04611  0.87604  0.36039  1.0000
  O   O37       1.0  0.95389  0.37604  0.86039  1.0000
  O   O38       1.0  0.54611  0.37604  0.13961  1.0000
  O   O39       1.0  0.54611  0.12397  0.36039  1.0000
  O   O40       1.0  0.95389  0.12397  0.63961  1.0000
  O   O41       1.0  0.25000  0.72812  1.00000  1.0000
  O   O42       1.0  0.25000  0.77188  0.50000  1.0000
  O   O43       1.0  0.75000  0.27188  1.00000  1.0000
  O   O44       1.0  0.75000  0.22812  0.50000  1.0000
