data_image0
_chemical_formula_structural       Ag4H32C48S4N8O8F12
_chemical_formula_sum              "Ag4 H32 C48 S4 N8 O8 F12"
_cell_length_a       9.29189
_cell_length_b       9.29188
_cell_length_c       17.4251
_cell_angle_alpha    82.8545
_cell_angle_beta     82.8546
_cell_angle_gamma    63.8419

_space_group_name_H-M_alt    "P 1"
_space_group_IT_number       1

loop_
  _space_group_symop_operation_xyz
  'x, y, z'

loop_
  _atom_site_type_symbol
  _atom_site_label
  _atom_site_symmetry_multiplicity
  _atom_site_fract_x
  _atom_site_fract_y
  _atom_site_fract_z
  _atom_site_occupancy
  Ag  Ag1       1.0  0.59230  0.33226  0.58227  1.0000
  Ag  Ag2       1.0  0.33226  0.59230  0.08227  1.0000
  Ag  Ag3       1.0  0.40770  0.66774  0.41773  1.0000
  Ag  Ag4       1.0  0.66774  0.40771  0.91773  1.0000
  H   H1        1.0  0.35387  0.90146  0.61374  1.0000
  H   H2        1.0  0.90146  0.35387  0.11374  1.0000
  H   H3        1.0  0.64613  0.09854  0.38626  1.0000
  H   H4        1.0  0.09854  0.64613  0.88626  1.0000
  H   H5        1.0  0.14025  0.05328  0.51978  1.0000
  H   H6        1.0  0.05328  0.14025  0.01978  1.0000
  H   H7        1.0  0.85975  0.94672  0.48022  1.0000
  H   H8        1.0  0.94673  0.85975  0.98022  1.0000
  H   H9        1.0  0.10835  0.32481  0.46269  1.0000
  H   H10       1.0  0.32481  0.10835  0.96269  1.0000
  H   H11       1.0  0.89165  0.67519  0.53731  1.0000
  H   H12       1.0  0.67519  0.89165  0.03731  1.0000
  H   H13       1.0  0.29723  0.43063  0.49575  1.0000
  H   H14       1.0  0.43063  0.29723  0.99575  1.0000
  H   H15       1.0  0.70277  0.56937  0.50425  1.0000
  H   H16       1.0  0.56937  0.70277  0.00425  1.0000
  H   H17       1.0  0.38717  0.44041  0.81947  1.0000
  H   H18       1.0  0.44041  0.38717  0.31947  1.0000
  H   H19       1.0  0.61283  0.55959  0.18053  1.0000
  H   H20       1.0  0.55959  0.61283  0.68053  1.0000
  H   H21       1.0  0.35544  0.29431  0.71736  1.0000
  H   H22       1.0  0.29431  0.35544  0.21736  1.0000
  H   H23       1.0  0.64456  0.70569  0.28264  1.0000
  H   H24       1.0  0.70569  0.64456  0.78264  1.0000
  H   H25       1.0  0.81954  0.90764  0.76897  1.0000
  H   H26       1.0  0.90764  0.81954  0.26896  1.0000
  H   H27       1.0  0.18046  0.09236  0.23103  1.0000
  H   H28       1.0  0.09236  0.18046  0.73103  1.0000
  H   H29       1.0  0.82634  0.06872  0.87090  1.0000
  H   H30       1.0  0.06872  0.82634  0.37089  1.0000
  H   H31       1.0  0.17366  0.93128  0.12910  1.0000
  H   H32       1.0  0.93128  0.17366  0.62910  1.0000
  C   C1        1.0  0.43500  0.08813  0.60286  1.0000
  C   C2        1.0  0.08813  0.43500  0.10286  1.0000
  C   C3        1.0  0.56500  0.91187  0.39714  1.0000
  C   C4        1.0  0.91187  0.56500  0.89714  1.0000
  C   C5        1.0  0.33637  0.01932  0.58652  1.0000
  C   C6        1.0  0.01932  0.33636  0.08652  1.0000
  C   C7        1.0  0.66363  0.98068  0.41348  1.0000
  C   C8        1.0  0.98068  0.66363  0.91348  1.0000
  C   C9        1.0  0.21856  0.10338  0.53462  1.0000
  C   C10       1.0  0.10338  0.21856  0.03462  1.0000
  C   C11       1.0  0.78144  0.89662  0.46538  1.0000
  C   C12       1.0  0.89662  0.78144  0.96538  1.0000
  C   C13       1.0  0.20080  0.25493  0.50241  1.0000
  C   C14       1.0  0.25493  0.20080  0.00241  1.0000
  C   C15       1.0  0.79920  0.74507  0.49760  1.0000
  C   C16       1.0  0.74507  0.79920  0.99759  1.0000
  C   C17       1.0  0.30432  0.31462  0.52125  1.0000
  C   C18       1.0  0.31462  0.30432  0.02125  1.0000
  C   C19       1.0  0.69568  0.68539  0.47875  1.0000
  C   C20       1.0  0.68538  0.69568  0.97875  1.0000
  C   C21       1.0  0.47928  0.32126  0.80654  1.0000
  C   C22       1.0  0.32126  0.47928  0.30654  1.0000
  C   C23       1.0  0.52073  0.67874  0.19346  1.0000
  C   C24       1.0  0.67874  0.52072  0.69346  1.0000
  C   C25       1.0  0.46292  0.23930  0.74910  1.0000
  C   C26       1.0  0.23930  0.46292  0.24910  1.0000
  C   C27       1.0  0.53708  0.76070  0.25090  1.0000
  C   C28       1.0  0.76070  0.53708  0.75090  1.0000
  C   C29       1.0  0.58751  0.08847  0.73308  1.0000
  C   C30       1.0  0.08847  0.58751  0.23308  1.0000
  C   C31       1.0  0.41249  0.91153  0.26692  1.0000
  C   C32       1.0  0.91152  0.41249  0.76692  1.0000
  C   C33       1.0  0.71956  0.02425  0.77869  1.0000
  C   C34       1.0  0.02426  0.71956  0.27869  1.0000
  C   C35       1.0  0.28044  0.97574  0.22131  1.0000
  C   C36       1.0  0.97574  0.28044  0.72131  1.0000
  C   C37       1.0  0.72494  0.11413  0.83511  1.0000
  C   C38       1.0  0.11414  0.72494  0.33511  1.0000
  C   C39       1.0  0.27506  0.88586  0.16489  1.0000
  C   C40       1.0  0.88586  0.27506  0.66489  1.0000
  C   C41       1.0  0.77121  0.29917  0.42704  1.0000
  C   C42       1.0  0.29917  0.77121  0.92704  1.0000
  C   C43       1.0  0.22879  0.70083  0.57296  1.0000
  C   C44       1.0  0.70083  0.22879  0.07296  1.0000
  C   C45       1.0  0.86912  0.29082  0.34690  1.0000
  C   C46       1.0  0.29082  0.86912  0.84690  1.0000
  C   C47       1.0  0.13088  0.70919  0.65310  1.0000
  C   C48       1.0  0.70918  0.13088  0.15310  1.0000
  S   S1        1.0  0.59587  0.96817  0.66119  1.0000
  S   S2        1.0  0.96818  0.59587  0.16119  1.0000
  S   S3        1.0  0.40413  0.03182  0.33881  1.0000
  S   S4        1.0  0.03182  0.40413  0.83881  1.0000
  N   N1        1.0  0.42147  0.23243  0.56986  1.0000
  N   N2        1.0  0.23243  0.42147  0.06986  1.0000
  N   N3        1.0  0.57853  0.76757  0.43014  1.0000
  N   N4        1.0  0.76757  0.57853  0.93014  1.0000
  N   N5        1.0  0.60880  0.26214  0.84832  1.0000
  N   N6        1.0  0.26214  0.60881  0.34832  1.0000
  N   N7        1.0  0.39120  0.73786  0.15168  1.0000
  N   N8        1.0  0.73786  0.39120  0.65168  1.0000
  O   O1        1.0  0.62014  0.36149  0.42580  1.0000
  O   O2        1.0  0.36149  0.62014  0.92580  1.0000
  O   O3        1.0  0.37986  0.63851  0.57420  1.0000
  O   O4        1.0  0.63851  0.37986  0.07420  1.0000
  O   O5        1.0  0.85631  0.23900  0.48358  1.0000
  O   O6        1.0  0.23900  0.85631  0.98359  1.0000
  O   O7        1.0  0.14369  0.76100  0.51641  1.0000
  O   O8        1.0  0.76100  0.14369  0.01641  1.0000
  F   F1        1.0  0.77756  0.37621  0.28730  1.0000
  F   F2        1.0  0.37621  0.77757  0.78730  1.0000
  F   F3        1.0  0.22244  0.62379  0.71270  1.0000
  F   F4        1.0  0.62379  0.22244  0.21270  1.0000
  F   F5        1.0  0.94960  0.13432  0.32759  1.0000
  F   F6        1.0  0.13432  0.94960  0.82759  1.0000
  F   F7        1.0  0.05041  0.86568  0.67241  1.0000
  F   F8        1.0  0.86568  0.05041  0.17241  1.0000
  F   F9        1.0  0.98272  0.34700  0.34769  1.0000
  F   F10       1.0  0.34700  0.98272  0.84769  1.0000
  F   F11       1.0  0.01728  0.65300  0.65231  1.0000
  F   F12       1.0  0.65300  0.01728  0.15231  1.0000
