data_image0
_chemical_formula_structural       Mn2H38C52N12O8
_chemical_formula_sum              "Mn2 H38 C52 N12 O8"
_cell_length_a       8.20763
_cell_length_b       10.1602
_cell_length_c       15.664
_cell_angle_alpha    88.8091
_cell_angle_beta     75.012
_cell_angle_gamma    79.4904

_space_group_name_H-M_alt    "P 1"
_space_group_IT_number       1

loop_
  _space_group_symop_operation_xyz
  'x, y, z'

loop_
  _atom_site_type_symbol
  _atom_site_label
  _atom_site_symmetry_multiplicity
  _atom_site_fract_x
  _atom_site_fract_y
  _atom_site_fract_z
  _atom_site_occupancy
  Mn  Mn1       1.0  0.33419  0.37124  0.04362  1.0000
  Mn  Mn2       1.0  0.66581  0.62876  0.95638  1.0000
  H   H1        1.0  0.52337  0.23162  0.86467  1.0000
  H   H2        1.0  0.47661  0.76837  0.13534  1.0000
  H   H3        1.0  0.51151  0.24755  0.70643  1.0000
  H   H4        1.0  0.48848  0.75245  0.29358  1.0000
  H   H5        1.0  0.10151  0.59050  0.78788  1.0000
  H   H6        1.0  0.89849  0.40951  0.21213  1.0000
  H   H7        1.0  0.12802  0.55982  0.93932  1.0000
  H   H8        1.0  0.87196  0.44019  0.06069  1.0000
  H   H9        1.0  0.19310  0.52655  0.63252  1.0000
  H   H10       1.0  0.80691  0.47346  0.36749  1.0000
  H   H11       1.0  0.56534  0.26206  0.43812  1.0000
  H   H12       1.0  0.43466  0.73794  0.56189  1.0000
  H   H13       1.0  0.63851  0.19287  0.28593  1.0000
  H   H14       1.0  0.36148  0.80711  0.71408  1.0000
  H   H15       1.0  0.58943  0.22122  0.13380  1.0000
  H   H16       1.0  0.41055  0.77875  0.86620  1.0000
  H   H17       1.0  0.15814  0.51306  0.22539  1.0000
  H   H18       1.0  0.84187  0.48695  0.77461  1.0000
  H   H19       1.0  0.18586  0.49507  0.38166  1.0000
  H   H20       1.0  0.81415  0.50494  0.61834  1.0000
  H   H21       1.0  0.86303  0.15253  0.15437  1.0000
  H   H22       1.0  0.13697  0.84746  0.84562  1.0000
  H   H23       1.0  0.73266  0.94574  0.19151  1.0000
  H   H24       1.0  0.26731  0.05426  0.80845  1.0000
  H   H25       1.0  0.91621  0.72116  0.14573  1.0000
  H   H26       1.0  0.08379  0.27883  0.85425  1.0000
  H   H27       1.0  0.34776  0.90950  0.02770  1.0000
  H   H28       1.0  0.65225  0.09049  0.97230  1.0000
  H   H29       1.0  0.26819  0.08806  0.59397  1.0000
  H   H30       1.0  0.73183  0.91195  0.40602  1.0000
  H   H31       1.0  0.28789  0.04180  0.34931  1.0000
  H   H32       1.0  0.71213  0.95822  0.65069  1.0000
  H   H33       1.0  0.03703  0.12624  0.28708  1.0000
  H   H34       1.0  0.96298  0.87378  0.71291  1.0000
  H   H35       1.0  0.73724  0.28551  0.53051  1.0000
  H   H36       1.0  0.26277  0.71449  0.46949  1.0000
  H   H37       1.0  0.97568  0.20809  0.60277  1.0000
  H   H38       1.0  0.02433  0.79191  0.39723  1.0000
  C   C1        1.0  0.43288  0.30984  0.84386  1.0000
  C   C2        1.0  0.56710  0.69016  0.15614  1.0000
  C   C3        1.0  0.42553  0.31859  0.75663  1.0000
  C   C4        1.0  0.57446  0.68141  0.24339  1.0000
  C   C5        1.0  0.30627  0.42204  0.73279  1.0000
  C   C6        1.0  0.69373  0.57796  0.26721  1.0000
  C   C7        1.0  0.19773  0.50914  0.80077  1.0000
  C   C8        1.0  0.80227  0.49087  0.19924  1.0000
  C   C9        1.0  0.21275  0.49319  0.88655  1.0000
  C   C10       1.0  0.78724  0.50681  0.11346  1.0000
  C   C11       1.0  0.28848  0.44159  0.64386  1.0000
  C   C12       1.0  0.71152  0.55843  0.35615  1.0000
  C   C13       1.0  0.44796  0.32894  0.43238  1.0000
  C   C14       1.0  0.55205  0.67106  0.56762  1.0000
  C   C15       1.0  0.41697  0.34318  0.34582  1.0000
  C   C16       1.0  0.58303  0.65682  0.65418  1.0000
  C   C17       1.0  0.52938  0.26348  0.27475  1.0000
  C   C18       1.0  0.47062  0.73650  0.72525  1.0000
  C   C19       1.0  0.50352  0.27895  0.19094  1.0000
  C   C20       1.0  0.49647  0.72103  0.80906  1.0000
  C   C21       1.0  0.26118  0.44268  0.24259  1.0000
  C   C22       1.0  0.73883  0.55733  0.75742  1.0000
  C   C23       1.0  0.27731  0.43278  0.32826  1.0000
  C   C24       1.0  0.72271  0.56722  0.67174  1.0000
  C   C25       1.0  0.18633  0.16657  0.07156  1.0000
  C   C26       1.0  0.81366  0.83343  0.92846  1.0000
  C   C27       1.0  0.11214  0.04248  0.09054  1.0000
  C   C28       1.0  0.88787  0.95752  0.90946  1.0000
  C   C29       1.0  0.93877  0.05276  0.13597  1.0000
  C   C30       1.0  0.06122  0.94724  0.86402  1.0000
  C   C31       1.0  0.86761  0.93781  0.15637  1.0000
  C   C32       1.0  0.13238  0.06219  0.84360  1.0000
  C   C33       1.0  0.96924  0.81214  0.13078  1.0000
  C   C34       1.0  0.03076  0.18785  0.86921  1.0000
  C   C35       1.0  0.14193  0.80113  0.08378  1.0000
  C   C36       1.0  0.85808  0.19887  0.91621  1.0000
  C   C37       1.0  0.21351  0.91670  0.06393  1.0000
  C   C38       1.0  0.78649  0.08330  0.93607  1.0000
  C   C39       1.0  0.24936  0.66703  0.05262  1.0000
  C   C40       1.0  0.75064  0.33296  0.94738  1.0000
  C   C41       1.0  0.29143  0.07218  0.52227  1.0000
  C   C42       1.0  0.70856  0.92784  0.47773  1.0000
  C   C43       1.0  0.15126  0.11777  0.48145  1.0000
  C   C44       1.0  0.84875  0.88223  0.51854  1.0000
  C   C45       1.0  0.16741  0.09533  0.39114  1.0000
  C   C46       1.0  0.83261  0.90469  0.60886  1.0000
  C   C47       1.0  0.02786  0.14263  0.35708  1.0000
  C   C48       1.0  0.97215  0.85739  0.64292  1.0000
  C   C49       1.0  0.86160  0.23143  0.49208  1.0000
  C   C50       1.0  0.13840  0.76857  0.50791  1.0000
  C   C51       1.0  0.99404  0.18799  0.53243  1.0000
  C   C52       1.0  0.00598  0.81202  0.46757  1.0000
  N   N1        1.0  0.33090  0.39739  0.90844  1.0000
  N   N2        1.0  0.66908  0.60261  0.09158  1.0000
  N   N3        1.0  0.38140  0.36142  0.57844  1.0000
  N   N4        1.0  0.61861  0.63859  0.42156  1.0000
  N   N5        1.0  0.33815  0.39277  0.50082  1.0000
  N   N6        1.0  0.66185  0.60724  0.49918  1.0000
  N   N7        1.0  0.37433  0.36970  0.17375  1.0000
  N   N8        1.0  0.62568  0.63029  0.82625  1.0000
  N   N9        1.0  0.87631  0.20944  0.40590  1.0000
  N   N10       1.0  0.12370  0.79057  0.59410  1.0000
  N   N11       1.0  0.44153  0.01700  0.47490  1.0000
  N   N12       1.0  0.55851  0.98299  0.52508  1.0000
  O   O1        1.0  0.09000  0.28059  0.09275  1.0000
  O   O2        1.0  0.91000  0.71939  0.90729  1.0000
  O   O3        1.0  0.34749  0.15819  0.03551  1.0000
  O   O4        1.0  0.65251  0.84182  0.96448  1.0000
  O   O5        1.0  0.39562  0.66288  0.99941  1.0000
  O   O6        1.0  0.60438  0.33710  0.00060  1.0000
  O   O7        1.0  0.18618  0.56250  0.07945  1.0000
  O   O8        1.0  0.81380  0.43749  0.92056  1.0000
