data_image0
_chemical_formula_structural       Cu4H16C16N12O12
_chemical_formula_sum              "Cu4 H16 C16 N12 O12"
_cell_length_a       6.5179
_cell_length_b       8.20183
_cell_length_c       11.7763
_cell_angle_alpha    89.9998
_cell_angle_beta     90.0001
_cell_angle_gamma    90.0001

_space_group_name_H-M_alt    "P 1"
_space_group_IT_number       1

loop_
  _space_group_symop_operation_xyz
  'x, y, z'

loop_
  _atom_site_type_symbol
  _atom_site_label
  _atom_site_symmetry_multiplicity
  _atom_site_fract_x
  _atom_site_fract_y
  _atom_site_fract_z
  _atom_site_occupancy
  Cu  Cu1       1.0  0.75000  0.93392  0.66003  1.0000
  Cu  Cu2       1.0  0.25000  0.56608  0.16003  1.0000
  Cu  Cu3       1.0  0.25000  0.06609  0.33997  1.0000
  Cu  Cu4       1.0  0.75000  0.43391  0.83997  1.0000
  H   H1        1.0  0.05659  0.19542  0.68573  1.0000
  H   H2        1.0  0.94341  0.30459  0.18574  1.0000
  H   H3        1.0  0.55659  0.80459  0.31426  1.0000
  H   H4        1.0  0.44341  0.69540  0.81425  1.0000
  H   H5        1.0  0.94341  0.80459  0.31427  1.0000
  H   H6        1.0  0.05659  0.69540  0.81426  1.0000
  H   H7        1.0  0.44342  0.19542  0.68573  1.0000
  H   H8        1.0  0.55658  0.30458  0.18574  1.0000
  H   H9        1.0  0.05971  0.72331  0.55465  1.0000
  H   H10       1.0  0.94029  0.77669  0.05465  1.0000
  H   H11       1.0  0.55971  0.27669  0.44535  1.0000
  H   H12       1.0  0.44029  0.22331  0.94536  1.0000
  H   H13       1.0  0.94029  0.27669  0.44535  1.0000
  H   H14       1.0  0.05970  0.22331  0.94536  1.0000
  H   H15       1.0  0.44029  0.72331  0.55465  1.0000
  H   H16       1.0  0.55971  0.77668  0.05464  1.0000
  C   C1        1.0  0.14381  0.08868  0.65954  1.0000
  C   C2        1.0  0.85620  0.41133  0.15954  1.0000
  C   C3        1.0  0.64379  0.91133  0.34047  1.0000
  C   C4        1.0  0.35619  0.58866  0.84046  1.0000
  C   C5        1.0  0.85621  0.91133  0.34047  1.0000
  C   C6        1.0  0.14380  0.58866  0.84046  1.0000
  C   C7        1.0  0.35620  0.08868  0.65954  1.0000
  C   C8        1.0  0.64380  0.41133  0.15954  1.0000
  C   C9        1.0  0.14389  0.82779  0.58711  1.0000
  C   C10       1.0  0.85611  0.67222  0.08711  1.0000
  C   C11       1.0  0.64388  0.17223  0.41289  1.0000
  C   C12       1.0  0.35611  0.32777  0.91290  1.0000
  C   C13       1.0  0.85612  0.17223  0.41289  1.0000
  C   C14       1.0  0.14388  0.32778  0.91290  1.0000
  C   C15       1.0  0.35612  0.82779  0.58711  1.0000
  C   C16       1.0  0.64389  0.67222  0.08711  1.0000
  N   N1        1.0  0.03470  0.95517  0.62837  1.0000
  N   N2        1.0  0.96531  0.54484  0.12837  1.0000
  N   N3        1.0  0.53470  0.04484  0.37163  1.0000
  N   N4        1.0  0.46530  0.45516  0.87163  1.0000
  N   N5        1.0  0.96530  0.04485  0.37164  1.0000
  N   N6        1.0  0.03469  0.45516  0.87163  1.0000
  N   N7        1.0  0.46531  0.95517  0.62837  1.0000
  N   N8        1.0  0.53469  0.54484  0.12837  1.0000
  N   N9        1.0  0.75000  0.52393  0.60730  1.0000
  N   N10       1.0  0.25000  0.97607  0.10731  1.0000
  N   N11       1.0  0.25000  0.47608  0.39268  1.0000
  N   N12       1.0  0.75000  0.02392  0.89268  1.0000
  O   O1        1.0  0.75000  0.54916  0.50259  1.0000
  O   O2        1.0  0.25000  0.95084  0.00260  1.0000
  O   O3        1.0  0.25001  0.45084  0.49741  1.0000
  O   O4        1.0  0.75000  0.04915  0.99741  1.0000
  O   O5        1.0  0.75000  0.64212  0.67869  1.0000
  O   O6        1.0  0.25000  0.85787  0.17869  1.0000
  O   O7        1.0  0.25000  0.35789  0.32130  1.0000
  O   O8        1.0  0.75000  0.14212  0.82130  1.0000
  O   O9        1.0  0.74999  0.37922  0.64783  1.0000
  O   O10       1.0  0.25000  0.12077  0.14784  1.0000
  O   O11       1.0  0.25000  0.62079  0.35217  1.0000
  O   O12       1.0  0.74999  0.87921  0.85217  1.0000
