data_image0
_chemical_formula_structural       Cu4H24C24N12Cl4O16
_chemical_formula_sum              "Cu4 H24 C24 N12 Cl4 O16"
_cell_length_a       7.6143
_cell_length_b       9.19339
_cell_length_c       13.4292
_cell_angle_alpha    89.9994
_cell_angle_beta     90.0004
_cell_angle_gamma    97.3052

_space_group_name_H-M_alt    "P 1"
_space_group_IT_number       1

loop_
  _space_group_symop_operation_xyz
  'x, y, z'

loop_
  _atom_site_type_symbol
  _atom_site_label
  _atom_site_symmetry_multiplicity
  _atom_site_fract_x
  _atom_site_fract_y
  _atom_site_fract_z
  _atom_site_occupancy
  Cu  Cu1       1.0  0.29134  0.62647  0.81945  1.0000
  Cu  Cu2       1.0  0.20866  0.87352  0.31946  1.0000
  Cu  Cu3       1.0  0.70866  0.37353  0.18055  1.0000
  Cu  Cu4       1.0  0.79134  0.12648  0.68054  1.0000
  H   H1        1.0  0.06704  0.66473  0.64391  1.0000
  H   H2        1.0  0.43295  0.83527  0.14392  1.0000
  H   H3        1.0  0.93296  0.33527  0.35608  1.0000
  H   H4        1.0  0.56705  0.16472  0.85608  1.0000
  H   H5        1.0  0.28348  0.93122  0.87630  1.0000
  H   H6        1.0  0.21652  0.56877  0.37630  1.0000
  H   H7        1.0  0.71652  0.06878  0.12370  1.0000
  H   H8        1.0  0.78348  0.43122  0.62370  1.0000
  H   H9        1.0  0.87966  0.85756  0.59579  1.0000
  H   H10       1.0  0.62033  0.64244  0.09580  1.0000
  H   H11       1.0  0.12034  0.14244  0.40421  1.0000
  H   H12       1.0  0.37967  0.35755  0.90421  1.0000
  H   H13       1.0  0.08631  0.11762  0.83307  1.0000
  H   H14       1.0  0.41369  0.38237  0.33308  1.0000
  H   H15       1.0  0.91367  0.88238  0.16693  1.0000
  H   H16       1.0  0.58632  0.61762  0.66693  1.0000
  H   H17       1.0  0.20683  0.72175  0.02224  1.0000
  H   H18       1.0  0.29318  0.77825  0.52225  1.0000
  H   H19       1.0  0.79317  0.27826  0.97776  1.0000
  H   H20       1.0  0.70683  0.22175  0.47776  1.0000
  H   H21       1.0  0.98009  0.63690  0.15369  1.0000
  H   H22       1.0  0.51991  0.86311  0.65369  1.0000
  H   H23       1.0  0.01990  0.36311  0.84631  1.0000
  H   H24       1.0  0.48009  0.13689  0.34631  1.0000
  C   C1        1.0  0.07275  0.76692  0.68553  1.0000
  C   C2        1.0  0.42725  0.73308  0.18553  1.0000
  C   C3        1.0  0.92726  0.23308  0.31447  1.0000
  C   C4        1.0  0.57275  0.26692  0.81446  1.0000
  C   C5        1.0  0.19219  0.91384  0.81401  1.0000
  C   C6        1.0  0.30781  0.58616  0.31401  1.0000
  C   C7        1.0  0.80782  0.08616  0.18599  1.0000
  C   C8        1.0  0.69218  0.41384  0.68599  1.0000
  C   C9        1.0  0.96695  0.87306  0.66007  1.0000
  C   C10       1.0  0.53305  0.62695  0.16007  1.0000
  C   C11       1.0  0.03305  0.12694  0.33993  1.0000
  C   C12       1.0  0.46695  0.37305  0.83993  1.0000
  C   C13       1.0  0.08301  0.01779  0.78932  1.0000
  C   C14       1.0  0.41699  0.48220  0.28932  1.0000
  C   C15       1.0  0.91698  0.98220  0.21068  1.0000
  C   C16       1.0  0.58302  0.51779  0.71068  1.0000
  C   C17       1.0  0.11471  0.62201  0.01263  1.0000
  C   C18       1.0  0.38530  0.87799  0.51263  1.0000
  C   C19       1.0  0.88529  0.37800  0.98737  1.0000
  C   C20       1.0  0.61471  0.12201  0.48737  1.0000
  C   C21       1.0  0.98830  0.57669  0.08424  1.0000
  C   C22       1.0  0.51170  0.92331  0.58424  1.0000
  C   C23       1.0  0.01170  0.42332  0.91576  1.0000
  C   C24       1.0  0.48830  0.07669  0.41576  1.0000
  N   N1        1.0  0.18704  0.78623  0.76309  1.0000
  N   N2        1.0  0.31296  0.71377  0.26309  1.0000
  N   N3        1.0  0.81297  0.21378  0.23691  1.0000
  N   N4        1.0  0.68704  0.28622  0.73691  1.0000
  N   N5        1.0  0.96899  0.99867  0.71218  1.0000
  N   N6        1.0  0.53101  0.50133  0.21218  1.0000
  N   N7        1.0  0.03101  0.00134  0.28782  1.0000
  N   N8        1.0  0.46899  0.49866  0.78782  1.0000
  N   N9        1.0  0.12808  0.54549  0.92788  1.0000
  N   N10       1.0  0.37192  0.95451  0.42787  1.0000
  N   N11       1.0  0.87192  0.45452  0.07212  1.0000
  N   N12       1.0  0.62809  0.04549  0.57213  1.0000
  Cl  Cl1       1.0  0.66087  0.83596  0.90504  1.0000
  Cl  Cl2       1.0  0.83913  0.66404  0.40504  1.0000
  Cl  Cl3       1.0  0.33913  0.16404  0.09496  1.0000
  Cl  Cl4       1.0  0.16086  0.33596  0.59496  1.0000
  O   O1        1.0  0.49565  0.75993  0.94818  1.0000
  O   O2        1.0  0.00435  0.74006  0.44818  1.0000
  O   O3        1.0  0.50435  0.24007  0.05182  1.0000
  O   O4        1.0  0.99564  0.25993  0.55182  1.0000
  O   O5        1.0  0.77988  0.72920  0.88087  1.0000
  O   O6        1.0  0.72012  0.77080  0.38087  1.0000
  O   O7        1.0  0.22012  0.27080  0.11913  1.0000
  O   O8        1.0  0.27988  0.22920  0.61914  1.0000
  O   O9        1.0  0.61475  0.91213  0.81439  1.0000
  O   O10       1.0  0.88525  0.58787  0.31439  1.0000
  O   O11       1.0  0.38525  0.08787  0.18561  1.0000
  O   O12       1.0  0.11474  0.41213  0.68560  1.0000
  O   O13       1.0  0.74382  0.94220  0.97672  1.0000
  O   O14       1.0  0.75618  0.55780  0.47672  1.0000
  O   O15       1.0  0.25618  0.05781  0.02328  1.0000
  O   O16       1.0  0.24381  0.44219  0.52327  1.0000
