data_image0
_chemical_formula_structural       Zn4H32C56O20
_chemical_formula_sum              "Zn4 H32 C56 O20"
_cell_length_a       7.37545
_cell_length_b       10.5233
_cell_length_c       15.7225
_cell_angle_alpha    89.9997
_cell_angle_beta     89.9999
_cell_angle_gamma    103.199

_space_group_name_H-M_alt    "P 1"
_space_group_IT_number       1

loop_
  _space_group_symop_operation_xyz
  'x, y, z'

loop_
  _atom_site_type_symbol
  _atom_site_label
  _atom_site_symmetry_multiplicity
  _atom_site_fract_x
  _atom_site_fract_y
  _atom_site_fract_z
  _atom_site_occupancy
  Zn  Zn1       1.0  0.73633  0.44880  0.96240  1.0000
  Zn  Zn2       1.0  0.23633  0.94880  0.53761  1.0000
  Zn  Zn3       1.0  0.26367  0.55121  0.03760  1.0000
  Zn  Zn4       1.0  0.76368  0.05121  0.46239  1.0000
  H   H1        1.0  0.18719  0.64523  0.84139  1.0000
  H   H2        1.0  0.68718  0.14523  0.65860  1.0000
  H   H3        1.0  0.81282  0.35477  0.15861  1.0000
  H   H4        1.0  0.31282  0.85477  0.34140  1.0000
  H   H5        1.0  0.93438  0.60819  0.73386  1.0000
  H   H6        1.0  0.43437  0.10819  0.76614  1.0000
  H   H7        1.0  0.06562  0.39180  0.26614  1.0000
  H   H8        1.0  0.56563  0.89181  0.23386  1.0000
  H   H9        1.0  0.06399  0.24339  0.66378  1.0000
  H   H10       1.0  0.56399  0.74338  0.83622  1.0000
  H   H11       1.0  0.93599  0.75661  0.33622  1.0000
  H   H12       1.0  0.43601  0.25661  0.16378  1.0000
  H   H13       1.0  0.31998  0.28149  0.77252  1.0000
  H   H14       1.0  0.81997  0.78149  0.72748  1.0000
  H   H15       1.0  0.68002  0.71851  0.22747  1.0000
  H   H16       1.0  0.18002  0.21851  0.27252  1.0000
  H   H17       1.0  0.01185  0.60103  0.53996  1.0000
  H   H18       1.0  0.51184  0.10103  0.96003  1.0000
  H   H19       1.0  0.98815  0.39896  0.46003  1.0000
  H   H20       1.0  0.48815  0.89897  0.03997  1.0000
  H   H21       1.0  0.85389  0.76974  0.48555  1.0000
  H   H22       1.0  0.35389  0.26973  0.01445  1.0000
  H   H23       1.0  0.14611  0.23026  0.51445  1.0000
  H   H24       1.0  0.64611  0.73027  0.98555  1.0000
  H   H25       1.0  0.35235  0.58470  0.61835  1.0000
  H   H26       1.0  0.85235  0.08470  0.88165  1.0000
  H   H27       1.0  0.64765  0.41530  0.38165  1.0000
  H   H28       1.0  0.14765  0.91530  0.11835  1.0000
  H   H29       1.0  0.50642  0.40865  0.66680  1.0000
  H   H30       1.0  0.00641  0.90864  0.83320  1.0000
  H   H31       1.0  0.49358  0.59136  0.33320  1.0000
  H   H32       1.0  0.99359  0.09136  0.16680  1.0000
  C   C1        1.0  0.42562  0.49171  0.87501  1.0000
  C   C2        1.0  0.92562  0.99171  0.62499  1.0000
  C   C3        1.0  0.57438  0.50829  0.12499  1.0000
  C   C4        1.0  0.07439  0.00829  0.37501  1.0000
  C   C5        1.0  0.27122  0.46613  0.81301  1.0000
  C   C6        1.0  0.77121  0.96613  0.68699  1.0000
  C   C7        1.0  0.72879  0.53386  0.18699  1.0000
  C   C8        1.0  0.22879  0.03387  0.31301  1.0000
  C   C9        1.0  0.16020  0.55708  0.80270  1.0000
  C   C10       1.0  0.66020  0.05708  0.69730  1.0000
  C   C11       1.0  0.83979  0.44292  0.19730  1.0000
  C   C12       1.0  0.33980  0.94292  0.30270  1.0000
  C   C13       1.0  0.01845  0.53669  0.74256  1.0000
  C   C14       1.0  0.51845  0.03668  0.75744  1.0000
  C   C15       1.0  0.98154  0.46331  0.25744  1.0000
  C   C16       1.0  0.48156  0.96331  0.24256  1.0000
  C   C17       1.0  0.98579  0.42337  0.69279  1.0000
  C   C18       1.0  0.48579  0.92337  0.80721  1.0000
  C   C19       1.0  0.01420  0.57663  0.30721  1.0000
  C   C20       1.0  0.51421  0.07663  0.19279  1.0000
  C   C21       1.0  0.09286  0.33022  0.70353  1.0000
  C   C22       1.0  0.59286  0.83022  0.79647  1.0000
  C   C23       1.0  0.90713  0.66978  0.29647  1.0000
  C   C24       1.0  0.40714  0.16978  0.20353  1.0000
  C   C25       1.0  0.23480  0.35235  0.76319  1.0000
  C   C26       1.0  0.73480  0.85235  0.73681  1.0000
  C   C27       1.0  0.76519  0.64765  0.23681  1.0000
  C   C28       1.0  0.26520  0.14765  0.26319  1.0000
  C   C29       1.0  0.76568  0.49547  0.60577  1.0000
  C   C30       1.0  0.26568  0.99547  0.89424  1.0000
  C   C31       1.0  0.23431  0.50453  0.39424  1.0000
  C   C32       1.0  0.73432  0.00453  0.10577  1.0000
  C   C33       1.0  0.86638  0.59625  0.55524  1.0000
  C   C34       1.0  0.36637  0.09625  0.94476  1.0000
  C   C35       1.0  0.13362  0.40374  0.44476  1.0000
  C   C36       1.0  0.63363  0.90375  0.05524  1.0000
  C   C37       1.0  0.77811  0.69114  0.52571  1.0000
  C   C38       1.0  0.27810  0.19114  0.97429  1.0000
  C   C39       1.0  0.22190  0.30886  0.47429  1.0000
  C   C40       1.0  0.72190  0.80886  0.02571  1.0000
  C   C41       1.0  0.59359  0.68835  0.54885  1.0000
  C   C42       1.0  0.09358  0.18834  0.95115  1.0000
  C   C43       1.0  0.40642  0.31166  0.45115  1.0000
  C   C44       1.0  0.90642  0.81165  0.04885  1.0000
  C   C45       1.0  0.50709  0.79635  0.52177  1.0000
  C   C46       1.0  0.00708  0.29634  0.97824  1.0000
  C   C47       1.0  0.49292  0.20365  0.47824  1.0000
  C   C48       1.0  0.99292  0.70366  0.02176  1.0000
  C   C49       1.0  0.49521  0.58643  0.59997  1.0000
  C   C50       1.0  0.99520  0.08642  0.90003  1.0000
  C   C51       1.0  0.50479  0.41358  0.40003  1.0000
  C   C52       1.0  0.00480  0.91358  0.09997  1.0000
  C   C53       1.0  0.58061  0.48881  0.62752  1.0000
  C   C54       1.0  0.08060  0.98881  0.87248  1.0000
  C   C55       1.0  0.41939  0.51119  0.37248  1.0000
  C   C56       1.0  0.91940  0.01119  0.12752  1.0000
  O   O1        1.0  0.55864  0.43319  0.86582  1.0000
  O   O2        1.0  0.05864  0.93319  0.63418  1.0000
  O   O3        1.0  0.44136  0.56681  0.13418  1.0000
  O   O4        1.0  0.94136  0.06681  0.36582  1.0000
  O   O5        1.0  0.42496  0.57489  0.93492  1.0000
  O   O6        1.0  0.92496  0.07489  0.56508  1.0000
  O   O7        1.0  0.57504  0.42510  0.06507  1.0000
  O   O8        1.0  0.07505  0.92511  0.43492  1.0000
  O   O9        1.0  0.59046  0.87925  0.46698  1.0000
  O   O10       1.0  0.09047  0.37925  0.03302  1.0000
  O   O11       1.0  0.40954  0.12076  0.53302  1.0000
  O   O12       1.0  0.90954  0.62076  0.96698  1.0000
  O   O13       1.0  0.34929  0.79955  0.55454  1.0000
  O   O14       1.0  0.84927  0.29954  0.94547  1.0000
  O   O15       1.0  0.65073  0.20046  0.44546  1.0000
  O   O16       1.0  0.15073  0.70046  0.05453  1.0000
  O   O17       1.0  0.84701  0.39504  0.63273  1.0000
  O   O18       1.0  0.34700  0.89504  0.86727  1.0000
  O   O19       1.0  0.15299  0.60496  0.36727  1.0000
  O   O20       1.0  0.65300  0.10496  0.13273  1.0000
