data_image0
_chemical_formula_structural       Zn2H36C48N8O12
_chemical_formula_sum              "Zn2 H36 C48 N8 O12"
_cell_length_a       9.98075
_cell_length_b       10.3241
_cell_length_c       11.7888
_cell_angle_alpha    76.4762
_cell_angle_beta     72.5485
_cell_angle_gamma    86.985

_space_group_name_H-M_alt    "P 1"
_space_group_IT_number       1

loop_
  _space_group_symop_operation_xyz
  'x, y, z'

loop_
  _atom_site_type_symbol
  _atom_site_label
  _atom_site_symmetry_multiplicity
  _atom_site_fract_x
  _atom_site_fract_y
  _atom_site_fract_z
  _atom_site_occupancy
  Zn  Zn1       1.0  0.64023  0.15389  0.14565  1.0000
  Zn  Zn2       1.0  0.35978  0.84611  0.85435  1.0000
  H   H1        1.0  0.68017  0.51412  0.00089  1.0000
  H   H2        1.0  0.31983  0.48588  0.99910  1.0000
  H   H3        1.0  0.43121  0.28742  0.06804  1.0000
  H   H4        1.0  0.56879  0.71258  0.93196  1.0000
  H   H5        1.0  0.44463  0.15582  0.01379  1.0000
  H   H6        1.0  0.55537  0.84418  0.98621  1.0000
  H   H7        1.0  0.66609  0.65706  0.12177  1.0000
  H   H8        1.0  0.33391  0.34294  0.87823  1.0000
  H   H9        1.0  0.40138  0.38348  0.43248  1.0000
  H   H10       1.0  0.59862  0.61651  0.56752  1.0000
  H   H11       1.0  0.36051  0.80687  0.40295  1.0000
  H   H12       1.0  0.63949  0.19312  0.59706  1.0000
  H   H13       1.0  0.13877  0.52832  0.76579  1.0000
  H   H14       1.0  0.86123  0.47168  0.23422  1.0000
  H   H15       1.0  0.91918  0.49831  0.94149  1.0000
  H   H16       1.0  0.08082  0.50170  0.05851  1.0000
  H   H17       1.0  0.67280  0.24252  0.86619  1.0000
  H   H18       1.0  0.32720  0.75748  0.13381  1.0000
  H   H19       1.0  0.68441  0.69918  0.70110  1.0000
  H   H20       1.0  0.31558  0.30082  0.29889  1.0000
  H   H21       1.0  0.90595  0.72972  0.52448  1.0000
  H   H22       1.0  0.09405  0.27028  0.47552  1.0000
  H   H23       1.0  0.17651  0.11809  0.05905  1.0000
  H   H24       1.0  0.82349  0.88191  0.94095  1.0000
  H   H25       1.0  0.87057  0.29017  0.66982  1.0000
  H   H26       1.0  0.12943  0.70984  0.33018  1.0000
  H   H27       1.0  0.15734  0.18696  0.88662  1.0000
  H   H28       1.0  0.84266  0.81305  0.11338  1.0000
  H   H29       1.0  0.11896  0.26574  0.68252  1.0000
  H   H30       1.0  0.88104  0.73427  0.31748  1.0000
  H   H31       1.0  0.17855  0.04682  0.27412  1.0000
  H   H32       1.0  0.82145  0.95317  0.72588  1.0000
  H   H33       1.0  0.72487  0.06600  0.38477  1.0000
  H   H34       1.0  0.27513  0.93399  0.61523  1.0000
  H   H35       1.0  0.94692  0.01881  0.44268  1.0000
  H   H36       1.0  0.05308  0.98119  0.55732  1.0000
  C   C1        1.0  0.58247  0.63897  0.20797  1.0000
  C   C2        1.0  0.41753  0.36103  0.79203  1.0000
  C   C3        1.0  0.51989  0.74686  0.25573  1.0000
  C   C4        1.0  0.48011  0.25314  0.74427  1.0000
  C   C5        1.0  0.60360  0.39489  0.21316  1.0000
  C   C6        1.0  0.39640  0.60511  0.78684  1.0000
  C   C7        1.0  0.54031  0.50778  0.27041  1.0000
  C   C8        1.0  0.45969  0.49221  0.72959  1.0000
  C   C9        1.0  0.36534  0.59260  0.42634  1.0000
  C   C10       1.0  0.63466  0.40740  0.57366  1.0000
  C   C11       1.0  0.56873  0.88641  0.18765  1.0000
  C   C12       1.0  0.43127  0.11359  0.81235  1.0000
  C   C13       1.0  0.43397  0.48484  0.38183  1.0000
  C   C14       1.0  0.56603  0.51516  0.61817  1.0000
  C   C15       1.0  0.41056  0.72361  0.36525  1.0000
  C   C16       1.0  0.58944  0.27638  0.63475  1.0000
  C   C17       1.0  0.03877  0.56282  0.75174  1.0000
  C   C18       1.0  0.96122  0.43718  0.24826  1.0000
  C   C19       1.0  0.91733  0.54706  0.84940  1.0000
  C   C20       1.0  0.08267  0.45294  0.15060  1.0000
  C   C21       1.0  0.93528  0.17598  0.98354  1.0000
  C   C22       1.0  0.06472  0.82403  0.01646  1.0000
  C   C23       1.0  0.03400  0.62592  0.63352  1.0000
  C   C24       1.0  0.96600  0.37408  0.36648  1.0000
  C   C25       1.0  0.78869  0.59200  0.82962  1.0000
  C   C26       1.0  0.21131  0.40800  0.17038  1.0000
  C   C27       1.0  0.94883  0.13220  0.10856  1.0000
  C   C28       1.0  0.05117  0.86780  0.89144  1.0000
  C   C29       1.0  0.78206  0.23102  0.86579  1.0000
  C   C30       1.0  0.21794  0.76898  0.13421  1.0000
  C   C31       1.0  0.78429  0.66058  0.71290  1.0000
  C   C32       1.0  0.21571  0.33942  0.28710  1.0000
  C   C33       1.0  0.90662  0.67774  0.61620  1.0000
  C   C34       1.0  0.09338  0.32226  0.38380  1.0000
  C   C35       1.0  0.07807  0.10775  0.13278  1.0000
  C   C36       1.0  0.92193  0.89225  0.86722  1.0000
  C   C37       1.0  0.89233  0.25807  0.75751  1.0000
  C   C38       1.0  0.10767  0.74193  0.24249  1.0000
  C   C39       1.0  0.05145  0.20086  0.87869  1.0000
  C   C40       1.0  0.94856  0.79914  0.12131  1.0000
  C   C41       1.0  0.02941  0.24315  0.76470  1.0000
  C   C42       1.0  0.97059  0.75686  0.23530  1.0000
  C   C43       1.0  0.07887  0.06612  0.25373  1.0000
  C   C44       1.0  0.92113  0.93388  0.74627  1.0000
  C   C45       1.0  0.82745  0.07646  0.31587  1.0000
  C   C46       1.0  0.17255  0.92354  0.68413  1.0000
  C   C47       1.0  0.95163  0.05027  0.34687  1.0000
  C   C48       1.0  0.04837  0.94973  0.65313  1.0000
  N   N1        1.0  0.80277  0.19125  0.97582  1.0000
  N   N2        1.0  0.19724  0.80875  0.02418  1.0000
  N   N3        1.0  0.24946  0.56304  0.53315  1.0000
  N   N4        1.0  0.75053  0.43696  0.46685  1.0000
  N   N5        1.0  0.15007  0.64447  0.52887  1.0000
  N   N6        1.0  0.84993  0.35553  0.47113  1.0000
  N   N7        1.0  0.82680  0.11629  0.19963  1.0000
  N   N8        1.0  0.17320  0.88371  0.80037  1.0000
  O   O1        1.0  0.55595  0.27682  0.26698  1.0000
  O   O2        1.0  0.44405  0.72318  0.73302  1.0000
  O   O3        1.0  0.62315  0.91050  0.07239  1.0000
  O   O4        1.0  0.37685  0.08949  0.92761  1.0000
  O   O5        1.0  0.66629  0.57299  0.92141  1.0000
  O   O6        1.0  0.33371  0.42701  0.07858  1.0000
  O   O7        1.0  0.55420  0.97402  0.25098  1.0000
  O   O8        1.0  0.44580  0.02598  0.74902  1.0000
  O   O9        1.0  0.70020  0.42003  0.11118  1.0000
  O   O10       1.0  0.29980  0.57996  0.88882  1.0000
  O   O11       1.0  0.47924  0.20116  0.06649  1.0000
  O   O12       1.0  0.52076  0.79884  0.93351  1.0000
