data_image0
_chemical_formula_structural       Zn2H36C48N8O12
_chemical_formula_sum              "Zn2 H36 C48 N8 O12"
_cell_length_a       9.60058
_cell_length_b       11.7207
_cell_length_c       12.1133
_cell_angle_alpha    109.517
_cell_angle_beta     111.688
_cell_angle_gamma    101.566

_space_group_name_H-M_alt    "P 1"
_space_group_IT_number       1

loop_
  _space_group_symop_operation_xyz
  'x, y, z'

loop_
  _atom_site_type_symbol
  _atom_site_label
  _atom_site_symmetry_multiplicity
  _atom_site_fract_x
  _atom_site_fract_y
  _atom_site_fract_z
  _atom_site_occupancy
  Zn  Zn1       1.0  0.20268  0.53926  0.87092  1.0000
  Zn  Zn2       1.0  0.79732  0.46073  0.12908  1.0000
  H   H1        1.0  0.44587  0.08654  0.90897  1.0000
  H   H2        1.0  0.55414  0.91346  0.09103  1.0000
  H   H3        1.0  0.51300  0.23529  0.14116  1.0000
  H   H4        1.0  0.48701  0.76471  0.85884  1.0000
  H   H5        1.0  0.10469  0.96421  0.10595  1.0000
  H   H6        1.0  0.89531  0.03580  0.89405  1.0000
  H   H7        1.0  0.03503  0.81759  0.87394  1.0000
  H   H8        1.0  0.96497  0.18242  0.12606  1.0000
  H   H9        1.0  0.77156  0.41137  0.53854  1.0000
  H   H10       1.0  0.22844  0.58862  0.46146  1.0000
  H   H11       1.0  0.63151  0.56572  0.84016  1.0000
  H   H12       1.0  0.36849  0.43429  0.15984  1.0000
  H   H13       1.0  0.26917  0.30339  0.43795  1.0000
  H   H14       1.0  0.73083  0.69662  0.56205  1.0000
  H   H15       1.0  0.53750  0.61503  0.04567  1.0000
  H   H16       1.0  0.46250  0.38497  0.95433  1.0000
  H   H17       1.0  0.74832  0.77537  0.27370  1.0000
  H   H18       1.0  0.25168  0.22463  0.72630  1.0000
  H   H19       1.0  0.39285  0.93490  0.31930  1.0000
  H   H20       1.0  0.60715  0.06510  0.68070  1.0000
  H   H21       1.0  0.18982  0.75678  0.09170  1.0000
  H   H22       1.0  0.81018  0.24322  0.90830  1.0000
  H   H23       1.0  0.04302  0.02492  0.72512  1.0000
  H   H24       1.0  0.95698  0.97508  0.27488  1.0000
  H   H25       1.0  0.83170  0.84433  0.50377  1.0000
  H   H26       1.0  0.16831  0.15567  0.49623  1.0000
  H   H27       1.0  0.64223  0.13034  0.42409  1.0000
  H   H28       1.0  0.35775  0.86965  0.57591  1.0000
  H   H29       1.0  0.86938  0.29919  0.64466  1.0000
  H   H30       1.0  0.13061  0.70080  0.35534  1.0000
  H   H31       1.0  0.11741  0.78709  0.71030  1.0000
  H   H32       1.0  0.88259  0.21291  0.28970  1.0000
  H   H33       1.0  0.09532  0.29585  0.82726  1.0000
  H   H34       1.0  0.90468  0.70415  0.17273  1.0000
  H   H35       1.0  0.14203  0.39062  0.97922  1.0000
  H   H36       1.0  0.85798  0.60937  0.02078  1.0000
  C   C1        1.0  0.23754  0.94396  0.87818  1.0000
  C   C2        1.0  0.76246  0.05605  0.12181  1.0000
  C   C3        1.0  0.37182  0.06205  0.95345  1.0000
  C   C4        1.0  0.62818  0.93795  0.04655  1.0000
  C   C5        1.0  0.41019  0.14302  0.08215  1.0000
  C   C6        1.0  0.58981  0.85699  0.91785  1.0000
  C   C7        1.0  0.31458  0.10655  0.13852  1.0000
  C   C8        1.0  0.68541  0.89345  0.86148  1.0000
  C   C9        1.0  0.17874  0.99001  0.06172  1.0000
  C   C10       1.0  0.82126  0.01000  0.93827  1.0000
  C   C11       1.0  0.14007  0.90833  0.93244  1.0000
  C   C12       1.0  0.85992  0.09167  0.06755  1.0000
  C   C13       1.0  0.51603  0.34499  0.47458  1.0000
  C   C14       1.0  0.48397  0.65501  0.52542  1.0000
  C   C15       1.0  0.67854  0.41660  0.56900  1.0000
  C   C16       1.0  0.32146  0.58339  0.43100  1.0000
  C   C17       1.0  0.72156  0.49292  0.70195  1.0000
  C   C18       1.0  0.27845  0.50708  0.29805  1.0000
  C   C19       1.0  0.60047  0.50408  0.73812  1.0000
  C   C20       1.0  0.39953  0.49592  0.26188  1.0000
  C   C21       1.0  0.43745  0.43644  0.64294  1.0000
  C   C22       1.0  0.56254  0.56356  0.35706  1.0000
  C   C23       1.0  0.39558  0.35590  0.51194  1.0000
  C   C24       1.0  0.60442  0.64410  0.48806  1.0000
  C   C25       1.0  0.30597  0.44575  0.68098  1.0000
  C   C26       1.0  0.69403  0.55425  0.31902  1.0000
  C   C27       1.0  0.89601  0.55560  0.80437  1.0000
  C   C28       1.0  0.10400  0.44440  0.19562  1.0000
  C   C29       1.0  0.50879  0.68482  0.11062  1.0000
  C   C30       1.0  0.49121  0.31517  0.88938  1.0000
  C   C31       1.0  0.62674  0.77595  0.23756  1.0000
  C   C32       1.0  0.37326  0.22405  0.76244  1.0000
  C   C33       1.0  0.58884  0.86987  0.31580  1.0000
  C   C34       1.0  0.41116  0.13012  0.68420  1.0000
  C   C35       1.0  0.42945  0.86467  0.26276  1.0000
  C   C36       1.0  0.57055  0.13533  0.73725  1.0000
  C   C37       1.0  0.31611  0.76754  0.13636  1.0000
  C   C38       1.0  0.68389  0.23246  0.86364  1.0000
  C   C39       1.0  0.95119  0.04375  0.65548  1.0000
  C   C40       1.0  0.04881  0.95625  0.34452  1.0000
  C   C41       1.0  0.83263  0.94338  0.53278  1.0000
  C   C42       1.0  0.16737  0.05662  0.46722  1.0000
  C   C43       1.0  0.71563  0.97234  0.44772  1.0000
  C   C44       1.0  0.28437  0.02766  0.55228  1.0000
  C   C45       1.0  0.72604  0.10202  0.48888  1.0000
  C   C46       1.0  0.27395  0.89797  0.51113  1.0000
  C   C47       1.0  0.85217  0.19644  0.61141  1.0000
  C   C48       1.0  0.14783  0.80356  0.38860  1.0000
  N   N1        1.0  0.34566  0.17988  0.26919  1.0000
  N   N2        1.0  0.65433  0.82012  0.73081  1.0000
  N   N3        1.0  0.48635  0.26737  0.34471  1.0000
  N   N4        1.0  0.51364  0.73263  0.65529  1.0000
  N   N5        1.0  0.35569  0.68037  0.06051  1.0000
  N   N6        1.0  0.64431  0.31963  0.93949  1.0000
  N   N7        1.0  0.96166  0.16812  0.69420  1.0000
  N   N8        1.0  0.03834  0.83188  0.30580  1.0000
  O   O1        1.0  0.20785  0.86946  0.75208  1.0000
  O   O2        1.0  0.79216  0.13054  0.24792  1.0000
  O   O3        1.0  0.99722  0.54220  0.75849  1.0000
  O   O4        1.0  0.00278  0.45779  0.24150  1.0000
  O   O5        1.0  0.93871  0.61365  0.92647  1.0000
  O   O6        1.0  0.06129  0.38635  0.07353  1.0000
  O   O7        1.0  0.16436  0.36665  0.60324  1.0000
  O   O8        1.0  0.83565  0.63335  0.39677  1.0000
  O   O9        1.0  0.35498  0.53720  0.79936  1.0000
  O   O10       1.0  0.64502  0.46281  0.20064  1.0000
  O   O11       1.0  0.17532  0.38375  0.90823  1.0000
  O   O12       1.0  0.82468  0.61625  0.09177  1.0000
