data_image0
_chemical_formula_structural       Cd2H36C48N8O12
_chemical_formula_sum              "Cd2 H36 C48 N8 O12"
_cell_length_a       10.4338
_cell_length_b       10.0619
_cell_length_c       11.5121
_cell_angle_alpha    73.9585
_cell_angle_beta     79.8396
_cell_angle_gamma    90.5269

_space_group_name_H-M_alt    "P 1"
_space_group_IT_number       1

loop_
  _space_group_symop_operation_xyz
  'x, y, z'

loop_
  _atom_site_type_symbol
  _atom_site_label
  _atom_site_symmetry_multiplicity
  _atom_site_fract_x
  _atom_site_fract_y
  _atom_site_fract_z
  _atom_site_occupancy
  Cd  Cd1       1.0  0.34223  0.36347  0.85408  1.0000
  Cd  Cd2       1.0  0.65776  0.63653  0.14593  1.0000
  H   H1        1.0  0.24287  0.31677  0.14962  1.0000
  H   H2        1.0  0.75712  0.68323  0.85038  1.0000
  H   H3        1.0  0.19463  0.12559  0.34833  1.0000
  H   H4        1.0  0.80537  0.87440  0.65168  1.0000
  H   H5        1.0  0.22061  0.87984  0.33816  1.0000
  H   H6        1.0  0.77939  0.12016  0.66184  1.0000
  H   H7        1.0  0.30451  0.83744  0.13711  1.0000
  H   H8        1.0  0.69549  0.16255  0.86289  1.0000
  H   H9        1.0  0.37508  0.81222  0.97385  1.0000
  H   H10       1.0  0.62492  0.18778  0.02615  1.0000
  H   H11       1.0  0.44956  0.79162  0.76461  1.0000
  H   H12       1.0  0.55043  0.20839  0.23539  1.0000
  H   H13       1.0  0.48791  0.00901  0.58558  1.0000
  H   H14       1.0  0.51209  0.99100  0.41441  1.0000
  H   H15       1.0  0.44239  0.23731  0.62832  1.0000
  H   H16       1.0  0.55761  0.76270  0.37168  1.0000
  H   H17       1.0  0.83805  0.34610  0.85433  1.0000
  H   H18       1.0  0.16195  0.65390  0.14567  1.0000
  H   H19       1.0  0.69607  0.65101  0.57016  1.0000
  H   H20       1.0  0.30393  0.34900  0.42984  1.0000
  H   H21       1.0  0.10960  0.61356  0.55365  1.0000
  H   H22       1.0  0.89040  0.38645  0.44634  1.0000
  H   H23       1.0  0.78169  0.09708  0.45830  1.0000
  H   H24       1.0  0.21831  0.90293  0.54169  1.0000
  H   H25       1.0  0.81064  0.31670  0.28533  1.0000
  H   H26       1.0  0.18936  0.68330  0.71467  1.0000
  H   H27       1.0  0.00018  0.09505  0.03849  1.0000
  H   H28       1.0  0.99982  0.90495  0.96151  1.0000
  H   H29       1.0  0.96972  0.87578  0.21147  1.0000
  H   H30       1.0  0.03028  0.12421  0.78853  1.0000
  H   H31       1.0  0.21564  0.57634  0.94605  1.0000
  H   H32       1.0  0.78436  0.42365  0.05395  1.0000
  H   H33       1.0  0.34463  0.56471  0.00637  1.0000
  H   H34       1.0  0.65537  0.43529  0.99363  1.0000
  H   H35       1.0  0.98431  0.33186  0.98252  1.0000
  H   H36       1.0  0.01569  0.66814  0.01748  1.0000
  C   C1        1.0  0.25565  0.20881  0.15129  1.0000
  C   C2        1.0  0.74435  0.79118  0.84872  1.0000
  C   C3        1.0  0.22795  0.10258  0.26099  1.0000
  C   C4        1.0  0.77205  0.89742  0.73901  1.0000
  C   C5        1.0  0.24426  0.96695  0.25536  1.0000
  C   C6        1.0  0.75574  0.03304  0.74464  1.0000
  C   C7        1.0  0.28910  0.94266  0.14226  1.0000
  C   C8        1.0  0.71090  0.05734  0.85774  1.0000
  C   C9        1.0  0.31568  0.05516  0.03581  1.0000
  C   C10       1.0  0.68433  0.94484  0.96419  1.0000
  C   C11       1.0  0.36416  0.03594  0.91236  1.0000
  C   C12       1.0  0.63585  0.96406  0.08764  1.0000
  C   C13       1.0  0.38842  0.90489  0.89599  1.0000
  C   C14       1.0  0.61158  0.09512  0.10401  1.0000
  C   C15       1.0  0.43247  0.89355  0.77802  1.0000
  C   C16       1.0  0.56753  0.10645  0.22198  1.0000
  C   C17       1.0  0.45301  0.01324  0.67917  1.0000
  C   C18       1.0  0.54699  0.98676  0.32083  1.0000
  C   C19       1.0  0.42775  0.14009  0.70202  1.0000
  C   C20       1.0  0.57226  0.85991  0.29798  1.0000
  C   C21       1.0  0.09836  0.41192  0.76702  1.0000
  C   C22       1.0  0.90164  0.58808  0.23298  1.0000
  C   C23       1.0  0.98580  0.47377  0.71074  1.0000
  C   C24       1.0  0.01420  0.52623  0.28926  1.0000
  C   C25       1.0  0.85689  0.43038  0.76938  1.0000
  C   C26       1.0  0.14311  0.56962  0.23062  1.0000
  C   C27       1.0  0.75239  0.49271  0.71832  1.0000
  C   C28       1.0  0.24761  0.50729  0.28168  1.0000
  C   C29       1.0  0.77702  0.60250  0.61026  1.0000
  C   C30       1.0  0.22298  0.39750  0.38974  1.0000
  C   C31       1.0  0.90583  0.64873  0.55325  1.0000
  C   C32       1.0  0.09417  0.35127  0.44675  1.0000
  C   C33       1.0  0.00969  0.58078  0.60071  1.0000
  C   C34       1.0  0.99030  0.41922  0.39929  1.0000
  C   C35       1.0  0.61401  0.44466  0.77893  1.0000
  C   C36       1.0  0.38599  0.55534  0.22107  1.0000
  C   C37       1.0  0.87891  0.97512  0.34663  1.0000
  C   C38       1.0  0.12109  0.02488  0.65337  1.0000
  C   C39       1.0  0.83091  0.09887  0.36606  1.0000
  C   C40       1.0  0.16909  0.90114  0.63394  1.0000
  C   C41       1.0  0.84753  0.22040  0.27104  1.0000
  C   C42       1.0  0.15247  0.77960  0.72895  1.0000
  C   C43       1.0  0.91157  0.21929  0.15333  1.0000
  C   C44       1.0  0.08843  0.78072  0.84667  1.0000
  C   C45       1.0  0.95417  0.09439  0.13132  1.0000
  C   C46       1.0  0.04582  0.90561  0.86868  1.0000
  C   C47       1.0  0.93850  0.97334  0.22737  1.0000
  C   C48       1.0  0.06150  0.02666  0.77263  1.0000
  N   N1        1.0  0.29793  0.18596  0.04200  1.0000
  N   N2        1.0  0.70207  0.81404  0.95800  1.0000
  N   N3        1.0  0.38416  0.15049  0.81555  1.0000
  N   N4        1.0  0.61585  0.84952  0.18446  1.0000
  N   N5        1.0  0.93664  0.76330  0.44714  1.0000
  N   N6        1.0  0.06336  0.23670  0.55286  1.0000
  N   N7        1.0  0.86003  0.86020  0.45045  1.0000
  N   N8        1.0  0.13997  0.13980  0.54955  1.0000
  O   O1        1.0  0.30396  0.54051  0.94150  1.0000
  O   O2        1.0  0.69604  0.45948  0.05851  1.0000
  O   O3        1.0  0.07692  0.32001  0.87172  1.0000
  O   O4        1.0  0.92308  0.67999  0.12827  1.0000
  O   O5        1.0  0.21328  0.45589  0.70968  1.0000
  O   O6        1.0  0.78672  0.54411  0.29032  1.0000
  O   O7        1.0  0.58883  0.38045  0.89410  1.0000
  O   O8        1.0  0.41117  0.61955  0.10590  1.0000
  O   O9        1.0  0.52680  0.46928  0.71278  1.0000
  O   O10       1.0  0.47320  0.53072  0.28722  1.0000
  O   O11       1.0  0.92742  0.34075  0.06303  1.0000
  O   O12       1.0  0.07258  0.65925  0.93697  1.0000
