data_image0
_chemical_formula_structural       Zn2H36C52N8O16
_chemical_formula_sum              "Zn2 H36 C52 N8 O16"
_cell_length_a       10.2969
_cell_length_b       10.9638
_cell_length_c       12.7703
_cell_angle_alpha    95.0288
_cell_angle_beta     114.464
_cell_angle_gamma    100.36

_space_group_name_H-M_alt    "P 1"
_space_group_IT_number       1

loop_
  _space_group_symop_operation_xyz
  'x, y, z'

loop_
  _atom_site_type_symbol
  _atom_site_label
  _atom_site_symmetry_multiplicity
  _atom_site_fract_x
  _atom_site_fract_y
  _atom_site_fract_z
  _atom_site_occupancy
  Zn  Zn1       1.0  0.44134  0.31750  0.82769  1.0000
  Zn  Zn2       1.0  0.55866  0.68250  0.17232  1.0000
  H   H1        1.0  0.40306  0.38483  0.03901  1.0000
  H   H2        1.0  0.59695  0.61517  0.96099  1.0000
  H   H3        1.0  0.41392  0.41348  0.22565  1.0000
  H   H4        1.0  0.58608  0.58651  0.77436  1.0000
  H   H5        1.0  0.61225  0.13399  0.94769  1.0000
  H   H6        1.0  0.38776  0.86601  0.05232  1.0000
  H   H7        1.0  0.97997  0.08801  0.33910  1.0000
  H   H8        1.0  0.02002  0.91199  0.66090  1.0000
  H   H9        1.0  0.67597  0.05516  0.13698  1.0000
  H   H10       1.0  0.32404  0.94484  0.86302  1.0000
  H   H11       1.0  0.59632  0.14666  0.28190  1.0000
  H   H12       1.0  0.40369  0.85334  0.71811  1.0000
  H   H13       1.0  0.22483  0.67652  0.48737  1.0000
  H   H14       1.0  0.77517  0.32348  0.51263  1.0000
  H   H15       1.0  0.43131  0.52133  0.38076  1.0000
  H   H16       1.0  0.56869  0.47866  0.61924  1.0000
  H   H17       1.0  0.00930  0.80509  0.92157  1.0000
  H   H18       1.0  0.99069  0.19492  0.07843  1.0000
  H   H19       1.0  0.08818  0.49240  0.49155  1.0000
  H   H20       1.0  0.91182  0.50761  0.50844  1.0000
  H   H21       1.0  0.17515  0.15572  0.35559  1.0000
  H   H22       1.0  0.82485  0.84427  0.64441  1.0000
  H   H23       1.0  0.80512  0.89948  0.25128  1.0000
  H   H24       1.0  0.19487  0.10053  0.74872  1.0000
  H   H25       1.0  0.50027  0.77794  0.37577  1.0000
  H   H26       1.0  0.49972  0.22206  0.62423  1.0000
  H   H27       1.0  0.61162  0.96266  0.53900  1.0000
  H   H28       1.0  0.38837  0.03735  0.46100  1.0000
  H   H29       1.0  0.82021  0.13081  0.55164  1.0000
  H   H30       1.0  0.17979  0.86919  0.44837  1.0000
  H   H31       1.0  0.92031  0.27556  0.81880  1.0000
  H   H32       1.0  0.07970  0.72444  0.18119  1.0000
  H   H33       1.0  0.82910  0.63291  0.89248  1.0000
  H   H34       1.0  0.17089  0.36708  0.10752  1.0000
  H   H35       1.0  0.22100  0.62030  0.85028  1.0000
  H   H36       1.0  0.77899  0.37971  0.14972  1.0000
  C   C1        1.0  0.46248  0.31121  0.06340  1.0000
  C   C2        1.0  0.53752  0.68879  0.93661  1.0000
  C   C3        1.0  0.57835  0.16924  0.01229  1.0000
  C   C4        1.0  0.42165  0.83076  0.98772  1.0000
  C   C5        1.0  0.61383  0.12746  0.11821  1.0000
  C   C6        1.0  0.38618  0.87254  0.88180  1.0000
  C   C7        1.0  0.57093  0.17834  0.19894  1.0000
  C   C8        1.0  0.42908  0.82166  0.80107  1.0000
  C   C9        1.0  0.49263  0.27252  0.17092  1.0000
  C   C10       1.0  0.50738  0.72748  0.82909  1.0000
  C   C11       1.0  0.38531  0.26234  0.30897  1.0000
  C   C12       1.0  0.61469  0.73765  0.69104  1.0000
  C   C13       1.0  0.30945  0.33123  0.36363  1.0000
  C   C14       1.0  0.69055  0.66875  0.63637  1.0000
  C   C15       1.0  0.34385  0.46265  0.39362  1.0000
  C   C16       1.0  0.65615  0.53734  0.60638  1.0000
  C   C17       1.0  0.26373  0.52104  0.43975  1.0000
  C   C18       1.0  0.73626  0.47896  0.56025  1.0000
  C   C19       1.0  0.15043  0.44703  0.45609  1.0000
  C   C20       1.0  0.84958  0.55297  0.54391  1.0000
  C   C21       1.0  0.11483  0.31565  0.42513  1.0000
  C   C22       1.0  0.88516  0.68435  0.57487  1.0000
  C   C23       1.0  0.19552  0.25750  0.37964  1.0000
  C   C24       1.0  0.80448  0.74249  0.62036  1.0000
  C   C25       1.0  0.98905  0.24534  0.44202  1.0000
  C   C26       1.0  0.01095  0.75466  0.55798  1.0000
  C   C27       1.0  0.82473  0.03296  0.39826  1.0000
  C   C28       1.0  0.17527  0.96704  0.60174  1.0000
  C   C29       1.0  0.76234  0.92215  0.31420  1.0000
  C   C30       1.0  0.23765  0.07785  0.68580  1.0000
  C   C31       1.0  0.59357  0.85062  0.38528  1.0000
  C   C32       1.0  0.40642  0.14939  0.61472  1.0000
  C   C33       1.0  0.65370  0.95615  0.47391  1.0000
  C   C34       1.0  0.34629  0.04386  0.52609  1.0000
  C   C35       1.0  0.77078  0.04886  0.48188  1.0000
  C   C36       1.0  0.22922  0.95114  0.51812  1.0000
  C   C37       1.0  0.18483  0.36358  0.82495  1.0000
  C   C38       1.0  0.81517  0.63643  0.17505  1.0000
  C   C39       1.0  0.08217  0.44049  0.83476  1.0000
  C   C40       1.0  0.91783  0.55952  0.16523  1.0000
  C   C41       1.0  0.95051  0.37807  0.83336  1.0000
  C   C42       1.0  0.04949  0.62193  0.16664  1.0000
  C   C43       1.0  0.85728  0.44701  0.85074  1.0000
  C   C44       1.0  0.14273  0.55299  0.14926  1.0000
  C   C45       1.0  0.71342  0.37640  0.84100  1.0000
  C   C46       1.0  0.28658  0.62360  0.15900  1.0000
  C   C47       1.0  0.89865  0.57883  0.87390  1.0000
  C   C48       1.0  0.10135  0.42116  0.12610  1.0000
  C   C49       1.0  0.02883  0.64123  0.87292  1.0000
  C   C50       1.0  0.97117  0.35877  0.12708  1.0000
  C   C51       1.0  0.11974  0.57230  0.85143  1.0000
  C   C52       1.0  0.88026  0.42771  0.14856  1.0000
  N   N1        1.0  0.50363  0.26013  0.98614  1.0000
  N   N2        1.0  0.49638  0.73987  0.01387  1.0000
  N   N3        1.0  0.44049  0.32840  0.24357  1.0000
  N   N4        1.0  0.55952  0.67160  0.75643  1.0000
  N   N5        1.0  0.93966  0.11927  0.39407  1.0000
  N   N6        1.0  0.06034  0.88073  0.60593  1.0000
  N   N7        1.0  0.64926  0.83377  0.30787  1.0000
  N   N8        1.0  0.35073  0.16623  0.69212  1.0000
  O   O1        1.0  0.30211  0.42437  0.81945  1.0000
  O   O2        1.0  0.69789  0.57564  0.18054  1.0000
  O   O3        1.0  0.15675  0.24790  0.82732  1.0000
  O   O4        1.0  0.84326  0.75211  0.17268  1.0000
  O   O5        1.0  0.68936  0.26095  0.84146  1.0000
  O   O6        1.0  0.31064  0.73905  0.15854  1.0000
  O   O7        1.0  0.61262  0.44040  0.82846  1.0000
  O   O8        1.0  0.38738  0.55960  0.17154  1.0000
  O   O9        1.0  0.38957  0.15117  0.31711  1.0000
  O   O10       1.0  0.61043  0.84883  0.68290  1.0000
  O   O11       1.0  0.29888  0.64888  0.46639  1.0000
  O   O12       1.0  0.70112  0.35111  0.53361  1.0000
  O   O13       1.0  0.93186  0.29817  0.49612  1.0000
  O   O14       1.0  0.06814  0.70183  0.50389  1.0000
  O   O15       1.0  0.07081  0.77077  0.89171  1.0000
  O   O16       1.0  0.92918  0.22924  0.10829  1.0000
