data_image0
_chemical_formula_structural       Cd2H44C54N8O16
_chemical_formula_sum              "Cd2 H44 C54 N8 O16"
_cell_length_a       10.3758
_cell_length_b       10.5348
_cell_length_c       12.4269
_cell_angle_alpha    92.1856
_cell_angle_beta     103.301
_cell_angle_gamma    100.619

_space_group_name_H-M_alt    "P 1"
_space_group_IT_number       1

loop_
  _space_group_symop_operation_xyz
  'x, y, z'

loop_
  _atom_site_type_symbol
  _atom_site_label
  _atom_site_symmetry_multiplicity
  _atom_site_fract_x
  _atom_site_fract_y
  _atom_site_fract_z
  _atom_site_occupancy
  Cd  Cd1       1.0  0.60257  0.77934  0.45165  1.0000
  Cd  Cd2       1.0  0.39743  0.22066  0.54835  1.0000
  H   H1        1.0  0.25370  0.93872  0.11050  1.0000
  H   H2        1.0  0.74630  0.06128  0.88950  1.0000
  H   H3        1.0  0.77664  0.67516  0.71822  1.0000
  H   H4        1.0  0.22335  0.32484  0.28178  1.0000
  H   H5        1.0  0.66550  0.05086  0.55931  1.0000
  H   H6        1.0  0.33450  0.94914  0.44069  1.0000
  H   H7        1.0  0.79693  0.99640  0.58731  1.0000
  H   H8        1.0  0.20307  0.00360  0.41270  1.0000
  H   H9        1.0  0.38159  0.86454  0.25817  1.0000
  H   H10       1.0  0.61841  0.13546  0.74183  1.0000
  H   H11       1.0  0.04084  0.12896  0.62274  1.0000
  H   H12       1.0  0.95916  0.87104  0.37726  1.0000
  H   H13       1.0  0.78688  0.02716  0.37881  1.0000
  H   H14       1.0  0.21312  0.97284  0.62118  1.0000
  H   H15       1.0  0.77640  0.19285  0.23991  1.0000
  H   H16       1.0  0.22360  0.80715  0.76009  1.0000
  H   H17       1.0  0.55498  0.19323  0.10443  1.0000
  H   H18       1.0  0.44502  0.80678  0.89557  1.0000
  H   H19       1.0  0.18526  0.15808  0.81208  1.0000
  H   H20       1.0  0.81475  0.84192  0.18792  1.0000
  H   H21       1.0  0.83371  0.85558  0.69832  1.0000
  H   H22       1.0  0.16629  0.14442  0.30167  1.0000
  H   H23       1.0  0.09933  0.84190  0.01489  1.0000
  H   H24       1.0  0.90067  0.15811  0.98511  1.0000
  H   H25       1.0  0.61524  0.49805  0.62555  1.0000
  H   H26       1.0  0.38476  0.50195  0.37445  1.0000
  H   H27       1.0  0.70051  0.56648  0.98202  1.0000
  H   H28       1.0  0.29949  0.43352  0.01799  1.0000
  H   H29       1.0  0.51116  0.37596  0.97823  1.0000
  H   H30       1.0  0.48884  0.62404  0.02177  1.0000
  H   H31       1.0  0.38511  0.25770  0.79835  1.0000
  H   H32       1.0  0.61489  0.74230  0.20165  1.0000
  H   H33       1.0  0.10974  0.76607  0.43998  1.0000
  H   H34       1.0  0.89025  0.23393  0.56001  1.0000
  H   H35       1.0  0.33210  0.54959  0.67343  1.0000
  H   H36       1.0  0.66790  0.45041  0.32657  1.0000
  H   H37       1.0  0.04141  0.44228  0.81000  1.0000
  H   H38       1.0  0.95859  0.55772  0.19000  1.0000
  H   H39       1.0  0.21882  0.49907  0.84912  1.0000
  H   H40       1.0  0.78118  0.50093  0.15088  1.0000
  H   H41       1.0  0.15007  0.36228  0.75261  1.0000
  H   H42       1.0  0.84993  0.63771  0.24740  1.0000
  H   H43       1.0  0.91860  0.55827  0.67236  1.0000
  H   H44       1.0  0.08139  0.44172  0.32764  1.0000
  C   C1        1.0  0.46675  0.93939  0.25113  1.0000
  C   C2        1.0  0.53325  0.06061  0.74887  1.0000
  C   C3        1.0  0.69314  0.03010  0.31853  1.0000
  C   C4        1.0  0.30686  0.96990  0.68146  1.0000
  C   C5        1.0  0.68602  0.12216  0.24123  1.0000
  C   C6        1.0  0.31398  0.87784  0.75877  1.0000
  C   C7        1.0  0.56419  0.12300  0.16603  1.0000
  C   C8        1.0  0.43581  0.87701  0.83398  1.0000
  C   C9        1.0  0.45119  0.02824  0.17008  1.0000
  C   C10       1.0  0.54881  0.97177  0.82992  1.0000
  C   C11       1.0  0.28993  0.07050  0.99966  1.0000
  C   C12       1.0  0.71007  0.92950  0.00034  1.0000
  C   C13       1.0  0.15778  0.00877  0.92266  1.0000
  C   C14       1.0  0.84222  0.99124  0.07735  1.0000
  C   C15       1.0  0.12136  0.06824  0.82414  1.0000
  C   C16       1.0  0.87865  0.93176  0.17586  1.0000
  C   C17       1.0  0.00706  0.01016  0.74215  1.0000
  C   C18       1.0  0.99294  0.98985  0.25785  1.0000
  C   C19       1.0  0.92498  0.89620  0.76158  1.0000
  C   C20       1.0  0.07503  0.10380  0.23841  1.0000
  C   C21       1.0  0.96001  0.83754  0.85977  1.0000
  C   C22       1.0  0.03999  0.16246  0.14023  1.0000
  C   C23       1.0  0.07744  0.89331  0.94037  1.0000
  C   C24       1.0  0.92256  0.10669  0.05962  1.0000
  C   C25       1.0  0.87445  0.71721  0.88530  1.0000
  C   C26       1.0  0.12556  0.28279  0.11469  1.0000
  C   C27       1.0  0.59620  0.47364  0.70572  1.0000
  C   C28       1.0  0.40380  0.52636  0.29428  1.0000
  C   C29       1.0  0.67310  0.54665  0.80438  1.0000
  C   C30       1.0  0.32690  0.45335  0.19562  1.0000
  C   C31       1.0  0.64257  0.51163  0.90493  1.0000
  C   C32       1.0  0.35743  0.48838  0.09507  1.0000
  C   C33       1.0  0.53813  0.40702  0.90248  1.0000
  C   C34       1.0  0.46187  0.59298  0.09752  1.0000
  C   C35       1.0  0.46637  0.34033  0.80166  1.0000
  C   C36       1.0  0.53363  0.65967  0.19834  1.0000
  C   C37       1.0  0.86984  0.71383  0.50722  1.0000
  C   C38       1.0  0.13016  0.28616  0.49278  1.0000
  C   C39       1.0  0.11239  0.70476  0.50854  1.0000
  C   C40       1.0  0.88760  0.29524  0.49146  1.0000
  C   C41       1.0  0.23229  0.66285  0.55375  1.0000
  C   C42       1.0  0.76770  0.33714  0.44624  1.0000
  C   C43       1.0  0.23761  0.58134  0.64031  1.0000
  C   C44       1.0  0.76238  0.41866  0.35969  1.0000
  C   C45       1.0  0.12561  0.54331  0.68496  1.0000
  C   C46       1.0  0.87438  0.45668  0.31504  1.0000
  C   C47       1.0  0.13342  0.45742  0.77909  1.0000
  C   C48       1.0  0.86658  0.54257  0.22091  1.0000
  C   C49       1.0  0.00737  0.58795  0.63977  1.0000
  C   C50       1.0  0.99263  0.41204  0.36023  1.0000
  C   C51       1.0  0.35756  0.71044  0.51464  1.0000
  C   C52       1.0  0.64243  0.28956  0.48536  1.0000
  C   C53       1.0  0.99907  0.66846  0.55190  1.0000
  C   C54       1.0  0.00092  0.33153  0.44809  1.0000
  N   N1        1.0  0.58463  0.94032  0.32287  1.0000
  N   N2        1.0  0.41538  0.05968  0.67713  1.0000
  N   N3        1.0  0.32449  0.01237  0.09653  1.0000
  N   N4        1.0  0.67551  0.98763  0.90347  1.0000
  N   N5        1.0  0.77381  0.65200  0.79738  1.0000
  N   N6        1.0  0.22619  0.34800  0.20261  1.0000
  N   N7        1.0  0.49565  0.37313  0.70510  1.0000
  N   N8        1.0  0.50435  0.62687  0.29490  1.0000
  O   O1        1.0  0.85500  0.77904  0.42188  1.0000
  O   O2        1.0  0.14499  0.22096  0.57812  1.0000
  O   O3        1.0  0.77419  0.68589  0.55696  1.0000
  O   O4        1.0  0.22581  0.31410  0.44304  1.0000
  O   O5        1.0  0.46280  0.66516  0.55406  1.0000
  O   O6        1.0  0.53720  0.33484  0.44593  1.0000
  O   O7        1.0  0.35619  0.79512  0.44330  1.0000
  O   O8        1.0  0.64380  0.20487  0.55670  1.0000
  O   O9        1.0  0.36508  0.16485  0.97527  1.0000
  O   O10       1.0  0.63492  0.83515  0.02473  1.0000
  O   O11       1.0  0.89389  0.68197  0.98063  1.0000
  O   O12       1.0  0.10611  0.31803  0.01937  1.0000
  O   O13       1.0  0.69788  0.96819  0.57403  1.0000
  O   O14       1.0  0.30212  0.03181  0.42597  1.0000
  O   O15       1.0  0.96979  0.05743  0.64205  1.0000
  O   O16       1.0  0.03022  0.94257  0.35795  1.0000
