data_image0
_chemical_formula_structural       Cd2H40C54N8O20
_chemical_formula_sum              "Cd2 H40 C54 N8 O20"
_cell_length_a       10.3433
_cell_length_b       10.7141
_cell_length_c       13.6918
_cell_angle_alpha    70.3385
_cell_angle_beta     83.581
_cell_angle_gamma    83.3446

_space_group_name_H-M_alt    "P 1"
_space_group_IT_number       1

loop_
  _space_group_symop_operation_xyz
  'x, y, z'

loop_
  _atom_site_type_symbol
  _atom_site_label
  _atom_site_symmetry_multiplicity
  _atom_site_fract_x
  _atom_site_fract_y
  _atom_site_fract_z
  _atom_site_occupancy
  Cd  Cd1       1.0  0.53690  0.28902  0.65561  1.0000
  Cd  Cd2       1.0  0.46310  0.71098  0.34439  1.0000
  H   H1        1.0  0.42515  0.39541  0.45840  1.0000
  H   H2        1.0  0.57485  0.60459  0.54160  1.0000
  H   H3        1.0  0.57225  0.40653  0.43146  1.0000
  H   H4        1.0  0.42775  0.59346  0.56854  1.0000
  H   H5        1.0  0.69135  0.45356  0.96101  1.0000
  H   H6        1.0  0.30865  0.54644  0.03899  1.0000
  H   H7        1.0  0.80408  0.65563  0.56372  1.0000
  H   H8        1.0  0.19592  0.34437  0.43628  1.0000
  H   H9        1.0  0.10497  0.16332  0.26342  1.0000
  H   H10       1.0  0.89503  0.83667  0.73658  1.0000
  H   H11       1.0  0.90193  0.97991  0.47556  1.0000
  H   H12       1.0  0.09807  0.02009  0.52444  1.0000
  H   H13       1.0  0.21153  0.65122  0.60330  1.0000
  H   H14       1.0  0.78847  0.34879  0.39670  1.0000
  H   H15       1.0  0.95941  0.78255  0.07635  1.0000
  H   H16       1.0  0.04058  0.21745  0.92365  1.0000
  H   H17       1.0  0.03605  0.28270  0.67443  1.0000
  H   H18       1.0  0.96395  0.71730  0.32557  1.0000
  H   H19       1.0  0.37227  0.11716  0.86517  1.0000
  H   H20       1.0  0.62773  0.88284  0.13483  1.0000
  H   H21       1.0  0.34834  0.07487  0.05805  1.0000
  H   H22       1.0  0.65166  0.92513  0.94196  1.0000
  H   H23       1.0  0.48518  0.19339  0.13353  1.0000
  H   H24       1.0  0.51482  0.80660  0.86648  1.0000
  H   H25       1.0  0.64588  0.38864  0.82183  1.0000
  H   H26       1.0  0.35412  0.61136  0.17817  1.0000
  H   H27       1.0  0.71301  0.59118  0.05701  1.0000
  H   H28       1.0  0.28699  0.40882  0.94299  1.0000
  H   H29       1.0  0.10558  0.60058  0.12949  1.0000
  H   H30       1.0  0.89442  0.39942  0.87051  1.0000
  H   H31       1.0  0.94850  0.22431  0.18084  1.0000
  H   H32       1.0  0.05150  0.77569  0.81916  1.0000
  H   H33       1.0  0.38396  0.30045  0.31949  1.0000
  H   H34       1.0  0.61604  0.69954  0.68051  1.0000
  H   H35       1.0  0.58459  0.15966  0.38582  1.0000
  H   H36       1.0  0.41541  0.84034  0.61418  1.0000
  H   H37       1.0  0.61199  0.92132  0.38810  1.0000
  H   H38       1.0  0.38801  0.07867  0.61190  1.0000
  H   H39       1.0  0.24860  0.95486  0.27766  1.0000
  H   H40       1.0  0.75140  0.04514  0.72234  1.0000
  C   C1        1.0  0.78661  0.38760  0.63899  1.0000
  C   C2        1.0  0.21339  0.61241  0.36101  1.0000
  C   C3        1.0  0.90590  0.46125  0.62511  1.0000
  C   C4        1.0  0.09410  0.53875  0.37489  1.0000
  C   C5        1.0  0.89692  0.60034  0.58703  1.0000
  C   C6        1.0  0.10308  0.39966  0.41296  1.0000
  C   C7        1.0  0.00729  0.66805  0.57988  1.0000
  C   C8        1.0  0.99271  0.33195  0.42012  1.0000
  C   C9        1.0  0.00181  0.81473  0.54381  1.0000
  C   C10       1.0  0.99819  0.18527  0.45619  1.0000
  C   C11       1.0  0.12697  0.59717  0.60827  1.0000
  C   C12       1.0  0.87303  0.40283  0.39173  1.0000
  C   C13       1.0  0.13835  0.45862  0.63994  1.0000
  C   C14       1.0  0.86165  0.54138  0.36006  1.0000
  C   C15       1.0  0.27054  0.38481  0.65735  1.0000
  C   C16       1.0  0.72946  0.61519  0.34265  1.0000
  C   C17       1.0  0.02733  0.39099  0.64939  1.0000
  C   C18       1.0  0.97267  0.60902  0.35061  1.0000
  C   C19       1.0  0.42914  0.16667  0.90142  1.0000
  C   C20       1.0  0.57086  0.83333  0.09858  1.0000
  C   C21       1.0  0.41673  0.14393  0.00830  1.0000
  C   C22       1.0  0.58327  0.85606  0.99170  1.0000
  C   C23       1.0  0.49182  0.20959  0.05061  1.0000
  C   C24       1.0  0.50818  0.79040  0.94939  1.0000
  C   C25       1.0  0.57668  0.29967  0.98341  1.0000
  C   C26       1.0  0.42332  0.70033  0.01660  1.0000
  C   C27       1.0  0.58236  0.31820  0.87677  1.0000
  C   C28       1.0  0.41764  0.68179  0.12323  1.0000
  C   C29       1.0  0.72397  0.31507  0.10611  1.0000
  C   C30       1.0  0.27602  0.68493  0.89390  1.0000
  C   C31       1.0  0.82306  0.39946  0.11780  1.0000
  C   C32       1.0  0.17694  0.60054  0.88220  1.0000
  C   C33       1.0  0.80476  0.53823  0.08599  1.0000
  C   C34       1.0  0.19524  0.46177  0.91401  1.0000
  C   C35       1.0  0.90620  0.61054  0.09188  1.0000
  C   C36       1.0  0.09380  0.38946  0.90812  1.0000
  C   C37       1.0  0.02529  0.54465  0.12653  1.0000
  C   C38       1.0  0.97471  0.45535  0.87347  1.0000
  C   C39       1.0  0.04300  0.40562  0.15917  1.0000
  C   C40       1.0  0.95700  0.59438  0.84083  1.0000
  C   C41       1.0  0.94033  0.33260  0.15714  1.0000
  C   C42       1.0  0.05967  0.66740  0.84287  1.0000
  C   C43       1.0  0.17580  0.34491  0.19011  1.0000
  C   C44       1.0  0.82420  0.65509  0.80989  1.0000
  C   C45       1.0  0.30184  0.14040  0.28975  1.0000
  C   C46       1.0  0.69816  0.85959  0.71025  1.0000
  C   C47       1.0  0.39701  0.19700  0.32294  1.0000
  C   C48       1.0  0.60299  0.80300  0.67706  1.0000
  C   C49       1.0  0.50927  0.11810  0.35974  1.0000
  C   C50       1.0  0.49073  0.88190  0.64026  1.0000
  C   C51       1.0  0.52414  0.98598  0.36297  1.0000
  C   C52       1.0  0.47586  0.01402  0.63703  1.0000
  C   C53       1.0  0.32133  0.00582  0.29861  1.0000
  C   C54       1.0  0.67867  0.99418  0.70139  1.0000
  N   N1        1.0  0.51149  0.25206  0.83745  1.0000
  N   N2        1.0  0.48851  0.74793  0.16255  1.0000
  N   N3        1.0  0.65695  0.37079  0.01776  1.0000
  N   N4        1.0  0.34305  0.62921  0.98225  1.0000
  N   N5        1.0  0.18622  0.21351  0.24935  1.0000
  N   N6        1.0  0.81378  0.78649  0.75065  1.0000
  N   N7        1.0  0.43045  0.93128  0.33415  1.0000
  N   N8        1.0  0.56955  0.06872  0.66585  1.0000
  O   O1        1.0  0.50918  0.34211  0.47515  1.0000
  O   O2        1.0  0.49082  0.65789  0.52485  1.0000
  O   O3        1.0  0.67833  0.45749  0.61182  1.0000
  O   O4        1.0  0.32167  0.54252  0.38818  1.0000
  O   O5        1.0  0.79467  0.26245  0.67804  1.0000
  O   O6        1.0  0.20532  0.73756  0.32196  1.0000
  O   O7        1.0  0.28467  0.26119  0.67356  1.0000
  O   O8        1.0  0.71533  0.73881  0.32644  1.0000
  O   O9        1.0  0.36639  0.45474  0.65141  1.0000
  O   O10       1.0  0.63361  0.54526  0.34859  1.0000
  O   O11       1.0  0.09277  0.87226  0.55896  1.0000
  O   O12       1.0  0.90723  0.12774  0.44103  1.0000
  O   O13       1.0  0.89630  0.87747  0.49784  1.0000
  O   O14       1.0  0.10370  0.12253  0.50216  1.0000
  O   O15       1.0  0.71054  0.20196  0.16785  1.0000
  O   O16       1.0  0.28946  0.79804  0.83215  1.0000
  O   O17       1.0  0.88533  0.74635  0.06031  1.0000
  O   O18       1.0  0.11467  0.25365  0.93969  1.0000
  O   O19       1.0  0.27259  0.41152  0.16319  1.0000
  O   O20       1.0  0.72741  0.58847  0.83680  1.0000
