data_image0
_chemical_formula_structural       Zn2H34C52N10O18
_chemical_formula_sum              "Zn2 H34 C52 N10 O18"
_cell_length_a       9.49427
_cell_length_b       12.283
_cell_length_c       12.3747
_cell_angle_alpha    115.442
_cell_angle_beta     94.8916
_cell_angle_gamma    105.357

_space_group_name_H-M_alt    "P 1"
_space_group_IT_number       1

loop_
  _space_group_symop_operation_xyz
  'x, y, z'

loop_
  _atom_site_type_symbol
  _atom_site_label
  _atom_site_symmetry_multiplicity
  _atom_site_fract_x
  _atom_site_fract_y
  _atom_site_fract_z
  _atom_site_occupancy
  Zn  Zn1       1.0  0.85808  0.24389  0.82755  1.0000
  Zn  Zn2       1.0  0.14192  0.75611  0.17245  1.0000
  H   H1        1.0  0.61060  0.06269  0.60162  1.0000
  H   H2        1.0  0.38940  0.93731  0.39838  1.0000
  H   H3        1.0  0.01124  0.77437  0.47155  1.0000
  H   H4        1.0  0.98876  0.22563  0.52845  1.0000
  H   H5        1.0  0.57507  0.85378  0.41050  1.0000
  H   H6        1.0  0.42493  0.14622  0.58950  1.0000
  H   H7        1.0  0.08344  0.52352  0.29277  1.0000
  H   H8        1.0  0.91656  0.47648  0.70723  1.0000
  H   H9        1.0  0.77541  0.75578  0.39803  1.0000
  H   H10       1.0  0.22459  0.24422  0.60197  1.0000
  H   H11       1.0  0.03498  0.08297  0.74133  1.0000
  H   H12       1.0  0.96503  0.91703  0.25867  1.0000
  H   H13       1.0  0.68048  0.75196  0.68089  1.0000
  H   H14       1.0  0.31953  0.24804  0.31911  1.0000
  H   H15       1.0  0.45500  0.95603  0.73986  1.0000
  H   H16       1.0  0.54500  0.04397  0.26014  1.0000
  H   H17       1.0  0.49553  0.58538  0.52724  1.0000
  H   H18       1.0  0.50447  0.41462  0.47276  1.0000
  H   H19       1.0  0.07510  0.64338  0.46588  1.0000
  H   H20       1.0  0.92490  0.35661  0.53412  1.0000
  H   H21       1.0  0.01946  0.20590  0.27490  1.0000
  H   H22       1.0  0.98054  0.79409  0.72510  1.0000
  H   H23       1.0  0.76744  0.02657  0.89983  1.0000
  H   H24       1.0  0.23255  0.97343  0.10017  1.0000
  H   H25       1.0  0.84990  0.00901  0.08648  1.0000
  H   H26       1.0  0.15009  0.99099  0.91352  1.0000
  H   H27       1.0  0.00174  0.41869  0.07689  1.0000
  H   H28       1.0  0.99826  0.58131  0.92311  1.0000
  H   H29       1.0  0.29530  0.62516  0.85154  1.0000
  H   H30       1.0  0.70470  0.37484  0.14846  1.0000
  H   H31       1.0  0.73443  0.59548  0.90882  1.0000
  H   H32       1.0  0.26557  0.40452  0.09117  1.0000
  H   H33       1.0  0.34286  0.26639  0.80121  1.0000
  H   H34       1.0  0.65714  0.73361  0.19880  1.0000
  C   C1        1.0  0.69556  0.01663  0.58651  1.0000
  C   C2        1.0  0.30444  0.98337  0.41349  1.0000
  C   C3        1.0  0.67641  0.90116  0.48378  1.0000
  C   C4        1.0  0.32359  0.09884  0.51622  1.0000
  C   C5        1.0  0.78926  0.84793  0.47527  1.0000
  C   C6        1.0  0.21074  0.15207  0.52473  1.0000
  C   C7        1.0  0.92267  0.91219  0.56707  1.0000
  C   C8        1.0  0.07733  0.08780  0.43293  1.0000
  C   C9        1.0  0.93443  0.02844  0.66771  1.0000
  C   C10       1.0  0.06558  0.97156  0.33229  1.0000
  C   C11       1.0  0.17119  0.90130  0.63401  1.0000
  C   C12       1.0  0.82881  0.09870  0.36600  1.0000
  C   C13       1.0  0.25792  0.81066  0.60262  1.0000
  C   C14       1.0  0.74209  0.18934  0.39739  1.0000
  C   C15       1.0  0.40650  0.85658  0.66853  1.0000
  C   C16       1.0  0.59350  0.14342  0.33147  1.0000
  C   C17       1.0  0.49095  0.77396  0.64255  1.0000
  C   C18       1.0  0.50905  0.22604  0.35745  1.0000
  C   C19       1.0  0.42711  0.64699  0.54918  1.0000
  C   C20       1.0  0.57289  0.35301  0.45082  1.0000
  C   C21       1.0  0.27844  0.60140  0.48425  1.0000
  C   C22       1.0  0.72156  0.39859  0.51575  1.0000
  C   C23       1.0  0.19285  0.68249  0.51243  1.0000
  C   C24       1.0  0.80715  0.31751  0.48757  1.0000
  C   C25       1.0  0.21273  0.46570  0.38543  1.0000
  C   C26       1.0  0.78727  0.53430  0.61457  1.0000
  C   C27       1.0  0.01835  0.32799  0.19150  1.0000
  C   C28       1.0  0.98165  0.67200  0.80850  1.0000
  C   C29       1.0  0.97896  0.21043  0.19275  1.0000
  C   C30       1.0  0.02104  0.78956  0.80725  1.0000
  C   C31       1.0  0.83912  0.11039  0.98363  1.0000
  C   C32       1.0  0.16087  0.88961  0.01637  1.0000
  C   C33       1.0  0.88694  0.10142  0.08804  1.0000
  C   C34       1.0  0.11306  0.89858  0.91196  1.0000
  C   C35       1.0  0.96748  0.32988  0.08314  1.0000
  C   C36       1.0  0.03252  0.67012  0.91686  1.0000
  C   C37       1.0  0.13236  0.37707  0.79222  1.0000
  C   C38       1.0  0.86764  0.62293  0.20778  1.0000
  C   C39       1.0  0.29992  0.43870  0.82284  1.0000
  C   C40       1.0  0.70008  0.56130  0.17716  1.0000
  C   C41       1.0  0.36395  0.56697  0.85173  1.0000
  C   C42       1.0  0.63605  0.43303  0.14827  1.0000
  C   C43       1.0  0.51987  0.62115  0.88506  1.0000
  C   C44       1.0  0.48013  0.37885  0.11494  1.0000
  C   C45       1.0  0.61333  0.55005  0.88181  1.0000
  C   C46       1.0  0.38667  0.44995  0.11819  1.0000
  C   C47       1.0  0.54801  0.42000  0.84585  1.0000
  C   C48       1.0  0.45199  0.58000  0.15415  1.0000
  C   C49       1.0  0.64291  0.33682  0.83001  1.0000
  C   C50       1.0  0.35710  0.66318  0.16999  1.0000
  C   C51       1.0  0.39187  0.36622  0.82209  1.0000
  C   C52       1.0  0.60813  0.63377  0.17791  1.0000
  N   N1        1.0  0.82184  0.07714  0.67576  1.0000
  N   N2        1.0  0.17816  0.92286  0.32424  1.0000
  N   N3        1.0  0.03455  0.85656  0.55274  1.0000
  N   N4        1.0  0.96545  0.14344  0.44726  1.0000
  N   N5        1.0  0.10340  0.44535  0.29302  1.0000
  N   N6        1.0  0.89660  0.55465  0.70698  1.0000
  N   N7        1.0  0.88079  0.22328  0.98187  1.0000
  N   N8        1.0  0.11921  0.77672  0.01813  1.0000
  N   N9        1.0  0.58924  0.75904  0.92667  1.0000
  N   N10       1.0  0.41075  0.24096  0.07333  1.0000
  O   O1        1.0  0.08352  0.32241  0.85569  1.0000
  O   O2        1.0  0.91649  0.67759  0.14431  1.0000
  O   O3        1.0  0.05320  0.38077  0.70725  1.0000
  O   O4        1.0  0.94680  0.61922  0.29275  1.0000
  O   O5        1.0  0.58263  0.21742  0.78261  1.0000
  O   O6        1.0  0.41737  0.78259  0.21739  1.0000
  O   O7        1.0  0.78725  0.39274  0.86366  1.0000
  O   O8        1.0  0.21276  0.60726  0.13634  1.0000
  O   O9        1.0  0.72839  0.80189  0.94784  1.0000
  O   O10       1.0  0.27161  0.19811  0.05216  1.0000
  O   O11       1.0  0.50586  0.82368  0.93812  1.0000
  O   O12       1.0  0.49413  0.17632  0.06188  1.0000
  O   O13       1.0  0.21685  0.00712  0.72660  1.0000
  O   O14       1.0  0.78315  0.99288  0.27340  1.0000
  O   O15       1.0  0.63454  0.82042  0.70812  1.0000
  O   O16       1.0  0.36546  0.17958  0.29188  1.0000
  O   O17       1.0  0.25670  0.37946  0.38821  1.0000
  O   O18       1.0  0.74330  0.62054  0.61180  1.0000
