data_image0
_chemical_formula_structural       Dy4H40C24O26
_chemical_formula_sum              "Dy4 H40 C24 O26"
_cell_length_a       8.33657
_cell_length_b       11.3694
_cell_length_c       11.3694
_cell_angle_alpha    92.0092
_cell_angle_beta     107.608
_cell_angle_gamma    107.608

_space_group_name_H-M_alt    "P 1"
_space_group_IT_number       1

loop_
  _space_group_symop_operation_xyz
  'x, y, z'

loop_
  _atom_site_type_symbol
  _atom_site_label
  _atom_site_symmetry_multiplicity
  _atom_site_fract_x
  _atom_site_fract_y
  _atom_site_fract_z
  _atom_site_occupancy
  Dy  Dy1       1.0  0.93207  0.84581  0.56060  1.0000
  Dy  Dy2       1.0  0.43207  0.56060  0.84581  1.0000
  Dy  Dy3       1.0  0.69567  0.71315  0.19686  1.0000
  Dy  Dy4       1.0  0.19567  0.19685  0.71315  1.0000
  H   H1        1.0  0.00430  0.43507  0.38008  1.0000
  H   H2        1.0  0.50430  0.38009  0.43507  1.0000
  H   H3        1.0  0.91285  0.47325  0.49333  1.0000
  H   H4        1.0  0.41284  0.49333  0.47325  1.0000
  H   H5        1.0  0.12528  0.56798  0.49824  1.0000
  H   H6        1.0  0.62528  0.49824  0.56798  1.0000
  H   H7        1.0  0.29255  0.12134  0.36822  1.0000
  H   H8        1.0  0.79256  0.36822  0.12134  1.0000
  H   H9        1.0  0.13349  0.11047  0.21745  1.0000
  H   H10       1.0  0.63350  0.21745  0.11048  1.0000
  H   H11       1.0  0.27625  0.02060  0.23553  1.0000
  H   H12       1.0  0.77625  0.23553  0.02060  1.0000
  H   H13       1.0  0.29509  0.65521  0.33787  1.0000
  H   H14       1.0  0.79509  0.33787  0.65521  1.0000
  H   H15       1.0  0.33634  0.79833  0.27508  1.0000
  H   H16       1.0  0.83634  0.27508  0.79833  1.0000
  H   H17       1.0  0.30124  0.79027  0.42439  1.0000
  H   H18       1.0  0.80125  0.42439  0.79027  1.0000
  H   H19       1.0  0.57671  0.93308  0.68419  1.0000
  H   H20       1.0  0.07671  0.68420  0.93308  1.0000
  H   H21       1.0  0.56580  0.06729  0.76827  1.0000
  H   H22       1.0  0.06579  0.76827  0.06729  1.0000
  H   H23       1.0  0.51742  0.05518  0.60544  1.0000
  H   H24       1.0  0.01742  0.60544  0.05518  1.0000
  H   H25       1.0  0.73108  0.04802  0.31593  1.0000
  H   H26       1.0  0.23108  0.31593  0.04802  1.0000
  H   H27       1.0  0.72705  0.20403  0.34499  1.0000
  H   H28       1.0  0.22705  0.34499  0.20403  1.0000
  H   H29       1.0  0.60047  0.07615  0.40242  1.0000
  H   H30       1.0  0.10047  0.40242  0.07615  1.0000
  H   H31       1.0  0.72909  0.89268  0.90412  1.0000
  H   H32       1.0  0.22909  0.90412  0.89267  1.0000
  H   H33       1.0  0.83222  0.05610  0.96360  1.0000
  H   H34       1.0  0.33223  0.96361  0.05609  1.0000
  H   H35       1.0  0.94333  0.94862  0.01770  1.0000
  H   H36       1.0  0.44333  0.01770  0.94862  1.0000
  H   H37       1.0  0.99549  0.62471  0.69351  1.0000
  H   H38       1.0  0.49549  0.69351  0.62472  1.0000
  H   H39       1.0  0.84233  0.65934  0.72345  1.0000
  H   H40       1.0  0.34233  0.72345  0.65934  1.0000
  C   C1        1.0  0.90797  0.59102  0.35193  1.0000
  C   C2        1.0  0.40797  0.35193  0.59102  1.0000
  C   C3        1.0  0.99313  0.51175  0.43438  1.0000
  C   C4        1.0  0.49313  0.43438  0.51175  1.0000
  C   C5        1.0  0.06453  0.95287  0.31193  1.0000
  C   C6        1.0  0.56453  0.31193  0.95287  1.0000
  C   C7        1.0  0.20209  0.05857  0.28306  1.0000
  C   C8        1.0  0.70209  0.28306  0.05858  1.0000
  C   C9        1.0  0.55556  0.78261  0.42442  1.0000
  C   C10       1.0  0.05556  0.42442  0.78261  1.0000
  C   C11       1.0  0.35990  0.75670  0.36140  1.0000
  C   C12       1.0  0.85990  0.36140  0.75670  1.0000
  C   C13       1.0  0.31256  0.93883  0.66029  1.0000
  C   C14       1.0  0.81255  0.66029  0.93883  1.0000
  C   C15       1.0  0.50674  0.00053  0.68243  1.0000
  C   C16       1.0  0.00674  0.68243  0.00053  1.0000
  C   C17       1.0  0.87984  0.14066  0.50243  1.0000
  C   C18       1.0  0.37984  0.50243  0.14066  1.0000
  C   C19       1.0  0.72615  0.11706  0.38362  1.0000
  C   C20       1.0  0.22615  0.38362  0.11706  1.0000
  C   C21       1.0  0.93953  0.99033  0.83436  1.0000
  C   C22       1.0  0.43953  0.83436  0.99033  1.0000
  C   C23       1.0  0.85417  0.97082  0.93487  1.0000
  C   C24       1.0  0.35417  0.93487  0.97082  1.0000
  O   O1        1.0  0.85837  0.56743  0.23385  1.0000
  O   O2        1.0  0.35837  0.23385  0.56743  1.0000
  O   O3        1.0  0.87967  0.68403  0.40080  1.0000
  O   O4        1.0  0.37967  0.40080  0.68403  1.0000
  O   O5        1.0  0.94973  0.87264  0.21989  1.0000
  O   O6        1.0  0.44974  0.21989  0.87264  1.0000
  O   O7        1.0  0.06880  0.94944  0.42374  1.0000
  O   O8        1.0  0.56879  0.42374  0.94944  1.0000
  O   O9        1.0  0.66607  0.82299  0.36524  1.0000
  O   O10       1.0  0.16607  0.36524  0.82299  1.0000
  O   O11       1.0  0.61697  0.76623  0.53742  1.0000
  O   O12       1.0  0.11697  0.53742  0.76623  1.0000
  O   O13       1.0  0.23222  0.82415  0.61641  1.0000
  O   O14       1.0  0.73221  0.61641  0.82415  1.0000
  O   O15       1.0  0.21920  0.00361  0.68077  1.0000
  O   O16       1.0  0.71919  0.68077  0.00362  1.0000
  O   O17       1.0  0.90449  0.04941  0.56126  1.0000
  O   O18       1.0  0.40449  0.56126  0.04941  1.0000
  O   O19       1.0  0.98561  0.25086  0.54671  1.0000
  O   O20       1.0  0.48561  0.54671  0.25086  1.0000
  O   O21       1.0  0.90657  0.89727  0.75515  1.0000
  O   O22       1.0  0.40657  0.75515  0.89727  1.0000
  O   O23       1.0  0.04277  0.10025  0.83665  1.0000
  O   O24       1.0  0.54277  0.83665  0.10025  1.0000
  O   O25       1.0  0.90834  0.66937  0.66241  1.0000
  O   O26       1.0  0.40834  0.66241  0.66937  1.0000
