data_image0
_chemical_formula_structural       Zn4P4H32C16N12O16
_chemical_formula_sum              "Zn4 P4 H32 C16 N12 O16"
_cell_length_a       8.81506
_cell_length_b       9.34461
_cell_length_c       10.0461
_cell_angle_alpha    87.6658
_cell_angle_beta     85.6957
_cell_angle_gamma    88.258

_space_group_name_H-M_alt    "P 1"
_space_group_IT_number       1

loop_
  _space_group_symop_operation_xyz
  'x, y, z'

loop_
  _atom_site_type_symbol
  _atom_site_label
  _atom_site_symmetry_multiplicity
  _atom_site_fract_x
  _atom_site_fract_y
  _atom_site_fract_z
  _atom_site_occupancy
  Zn  Zn1       1.0  0.12234  0.20079  0.04295  1.0000
  Zn  Zn2       1.0  0.87766  0.79920  0.95706  1.0000
  Zn  Zn3       1.0  0.18094  0.66784  0.43345  1.0000
  Zn  Zn4       1.0  0.81906  0.33216  0.56655  1.0000
  P   P1        1.0  0.00762  0.42009  0.29608  1.0000
  P   P2        1.0  0.99237  0.57990  0.70392  1.0000
  P   P3        1.0  0.97841  0.10745  0.78681  1.0000
  P   P4        1.0  0.02159  0.89255  0.21320  1.0000
  H   H1        1.0  0.90683  0.53490  0.26580  1.0000
  H   H2        1.0  0.09316  0.46510  0.73420  1.0000
  H   H3        1.0  0.11744  0.05344  0.72735  1.0000
  H   H4        1.0  0.88256  0.94655  0.27265  1.0000
  H   H5        1.0  0.67460  0.09726  0.93778  1.0000
  H   H6        1.0  0.32540  0.90274  0.06222  1.0000
  H   H7        1.0  0.64557  0.23393  0.81452  1.0000
  H   H8        1.0  0.35444  0.76607  0.18547  1.0000
  H   H9        1.0  0.81589  0.35521  0.98765  1.0000
  H   H10       1.0  0.18411  0.64479  0.01235  1.0000
  H   H11       1.0  0.75006  0.31504  0.15691  1.0000
  H   H12       1.0  0.24994  0.68496  0.84309  1.0000
  H   H13       1.0  0.69300  0.47923  0.07724  1.0000
  H   H14       1.0  0.30700  0.52078  0.92276  1.0000
  H   H15       1.0  0.45971  0.45782  0.21046  1.0000
  H   H16       1.0  0.54029  0.54218  0.78954  1.0000
  H   H17       1.0  0.27791  0.39667  0.18246  1.0000
  H   H18       1.0  0.72210  0.60334  0.81754  1.0000
  H   H19       1.0  0.74903  0.65787  0.48831  1.0000
  H   H20       1.0  0.25097  0.34212  0.51170  1.0000
  H   H21       1.0  0.72529  0.80020  0.36525  1.0000
  H   H22       1.0  0.27471  0.19979  0.63476  1.0000
  H   H23       1.0  0.79039  0.91457  0.59764  1.0000
  H   H24       1.0  0.20960  0.08543  0.40236  1.0000
  H   H25       1.0  0.66455  0.86791  0.73793  1.0000
  H   H26       1.0  0.33545  0.13210  0.26207  1.0000
  H   H27       1.0  0.62351  0.02050  0.63432  1.0000
  H   H28       1.0  0.37649  0.97950  0.36568  1.0000
  H   H29       1.0  0.37243  0.92541  0.71407  1.0000
  H   H30       1.0  0.62756  0.07460  0.28592  1.0000
  H   H31       1.0  0.23235  0.81755  0.65109  1.0000
  H   H32       1.0  0.76764  0.18246  0.34891  1.0000
  C   C1        1.0  0.43592  0.14705  0.90874  1.0000
  C   C2        1.0  0.56408  0.85295  0.09126  1.0000
  C   C3        1.0  0.60048  0.18944  0.91188  1.0000
  C   C4        1.0  0.39952  0.81056  0.08812  1.0000
  C   C5        1.0  0.71898  0.36537  0.06175  1.0000
  C   C6        1.0  0.28102  0.63464  0.93825  1.0000
  C   C7        1.0  0.44467  0.30843  0.06328  1.0000
  C   C8        1.0  0.55533  0.69158  0.93671  1.0000
  C   C9        1.0  0.53459  0.66017  0.39409  1.0000
  C   C10       1.0  0.46541  0.33983  0.60591  1.0000
  C   C11       1.0  0.66694  0.73503  0.44591  1.0000
  C   C12       1.0  0.33306  0.26496  0.55410  1.0000
  C   C13       1.0  0.67079  0.91075  0.63461  1.0000
  C   C14       1.0  0.32921  0.08925  0.36540  1.0000
  C   C15       1.0  0.44243  0.79595  0.55853  1.0000
  C   C16       1.0  0.55756  0.20404  0.44147  1.0000
  N   N1        1.0  0.34929  0.22257  0.00164  1.0000
  N   N2        1.0  0.65072  0.77743  0.99836  1.0000
  N   N3        1.0  0.58974  0.29602  0.01359  1.0000
  N   N4        1.0  0.41027  0.70397  0.98642  1.0000
  N   N5        1.0  0.39359  0.39123  0.16115  1.0000
  N   N6        1.0  0.60641  0.60877  0.83885  1.0000
  N   N7        1.0  0.40262  0.70211  0.46527  1.0000
  N   N8        1.0  0.59738  0.29789  0.53473  1.0000
  N   N9        1.0  0.59157  0.82207  0.54869  1.0000
  N   N10       1.0  0.40843  0.17793  0.45131  1.0000
  N   N11       1.0  0.34142  0.85496  0.64567  1.0000
  N   N12       1.0  0.65857  0.14504  0.35433  1.0000
  O   O1        1.0  0.13667  0.48083  0.37107  1.0000
  O   O2        1.0  0.86333  0.51917  0.62893  1.0000
  O   O3        1.0  0.07180  0.36193  0.16232  1.0000
  O   O4        1.0  0.92820  0.63808  0.83768  1.0000
  O   O5        1.0  0.91747  0.30681  0.38279  1.0000
  O   O6        1.0  0.08253  0.69318  0.61721  1.0000
  O   O7        1.0  0.01596  0.22535  0.88125  1.0000
  O   O8        1.0  0.98405  0.77465  0.11876  1.0000
  O   O9        1.0  0.88809  0.16875  0.67229  1.0000
  O   O10       1.0  0.11191  0.83125  0.32771  1.0000
  O   O11       1.0  0.89805  0.98098  0.85906  1.0000
  O   O12       1.0  0.10195  0.01902  0.14095  1.0000
  O   O13       1.0  0.38708  0.05734  0.83592  1.0000
  O   O14       1.0  0.61292  0.94267  0.16407  1.0000
  O   O15       1.0  0.54717  0.57726  0.30055  1.0000
  O   O16       1.0  0.45284  0.42274  0.69944  1.0000
