data_image0
_chemical_formula_structural       Zn2H34C47N6O9
_chemical_formula_sum              "Zn2 H34 C47 N6 O9"
_cell_length_a       9.70473
_cell_length_b       9.70476
_cell_length_c       13.0539
_cell_angle_alpha    102.034
_cell_angle_beta     102.034
_cell_angle_gamma    109.825

_space_group_name_H-M_alt    "P 1"
_space_group_IT_number       1

loop_
  _space_group_symop_operation_xyz
  'x, y, z'

loop_
  _atom_site_type_symbol
  _atom_site_label
  _atom_site_symmetry_multiplicity
  _atom_site_fract_x
  _atom_site_fract_y
  _atom_site_fract_z
  _atom_site_occupancy
  Zn  Zn1       1.0  0.22359  0.35390  0.34162  1.0000
  Zn  Zn2       1.0  0.64610  0.77641  0.65838  1.0000
  H   H1        1.0  0.09385  0.27659  0.08630  1.0000
  H   H2        1.0  0.72340  0.90614  0.91371  1.0000
  H   H3        1.0  0.05601  0.16747  0.88760  1.0000
  H   H4        1.0  0.83253  0.94399  0.11240  1.0000
  H   H5        1.0  0.18691  0.00074  0.82512  1.0000
  H   H6        1.0  0.99926  0.81309  0.17488  1.0000
  H   H7        1.0  0.35688  0.93675  0.95657  1.0000
  H   H8        1.0  0.06325  0.64312  0.04343  1.0000
  H   H9        1.0  0.49667  0.06930  0.40527  1.0000
  H   H10       1.0  0.93069  0.50333  0.59473  1.0000
  H   H11       1.0  0.39984  0.18621  0.44775  1.0000
  H   H12       1.0  0.81379  0.60016  0.55225  1.0000
  H   H13       1.0  0.71047  0.29662  0.40315  1.0000
  H   H14       1.0  0.70337  0.28954  0.59685  1.0000
  H   H15       1.0  0.59866  0.40718  0.40771  1.0000
  H   H16       1.0  0.59281  0.40134  0.59228  1.0000
  H   H17       1.0  0.46083  0.88437  0.11513  1.0000
  H   H18       1.0  0.11562  0.53917  0.88486  1.0000
  H   H19       1.0  0.47211  0.90171  0.25342  1.0000
  H   H20       1.0  0.09829  0.52788  0.74658  1.0000
  H   H21       1.0  0.66435  0.21429  0.12934  1.0000
  H   H22       1.0  0.78571  0.33565  0.87066  1.0000
  H   H23       1.0  0.94753  0.36155  0.19644  1.0000
  H   H24       1.0  0.63845  0.05247  0.80356  1.0000
  H   H25       1.0  0.00898  0.09491  0.39709  1.0000
  H   H26       1.0  0.90509  0.99102  0.60291  1.0000
  H   H27       1.0  0.72472  0.94011  0.34354  1.0000
  H   H28       1.0  0.05989  0.27527  0.65646  1.0000
  H   H29       1.0  0.34884  0.48337  0.04629  1.0000
  H   H30       1.0  0.51662  0.65116  0.95371  1.0000
  H   H31       1.0  0.81227  0.53709  0.19136  1.0000
  H   H32       1.0  0.46291  0.18773  0.80864  1.0000
  H   H33       1.0  0.80230  0.66308  0.37503  1.0000
  H   H34       1.0  0.33692  0.19770  0.62497  1.0000
  C   C1        1.0  0.25033  0.16956  0.13496  1.0000
  C   C2        1.0  0.83044  0.74967  0.86504  1.0000
  C   C3        1.0  0.15224  0.20423  0.05949  1.0000
  C   C4        1.0  0.79577  0.84776  0.94051  1.0000
  C   C5        1.0  0.13189  0.14278  0.94836  1.0000
  C   C6        1.0  0.85722  0.86811  0.05164  1.0000
  C   C7        1.0  0.20613  0.04860  0.91273  1.0000
  C   C8        1.0  0.95140  0.79387  0.08727  1.0000
  C   C9        1.0  0.30369  0.01252  0.98700  1.0000
  C   C10       1.0  0.98748  0.69631  0.01300  1.0000
  C   C11       1.0  0.32358  0.07443  0.09790  1.0000
  C   C12       1.0  0.92557  0.67643  0.90210  1.0000
  C   C13       1.0  0.38883  0.14543  0.28133  1.0000
  C   C14       1.0  0.85457  0.61118  0.71866  1.0000
  C   C15       1.0  0.47325  0.17021  0.39678  1.0000
  C   C16       1.0  0.82979  0.52676  0.60322  1.0000
  C   C17       1.0  0.62271  0.31750  0.43764  1.0000
  C   C18       1.0  0.68250  0.37730  0.56235  1.0000
  C   C19       1.0  0.49983  0.96848  0.19689  1.0000
  C   C20       1.0  0.03152  0.50016  0.80311  1.0000
  C   C21       1.0  0.67073  0.06243  0.23094  1.0000
  C   C22       1.0  0.93757  0.32927  0.76906  1.0000
  C   C23       1.0  0.73451  0.18238  0.18905  1.0000
  C   C24       1.0  0.81762  0.26549  0.81095  1.0000
  C   C25       1.0  0.89289  0.26495  0.22497  1.0000
  C   C26       1.0  0.73505  0.10710  0.77503  1.0000
  C   C27       1.0  0.92766  0.11680  0.33797  1.0000
  C   C28       1.0  0.88320  0.07234  0.66203  1.0000
  C   C29       1.0  0.77052  0.03022  0.30723  1.0000
  C   C30       1.0  0.96978  0.22948  0.69277  1.0000
  C   C31       1.0  0.57032  0.72697  0.42566  1.0000
  C   C32       1.0  0.27303  0.42968  0.57434  1.0000
  C   C33       1.0  0.56860  0.64022  0.31464  1.0000
  C   C34       1.0  0.35978  0.43141  0.68536  1.0000
  C   C35       1.0  0.28938  0.59682  0.22846  1.0000
  C   C36       1.0  0.40317  0.71062  0.77154  1.0000
  C   C37       1.0  0.43993  0.58816  0.22142  1.0000
  C   C38       1.0  0.41184  0.56008  0.77858  1.0000
  C   C39       1.0  0.44908  0.52338  0.11801  1.0000
  C   C40       1.0  0.47662  0.55092  0.88199  1.0000
  C   C41       1.0  0.58126  0.50164  0.10655  1.0000
  C   C42       1.0  0.49836  0.41874  0.89345  1.0000
  C   C43       1.0  0.70861  0.55178  0.20041  1.0000
  C   C44       1.0  0.44822  0.29140  0.79959  1.0000
  C   C45       1.0  0.70252  0.62188  0.30261  1.0000
  C   C46       1.0  0.37812  0.29748  0.69739  1.0000
  C   C47       1.0  0.58590  0.41410  0.00000  1.0000
  N   N1        1.0  0.29417  0.21262  0.24949  1.0000
  N   N2        1.0  0.78737  0.70583  0.75050  1.0000
  N   N3        1.0  0.40887  0.06091  0.19231  1.0000
  N   N4        1.0  0.93908  0.59113  0.80769  1.0000
  N   N5        1.0  0.98848  0.23260  0.29778  1.0000
  N   N6        1.0  0.76740  0.01152  0.70222  1.0000
  O   O1        1.0  0.22090  0.52674  0.28964  1.0000
  O   O2        1.0  0.47326  0.77910  0.71036  1.0000
  O   O3        1.0  0.23632  0.66734  0.17310  1.0000
  O   O4        1.0  0.33266  0.76368  0.82690  1.0000
  O   O5        1.0  0.53156  0.83758  0.43392  1.0000
  O   O6        1.0  0.16242  0.46844  0.56608  1.0000
  O   O7        1.0  0.62205  0.67958  0.50567  1.0000
  O   O8        1.0  0.32042  0.37795  0.49433  1.0000
  O   O9        1.0  0.66418  0.33582  0.00000  1.0000
