data_image0
_chemical_formula_structural       In4P4H24C24N4O20
_chemical_formula_sum              "In4 P4 H24 C24 N4 O20"
_cell_length_a       9.14939
_cell_length_b       9.06332
_cell_length_c       11.9487
_cell_angle_alpha    90.0002
_cell_angle_beta     98.0337
_cell_angle_gamma    90.0007

_space_group_name_H-M_alt    "P 1"
_space_group_IT_number       1

loop_
  _space_group_symop_operation_xyz
  'x, y, z'

loop_
  _atom_site_type_symbol
  _atom_site_label
  _atom_site_symmetry_multiplicity
  _atom_site_fract_x
  _atom_site_fract_y
  _atom_site_fract_z
  _atom_site_occupancy
  In  In1       1.0  0.11411  0.22658  0.60673  1.0000
  In  In2       1.0  0.88588  0.72659  0.89328  1.0000
  In  In3       1.0  0.88587  0.77340  0.39328  1.0000
  In  In4       1.0  0.11408  0.27340  0.10671  1.0000
  P   P1        1.0  0.04389  0.40803  0.84179  1.0000
  P   P2        1.0  0.95611  0.90802  0.65820  1.0000
  P   P3        1.0  0.95611  0.59198  0.15821  1.0000
  P   P4        1.0  0.04388  0.09198  0.34179  1.0000
  H   H1        1.0  0.91819  0.31664  0.83772  1.0000
  H   H2        1.0  0.08181  0.81665  0.66227  1.0000
  H   H3        1.0  0.08181  0.68337  0.16228  1.0000
  H   H4        1.0  0.91819  0.18335  0.33773  1.0000
  H   H5        1.0  0.41172  0.19831  0.50439  1.0000
  H   H6        1.0  0.58830  0.69831  0.99561  1.0000
  H   H7        1.0  0.58828  0.80170  0.49560  1.0000
  H   H8        1.0  0.41172  0.30170  0.00440  1.0000
  H   H9        1.0  0.30626  0.12195  0.82581  1.0000
  H   H10       1.0  0.69375  0.62194  0.67419  1.0000
  H   H11       1.0  0.69373  0.87804  0.17419  1.0000
  H   H12       1.0  0.30626  0.37805  0.32581  1.0000
  H   H13       1.0  0.57313  0.07622  0.90391  1.0000
  H   H14       1.0  0.42687  0.57621  0.59610  1.0000
  H   H15       1.0  0.42686  0.92378  0.09609  1.0000
  H   H16       1.0  0.57314  0.42378  0.40391  1.0000
  H   H17       1.0  0.76416  0.10400  0.77385  1.0000
  H   H18       1.0  0.23585  0.60401  0.72617  1.0000
  H   H19       1.0  0.23584  0.89600  0.22616  1.0000
  H   H20       1.0  0.76416  0.39599  0.27384  1.0000
  H   H21       1.0  0.68389  0.16587  0.57099  1.0000
  H   H22       1.0  0.31613  0.66587  0.92901  1.0000
  H   H23       1.0  0.31611  0.83414  0.42901  1.0000
  H   H24       1.0  0.68389  0.33414  0.07099  1.0000
  C   C1        1.0  0.91995  0.47634  0.50858  1.0000
  C   C2        1.0  0.08005  0.97635  0.99142  1.0000
  C   C3        1.0  0.08006  0.52365  0.49141  1.0000
  C   C4        1.0  0.91994  0.02365  0.00859  1.0000
  C   C5        1.0  0.45377  0.17410  0.59240  1.0000
  C   C6        1.0  0.54625  0.67410  0.90760  1.0000
  C   C7        1.0  0.54622  0.82589  0.40760  1.0000
  C   C8        1.0  0.45377  0.32590  0.09240  1.0000
  C   C9        1.0  0.39395  0.12922  0.77283  1.0000
  C   C10       1.0  0.60605  0.62921  0.72716  1.0000
  C   C11       1.0  0.60604  0.87079  0.22717  1.0000
  C   C12       1.0  0.39396  0.37079  0.27283  1.0000
  C   C13       1.0  0.54145  0.10593  0.81547  1.0000
  C   C14       1.0  0.45856  0.60593  0.68453  1.0000
  C   C15       1.0  0.45854  0.89407  0.18453  1.0000
  C   C16       1.0  0.54145  0.39408  0.31547  1.0000
  C   C17       1.0  0.64783  0.12106  0.74315  1.0000
  C   C18       1.0  0.35218  0.62105  0.75685  1.0000
  C   C19       1.0  0.35217  0.87895  0.25685  1.0000
  C   C20       1.0  0.64783  0.37894  0.24315  1.0000
  C   C21       1.0  0.60337  0.15466  0.62949  1.0000
  C   C22       1.0  0.39665  0.65466  0.87052  1.0000
  C   C23       1.0  0.39662  0.84534  0.37052  1.0000
  C   C24       1.0  0.60338  0.34534  0.12949  1.0000
  N   N1        1.0  0.35181  0.16362  0.66324  1.0000
  N   N2        1.0  0.64820  0.66361  0.83676  1.0000
  N   N3        1.0  0.64819  0.83638  0.33677  1.0000
  N   N4        1.0  0.35181  0.33639  0.16323  1.0000
  O   O1        1.0  0.14312  0.34836  0.75945  1.0000
  O   O2        1.0  0.85688  0.84836  0.74054  1.0000
  O   O3        1.0  0.85687  0.65163  0.24054  1.0000
  O   O4        1.0  0.14312  0.15164  0.25945  1.0000
  O   O5        1.0  0.98958  0.56364  0.80479  1.0000
  O   O6        1.0  0.01042  0.06364  0.69521  1.0000
  O   O7        1.0  0.01043  0.43637  0.19522  1.0000
  O   O8        1.0  0.98957  0.93637  0.30478  1.0000
  O   O9        1.0  0.12616  0.40577  0.96303  1.0000
  O   O10       1.0  0.87385  0.90576  0.53697  1.0000
  O   O11       1.0  0.87386  0.59422  0.03697  1.0000
  O   O12       1.0  0.12614  0.09423  0.46303  1.0000
  O   O13       1.0  0.90294  0.34788  0.54687  1.0000
  O   O14       1.0  0.09706  0.84789  0.95312  1.0000
  O   O15       1.0  0.09706  0.65211  0.45312  1.0000
  O   O16       1.0  0.90292  0.15212  0.04688  1.0000
  O   O17       1.0  0.81674  0.56861  0.48260  1.0000
  O   O18       1.0  0.18326  0.06863  0.01740  1.0000
  O   O19       1.0  0.18326  0.43137  0.51739  1.0000
  O   O20       1.0  0.81673  0.93138  0.98261  1.0000
