data_image0
_chemical_formula_structural       In4P4H24C24N4O20
_chemical_formula_sum              "In4 P4 H24 C24 N4 O20"
_cell_length_a       6.69799
_cell_length_b       10.4606
_cell_length_c       13.82
_cell_angle_alpha    106.661
_cell_angle_beta     89.9996
_cell_angle_gamma    90.0008

_space_group_name_H-M_alt    "P 1"
_space_group_IT_number       1

loop_
  _space_group_symop_operation_xyz
  'x, y, z'

loop_
  _atom_site_type_symbol
  _atom_site_label
  _atom_site_symmetry_multiplicity
  _atom_site_fract_x
  _atom_site_fract_y
  _atom_site_fract_z
  _atom_site_occupancy
  In  In1       1.0  0.55092  0.92403  0.28260  1.0000
  In  In2       1.0  0.05093  0.57597  0.21740  1.0000
  In  In3       1.0  0.44906  0.07598  0.71740  1.0000
  In  In4       1.0  0.94907  0.42402  0.78260  1.0000
  P   P1        1.0  0.06416  0.90405  0.33061  1.0000
  P   P2        1.0  0.56417  0.59595  0.16940  1.0000
  P   P3        1.0  0.93583  0.09595  0.66939  1.0000
  P   P4        1.0  0.43583  0.40405  0.83061  1.0000
  H   H1        1.0  0.09621  0.97579  0.43292  1.0000
  H   H2        1.0  0.59620  0.52421  0.06707  1.0000
  H   H3        1.0  0.90380  0.02420  0.56707  1.0000
  H   H4        1.0  0.40380  0.47580  0.93293  1.0000
  H   H5        1.0  0.80511  0.35170  0.27202  1.0000
  H   H6        1.0  0.30512  0.14830  0.22799  1.0000
  H   H7        1.0  0.19489  0.64830  0.72799  1.0000
  H   H8        1.0  0.69488  0.85170  0.77201  1.0000
  H   H9        1.0  0.34460  0.53191  0.37601  1.0000
  H   H10       1.0  0.84461  0.96810  0.12399  1.0000
  H   H11       1.0  0.65540  0.46810  0.62399  1.0000
  H   H12       1.0  0.15539  0.03191  0.87602  1.0000
  H   H13       1.0  0.81678  0.21109  0.39240  1.0000
  H   H14       1.0  0.31679  0.28891  0.10760  1.0000
  H   H15       1.0  0.18323  0.78891  0.60760  1.0000
  H   H16       1.0  0.68322  0.71109  0.89239  1.0000
  H   H17       1.0  0.10654  0.24109  0.51287  1.0000
  H   H18       1.0  0.60654  0.25891  0.98713  1.0000
  H   H19       1.0  0.89347  0.75892  0.48713  1.0000
  H   H20       1.0  0.39346  0.74109  0.01287  1.0000
  H   H21       1.0  0.37739  0.40007  0.50305  1.0000
  H   H22       1.0  0.87739  0.09993  0.99694  1.0000
  H   H23       1.0  0.62261  0.59994  0.49695  1.0000
  H   H24       1.0  0.12261  0.90006  0.00305  1.0000
  C   C1        1.0  0.92928  0.35720  0.32403  1.0000
  C   C2        1.0  0.42928  0.14279  0.17598  1.0000
  C   C3        1.0  0.07073  0.64280  0.67598  1.0000
  C   C4        1.0  0.57072  0.85721  0.82402  1.0000
  C   C5        1.0  0.23232  0.45987  0.38359  1.0000
  C   C6        1.0  0.73232  0.04013  0.11641  1.0000
  C   C7        1.0  0.76769  0.54013  0.61641  1.0000
  C   C8        1.0  0.26768  0.95988  0.88359  1.0000
  C   C9        1.0  0.93674  0.28088  0.39137  1.0000
  C   C10       1.0  0.43674  0.21912  0.10863  1.0000
  C   C11       1.0  0.06327  0.71913  0.60863  1.0000
  C   C12       1.0  0.56326  0.78088  0.89136  1.0000
  C   C13       1.0  0.09879  0.29649  0.45724  1.0000
  C   C14       1.0  0.59879  0.20351  0.04276  1.0000
  C   C15       1.0  0.90122  0.70352  0.54276  1.0000
  C   C16       1.0  0.40122  0.79649  0.95724  1.0000
  C   C17       1.0  0.24905  0.38692  0.45288  1.0000
  C   C18       1.0  0.74905  0.11307  0.04711  1.0000
  C   C19       1.0  0.75096  0.61308  0.54712  1.0000
  C   C20       1.0  0.25095  0.88692  0.95289  1.0000
  C   C21       1.0  0.50126  0.92437  0.49828  1.0000
  C   C22       1.0  0.00127  0.57563  0.00172  1.0000
  C   C23       1.0  0.49873  0.07562  0.50173  1.0000
  C   C24       1.0  0.99873  0.42437  0.99827  1.0000
  N   N1        1.0  0.07451  0.44515  0.32073  1.0000
  N   N2        1.0  0.57451  0.05485  0.17927  1.0000
  N   N3        1.0  0.92550  0.55485  0.67927  1.0000
  N   N4        1.0  0.42549  0.94515  0.82073  1.0000
  O   O1        1.0  0.06502  0.75785  0.33292  1.0000
  O   O2        1.0  0.56502  0.74215  0.16708  1.0000
  O   O3        1.0  0.93498  0.24215  0.66707  1.0000
  O   O4        1.0  0.43498  0.25785  0.83293  1.0000
  O   O5        1.0  0.86559  0.95214  0.29957  1.0000
  O   O6        1.0  0.36560  0.54786  0.20044  1.0000
  O   O7        1.0  0.13439  0.04786  0.70044  1.0000
  O   O8        1.0  0.63440  0.45214  0.79956  1.0000
  O   O9        1.0  0.23387  0.93949  0.26833  1.0000
  O   O10       1.0  0.73387  0.56051  0.23167  1.0000
  O   O11       1.0  0.76612  0.06051  0.73167  1.0000
  O   O12       1.0  0.26613  0.43949  0.76833  1.0000
  O   O13       1.0  0.52849  0.83892  0.41335  1.0000
  O   O14       1.0  0.02852  0.66107  0.08665  1.0000
  O   O15       1.0  0.47148  0.16107  0.58666  1.0000
  O   O16       1.0  0.97148  0.33892  0.91334  1.0000
  O   O17       1.0  0.47640  0.89611  0.58054  1.0000
  O   O18       1.0  0.97641  0.60389  0.91947  1.0000
  O   O19       1.0  0.52359  0.10388  0.41947  1.0000
  O   O20       1.0  0.02359  0.39611  0.08053  1.0000
