data_image0
_chemical_formula_structural       CoH26C32N10O6
_chemical_formula_sum              "Co1 H26 C32 N10 O6"
_cell_length_a       8.88179
_cell_length_b       8.06224
_cell_length_c       11.1433
_cell_angle_alpha    68.2619
_cell_angle_beta     83.2312
_cell_angle_gamma    80.2551

_space_group_name_H-M_alt    "P 1"
_space_group_IT_number       1

loop_
  _space_group_symop_operation_xyz
  'x, y, z'

loop_
  _atom_site_type_symbol
  _atom_site_label
  _atom_site_symmetry_multiplicity
  _atom_site_fract_x
  _atom_site_fract_y
  _atom_site_fract_z
  _atom_site_occupancy
  Co  Co1       1.0  0.00001  0.49999  0.49999  1.0000
  H   H1        1.0  0.19018  0.44749  0.16129  1.0000
  H   H2        1.0  0.80975  0.55255  0.83871  1.0000
  H   H3        1.0  0.95773  0.17423  0.71851  1.0000
  H   H4        1.0  0.04227  0.82576  0.28146  1.0000
  H   H5        1.0  0.06162  0.84615  0.78084  1.0000
  H   H6        1.0  0.93839  0.15385  0.21914  1.0000
  H   H7        1.0  0.23298  0.30541  0.37967  1.0000
  H   H8        1.0  0.76704  0.69458  0.62030  1.0000
  H   H9        1.0  0.72462  0.57005  0.05680  1.0000
  H   H10       1.0  0.27531  0.43002  0.94319  1.0000
  H   H11       1.0  0.26386  0.74828  0.63429  1.0000
  H   H12       1.0  0.73619  0.25172  0.36571  1.0000
  H   H13       1.0  0.45739  0.32738  0.06064  1.0000
  H   H14       1.0  0.54259  0.67261  0.93936  1.0000
  H   H15       1.0  0.63159  0.72003  0.31433  1.0000
  H   H16       1.0  0.36843  0.27996  0.68567  1.0000
  H   H17       1.0  0.24817  0.65557  0.32811  1.0000
  H   H18       1.0  0.75186  0.34441  0.67187  1.0000
  H   H19       1.0  0.86513  0.96984  0.88904  1.0000
  H   H20       1.0  0.13492  0.03016  0.11100  1.0000
  H   H21       1.0  0.76684  0.83623  0.11621  1.0000
  H   H22       1.0  0.23318  0.16378  0.88382  1.0000
  H   H23       1.0  0.56384  0.44170  0.82959  1.0000
  H   H24       1.0  0.43615  0.55828  0.17041  1.0000
  H   H25       1.0  0.31122  0.61378  0.46348  1.0000
  H   H26       1.0  0.68878  0.38623  0.53650  1.0000
  C   C1        1.0  0.89480  0.52826  0.25102  1.0000
  C   C2        1.0  0.10517  0.47175  0.74900  1.0000
  C   C3        1.0  0.95115  0.51220  0.12175  1.0000
  C   C4        1.0  0.04877  0.48784  0.87824  1.0000
  C   C5        1.0  0.84516  0.53988  0.03030  1.0000
  C   C6        1.0  0.15477  0.46017  0.96969  1.0000
  C   C7        1.0  0.10713  0.47126  0.09042  1.0000
  C   C8        1.0  0.89280  0.52879  0.90957  1.0000
  C   C9        1.0  0.04344  0.12494  0.65725  1.0000
  C   C10       1.0  0.95658  0.87505  0.34272  1.0000
  C   C11       1.0  0.10270  0.94396  0.69086  1.0000
  C   C12       1.0  0.89731  0.05604  0.30912  1.0000
  C   C13       1.0  0.21409  0.88904  0.60927  1.0000
  C   C14       1.0  0.78594  0.11095  0.39073  1.0000
  C   C15       1.0  0.26166  0.02016  0.49407  1.0000
  C   C16       1.0  0.73837  0.97984  0.50592  1.0000
  C   C17       1.0  0.19640  0.19972  0.46635  1.0000
  C   C18       1.0  0.80362  0.80027  0.53363  1.0000
  C   C19       1.0  0.37888  0.97578  0.40310  1.0000
  C   C20       1.0  0.62114  0.02421  0.59691  1.0000
  C   C21       1.0  0.52896  0.00158  0.23619  1.0000
  C   C22       1.0  0.47105  0.99841  0.76382  1.0000
  C   C23       1.0  0.60198  0.07197  0.10674  1.0000
  C   C24       1.0  0.39802  0.92803  0.89327  1.0000
  C   C25       1.0  0.54782  0.24616  0.02414  1.0000
  C   C26       1.0  0.45217  0.75383  0.97586  1.0000
  C   C27       1.0  0.60788  0.30895  0.89704  1.0000
  C   C28       1.0  0.39211  0.69104  0.10297  1.0000
  C   C29       1.0  0.77449  0.04757  0.92902  1.0000
  C   C30       1.0  0.22553  0.95243  0.07100  1.0000
  C   C31       1.0  0.72021  0.97209  0.05720  1.0000
  C   C32       1.0  0.27980  0.02791  0.94282  1.0000
  N   N1        1.0  0.08909  0.25174  0.54602  1.0000
  N   N2        1.0  0.91093  0.74826  0.45396  1.0000
  N   N3        1.0  0.41855  0.09724  0.28586  1.0000
  N   N4        1.0  0.58146  0.90275  0.71415  1.0000
  N   N5        1.0  0.45866  0.80982  0.42824  1.0000
  N   N6        1.0  0.54136  0.19016  0.57176  1.0000
  N   N7        1.0  0.55351  0.82939  0.32167  1.0000
  N   N8        1.0  0.44650  0.17060  0.67833  1.0000
  N   N9        1.0  0.71962  0.21211  0.84842  1.0000
  N   N10       1.0  0.28039  0.78788  0.15159  1.0000
  O   O1        1.0  0.00147  0.50841  0.32508  1.0000
  O   O2        1.0  0.99853  0.49156  0.67491  1.0000
  O   O3        1.0  0.75235  0.55949  0.27525  1.0000
  O   O4        1.0  0.24763  0.44051  0.72479  1.0000
  O   O5        1.0  0.24225  0.57396  0.42042  1.0000
  O   O6        1.0  0.75778  0.42601  0.57957  1.0000
