data_image0
_chemical_formula_structural       Co2H26C40N10O8
_chemical_formula_sum              "Co2 H26 C40 N10 O8"
_cell_length_a       8.6743
_cell_length_b       10.0207
_cell_length_c       11.6422
_cell_angle_alpha    89.5997
_cell_angle_beta     84.9223
_cell_angle_gamma    68.2809

_space_group_name_H-M_alt    "P 1"
_space_group_IT_number       1

loop_
  _space_group_symop_operation_xyz
  'x, y, z'

loop_
  _atom_site_type_symbol
  _atom_site_label
  _atom_site_symmetry_multiplicity
  _atom_site_fract_x
  _atom_site_fract_y
  _atom_site_fract_z
  _atom_site_occupancy
  Co  Co1       1.0  0.46158  0.83594  0.40059  1.0000
  Co  Co2       1.0  0.53843  0.16406  0.59941  1.0000
  H   H1        1.0  0.16338  0.09370  0.51801  1.0000
  H   H2        1.0  0.83662  0.90630  0.48199  1.0000
  H   H3        1.0  0.39591  0.40528  0.42063  1.0000
  H   H4        1.0  0.60409  0.59472  0.57937  1.0000
  H   H5        1.0  0.38376  0.56743  0.07714  1.0000
  H   H6        1.0  0.61624  0.43257  0.92286  1.0000
  H   H7        1.0  0.37576  0.14403  0.13489  1.0000
  H   H8        1.0  0.62424  0.85596  0.86510  1.0000
  H   H9        1.0  0.59324  0.94399  0.17556  1.0000
  H   H10       1.0  0.40676  0.05601  0.82444  1.0000
  H   H11       1.0  0.78782  0.59813  0.38529  1.0000
  H   H12       1.0  0.21218  0.40186  0.61471  1.0000
  H   H13       1.0  0.75140  0.12899  0.84122  1.0000
  H   H14       1.0  0.24860  0.87101  0.15878  1.0000
  H   H15       1.0  0.37518  0.33779  0.00074  1.0000
  H   H16       1.0  0.62482  0.66221  0.99926  1.0000
  H   H17       1.0  0.96988  0.13596  0.69590  1.0000
  H   H18       1.0  0.03012  0.86404  0.30410  1.0000
  H   H19       1.0  0.33049  0.65183  0.55114  1.0000
  H   H20       1.0  0.66951  0.34818  0.44886  1.0000
  H   H21       1.0  0.04469  0.48810  0.24742  1.0000
  H   H22       1.0  0.95531  0.51189  0.75258  1.0000
  H   H23       1.0  0.15178  0.67584  0.73537  1.0000
  H   H24       1.0  0.84822  0.32416  0.26463  1.0000
  H   H25       1.0  0.07073  0.61865  0.06520  1.0000
  H   H26       1.0  0.92927  0.38135  0.93479  1.0000
  C   C1        1.0  0.69649  0.84414  0.18862  1.0000
  C   C2        1.0  0.30351  0.15586  0.81138  1.0000
  C   C3        1.0  0.80590  0.64983  0.30539  1.0000
  C   C4        1.0  0.19410  0.35016  0.69462  1.0000
  C   C5        1.0  0.94770  0.58974  0.22874  1.0000
  C   C6        1.0  0.05230  0.41025  0.77126  1.0000
  C   C7        1.0  0.38938  0.39085  0.32887  1.0000
  C   C8        1.0  0.61062  0.60915  0.67113  1.0000
  C   C9        1.0  0.41025  0.62887  0.30167  1.0000
  C   C10       1.0  0.58975  0.37113  0.69833  1.0000
  C   C11       1.0  0.38775  0.14657  0.36902  1.0000
  C   C12       1.0  0.61225  0.85343  0.63098  1.0000
  C   C13       1.0  0.38154  0.26332  0.28696  1.0000
  C   C14       1.0  0.61846  0.73668  0.71304  1.0000
  C   C15       1.0  0.39183  0.49930  0.25355  1.0000
  C   C16       1.0  0.60817  0.50070  0.74645  1.0000
  C   C17       1.0  0.38345  0.48164  0.13522  1.0000
  C   C18       1.0  0.61655  0.51836  0.86477  1.0000
  C   C19       1.0  0.04659  0.90804  0.73208  1.0000
  C   C20       1.0  0.95341  0.09196  0.26792  1.0000
  C   C21       1.0  0.85252  0.87218  0.00469  1.0000
  C   C22       1.0  0.14748  0.12782  0.99531  1.0000
  C   C23       1.0  0.15524  0.00349  0.56735  1.0000
  C   C24       1.0  0.84476  0.99651  0.43265  1.0000
  C   C25       1.0  0.04859  0.02653  0.66794  1.0000
  C   C26       1.0  0.95141  0.97347  0.33206  1.0000
  C   C27       1.0  0.94736  0.91931  0.84182  1.0000
  C   C28       1.0  0.05264  0.08069  0.15818  1.0000
  C   C29       1.0  0.83649  0.79301  0.10793  1.0000
  C   C30       1.0  0.16351  0.20699  0.89207  1.0000
  C   C31       1.0  0.37745  0.24465  0.16809  1.0000
  C   C32       1.0  0.62256  0.75535  0.83190  1.0000
  C   C33       1.0  0.37791  0.35366  0.09294  1.0000
  C   C34       1.0  0.62210  0.64635  0.90706  1.0000
  C   C35       1.0  0.24940  0.75739  0.58620  1.0000
  C   C36       1.0  0.75060  0.24261  0.41380  1.0000
  C   C37       1.0  0.96279  0.66156  0.12817  1.0000
  C   C38       1.0  0.03721  0.33844  0.87183  1.0000
  C   C39       1.0  0.14922  0.77076  0.68825  1.0000
  C   C40       1.0  0.85078  0.22924  0.31175  1.0000
  N   N1        1.0  0.68099  0.77389  0.28482  1.0000
  N   N2        1.0  0.31901  0.22610  0.71518  1.0000
  N   N3        1.0  0.25659  0.87162  0.52642  1.0000
  N   N4        1.0  0.74341  0.12838  0.47358  1.0000
  N   N5        1.0  0.74898  0.00731  0.98623  1.0000
  N   N6        1.0  0.25101  0.99269  0.01378  1.0000
  N   N7        1.0  0.81278  0.03504  0.88320  1.0000
  N   N8        1.0  0.18722  0.96496  0.11681  1.0000
  N   N9        1.0  0.97568  0.81417  0.91800  1.0000
  N   N10       1.0  0.02432  0.18583  0.08200  1.0000
  O   O1        1.0  0.38090  0.03082  0.32955  1.0000
  O   O2        1.0  0.61909  0.96918  0.67045  1.0000
  O   O3        1.0  0.39748  0.16876  0.47563  1.0000
  O   O4        1.0  0.60252  0.83124  0.52437  1.0000
  O   O5        1.0  0.49325  0.61458  0.38937  1.0000
  O   O6        1.0  0.50674  0.38542  0.61064  1.0000
  O   O7        1.0  0.34606  0.75241  0.25824  1.0000
  O   O8        1.0  0.65395  0.24759  0.74176  1.0000
