data_image0
_chemical_formula_structural       CoH26C32N10O6
_chemical_formula_sum              "Co1 H26 C32 N10 O6"
_cell_length_a       8.29793
_cell_length_b       9.02786
_cell_length_c       11.2009
_cell_angle_alpha    83.9828
_cell_angle_beta     68.9334
_cell_angle_gamma    73.896

_space_group_name_H-M_alt    "P 1"
_space_group_IT_number       1

loop_
  _space_group_symop_operation_xyz
  'x, y, z'

loop_
  _atom_site_type_symbol
  _atom_site_label
  _atom_site_symmetry_multiplicity
  _atom_site_fract_x
  _atom_site_fract_y
  _atom_site_fract_z
  _atom_site_occupancy
  Co  Co1       1.0  0.49999  0.50000  0.50001  1.0000
  H   H1        1.0  0.27709  0.23148  0.76533  1.0000
  H   H2        1.0  0.72291  0.76854  0.23467  1.0000
  H   H3        1.0  0.94728  0.33709  0.88051  1.0000
  H   H4        1.0  0.05272  0.66291  0.11950  1.0000
  H   H5        1.0  0.85427  0.60091  0.78010  1.0000
  H   H6        1.0  0.14570  0.39908  0.21989  1.0000
  H   H7        1.0  0.28774  0.71963  0.37521  1.0000
  H   H8        1.0  0.71226  0.28037  0.62479  1.0000
  H   H9        1.0  0.80947  0.24299  0.10073  1.0000
  H   H10       1.0  0.19053  0.75700  0.89927  1.0000
  H   H11       1.0  0.74527  0.80757  0.63930  1.0000
  H   H12       1.0  0.25472  0.19242  0.36069  1.0000
  H   H13       1.0  0.18184  0.46660  0.71231  1.0000
  H   H14       1.0  0.81815  0.53341  0.28769  1.0000
  H   H15       1.0  0.33553  0.97077  0.08171  1.0000
  H   H16       1.0  0.66447  0.02923  0.91829  1.0000
  H   H17       1.0  0.45793  0.83340  0.45142  1.0000
  H   H18       1.0  0.54206  0.16660  0.54859  1.0000
  H   H19       1.0  0.49371  0.69744  0.14194  1.0000
  H   H20       1.0  0.50632  0.30256  0.85806  1.0000
  H   H21       1.0  0.51142  0.23038  0.07755  1.0000
  H   H22       1.0  0.48859  0.76963  0.92246  1.0000
  H   H23       1.0  0.54771  0.74986  0.54794  1.0000
  H   H24       1.0  0.45229  0.25013  0.45206  1.0000
  H   H25       1.0  0.70890  0.14991  0.30155  1.0000
  H   H26       1.0  0.29111  0.85009  0.69844  1.0000
  C   C1        1.0  0.21313  0.19793  0.86421  1.0000
  C   C2        1.0  0.78687  0.80207  0.13580  1.0000
  C   C3        1.0  0.02986  0.25580  0.92775  1.0000
  C   C4        1.0  0.97015  0.74421  0.07225  1.0000
  C   C5        1.0  0.00925  0.77752  0.49457  1.0000
  C   C6        1.0  0.99075  0.22248  0.50543  1.0000
  C   C7        1.0  0.94670  0.63028  0.68933  1.0000
  C   C8        1.0  0.05329  0.36971  0.31067  1.0000
  C   C9        1.0  0.18863  0.69635  0.46440  1.0000
  C   C10       1.0  0.81137  0.30365  0.53560  1.0000
  C   C11       1.0  0.95301  0.20346  0.05106  1.0000
  C   C12       1.0  0.04699  0.79653  0.94893  1.0000
  C   C13       1.0  0.50400  0.45851  0.12332  1.0000
  C   C14       1.0  0.49601  0.54150  0.87668  1.0000
  C   C15       1.0  0.51305  0.40907  0.25371  1.0000
  C   C16       1.0  0.48694  0.59093  0.74629  1.0000
  C   C17       1.0  0.99152  0.02919  0.23369  1.0000
  C   C18       1.0  0.00849  0.97081  0.76631  1.0000
  C   C19       1.0  0.06199  0.09590  0.10781  1.0000
  C   C20       1.0  0.93801  0.90410  0.89219  1.0000
  C   C21       1.0  0.96200  0.89350  0.40335  1.0000
  C   C22       1.0  0.03801  0.10651  0.59665  1.0000
  C   C23       1.0  0.88566  0.74514  0.61082  1.0000
  C   C24       1.0  0.11433  0.25486  0.38917  1.0000
  C   C25       1.0  0.50655  0.34829  0.04261  1.0000
  C   C26       1.0  0.49347  0.65171  0.95739  1.0000
  C   C27       1.0  0.49660  0.61090  0.08006  1.0000
  C   C28       1.0  0.50341  0.38909  0.91994  1.0000
  C   C29       1.0  0.12737  0.55453  0.65315  1.0000
  C   C30       1.0  0.87262  0.44546  0.34685  1.0000
  C   C31       1.0  0.24629  0.04963  0.03782  1.0000
  C   C32       1.0  0.75372  0.95037  0.96217  1.0000
  N   N1        1.0  0.08497  0.91601  0.28809  1.0000
  N   N2        1.0  0.91503  0.08399  0.71190  1.0000
  N   N3        1.0  0.81930  0.07127  0.31457  1.0000
  N   N4        1.0  0.18071  0.92873  0.68542  1.0000
  N   N5        1.0  0.24790  0.58886  0.54240  1.0000
  N   N6        1.0  0.75210  0.41114  0.45759  1.0000
  N   N7        1.0  0.79730  0.98698  0.42357  1.0000
  N   N8        1.0  0.20270  0.01303  0.57643  1.0000
  N   N9        1.0  0.32082  0.09773  0.91851  1.0000
  N   N10       1.0  0.67919  0.90228  0.08149  1.0000
  O   O1        1.0  0.51272  0.27027  0.28857  1.0000
  O   O2        1.0  0.48727  0.72973  0.71144  1.0000
  O   O3        1.0  0.52343  0.51078  0.32022  1.0000
  O   O4        1.0  0.47655  0.48922  0.67979  1.0000
  O   O5        1.0  0.55355  0.74400  0.45808  1.0000
  O   O6        1.0  0.44644  0.25600  0.54193  1.0000
