data_image0
_chemical_formula_structural       Zn2H40C36S8N4O4
_chemical_formula_sum              "Zn2 H40 C36 S8 N4 O4"
_cell_length_a       6.5036
_cell_length_b       10.9755
_cell_length_c       15.3376
_cell_angle_alpha    79.7113
_cell_angle_beta     77.7475
_cell_angle_gamma    72.7586

_space_group_name_H-M_alt    "P 1"
_space_group_IT_number       1

loop_
  _space_group_symop_operation_xyz
  'x, y, z'

loop_
  _atom_site_type_symbol
  _atom_site_label
  _atom_site_symmetry_multiplicity
  _atom_site_fract_x
  _atom_site_fract_y
  _atom_site_fract_z
  _atom_site_occupancy
  Zn  Zn1       1.0  0.97578  0.24995  0.74991  1.0000
  Zn  Zn2       1.0  0.02421  0.75005  0.25008  1.0000
  H   H1        1.0  0.46214  0.53331  0.59855  1.0000
  H   H2        1.0  0.59432  0.96657  0.90119  1.0000
  H   H3        1.0  0.53785  0.46670  0.40146  1.0000
  H   H4        1.0  0.40567  0.03343  0.09881  1.0000
  H   H5        1.0  0.63799  0.62712  0.53385  1.0000
  H   H6        1.0  0.79885  0.87300  0.96615  1.0000
  H   H7        1.0  0.36200  0.37289  0.46615  1.0000
  H   H8        1.0  0.20115  0.12700  0.03385  1.0000
  H   H9        1.0  0.31697  0.76592  0.62499  1.0000
  H   H10       1.0  0.70896  0.73376  0.87494  1.0000
  H   H11       1.0  0.68302  0.23409  0.37502  1.0000
  H   H12       1.0  0.29104  0.26624  0.12506  1.0000
  H   H13       1.0  0.55817  0.75483  0.66710  1.0000
  H   H14       1.0  0.98115  0.74510  0.83295  1.0000
  H   H15       1.0  0.44182  0.24518  0.33290  1.0000
  H   H16       1.0  0.01884  0.25490  0.16705  1.0000
  H   H17       1.0  0.37363  0.66286  0.72510  1.0000
  H   H18       1.0  0.76271  0.83687  0.77486  1.0000
  H   H19       1.0  0.62636  0.33716  0.27490  1.0000
  H   H20       1.0  0.23728  0.16314  0.22515  1.0000
  H   H21       1.0  0.78624  0.49936  0.82359  1.0000
  H   H22       1.0  0.10907  0.00057  0.67637  1.0000
  H   H23       1.0  0.21377  0.50063  0.17641  1.0000
  H   H24       1.0  0.89092  0.99942  0.32363  1.0000
  H   H25       1.0  0.43182  0.61753  0.90947  1.0000
  H   H26       1.0  0.95877  0.88231  0.59061  1.0000
  H   H27       1.0  0.56819  0.38246  0.09053  1.0000
  H   H28       1.0  0.04123  0.11768  0.40939  1.0000
  H   H29       1.0  0.20612  0.27869  0.92777  1.0000
  H   H30       1.0  0.41224  0.22115  0.57236  1.0000
  H   H31       1.0  0.79388  0.72130  0.07223  1.0000
  H   H32       1.0  0.58776  0.77885  0.42763  1.0000
  H   H33       1.0  0.56564  0.17600  0.84508  1.0000
  H   H34       1.0  0.58649  0.32385  0.65489  1.0000
  H   H35       1.0  0.43436  0.82400  0.15492  1.0000
  H   H36       1.0  0.41352  0.67615  0.34511  1.0000
  H   H37       1.0  0.07187  0.62572  0.98570  1.0000
  H   H38       1.0  0.68346  0.87424  0.51417  1.0000
  H   H39       1.0  0.92813  0.37427  0.01430  1.0000
  H   H40       1.0  0.31654  0.12576  0.48583  1.0000
  C   C1        1.0  0.94603  0.52657  0.62544  1.0000
  C   C2        1.0  0.09844  0.97338  0.87438  1.0000
  C   C3        1.0  0.05396  0.47343  0.37456  1.0000
  C   C4        1.0  0.90157  0.02662  0.12562  1.0000
  C   C5        1.0  0.56872  0.59252  0.60207  1.0000
  C   C6        1.0  0.76366  0.90740  0.89787  1.0000
  C   C7        1.0  0.43127  0.40749  0.39794  1.0000
  C   C8        1.0  0.23634  0.09260  0.10213  1.0000
  C   C9        1.0  0.44843  0.70033  0.65862  1.0000
  C   C10       1.0  0.80829  0.79947  0.84137  1.0000
  C   C11       1.0  0.55156  0.29969  0.34139  1.0000
  C   C12       1.0  0.19170  0.20053  0.15863  1.0000
  C   C13       1.0  0.65311  0.45429  0.84972  1.0000
  C   C14       1.0  0.95707  0.04564  0.65022  1.0000
  C   C15       1.0  0.34691  0.54570  0.15028  1.0000
  C   C16       1.0  0.04293  0.95436  0.34978  1.0000
  C   C17       1.0  0.45646  0.51885  0.89726  1.0000
  C   C18       1.0  0.87251  0.98102  0.60275  1.0000
  C   C19       1.0  0.54355  0.48114  0.10275  1.0000
  C   C20       1.0  0.12749  0.01898  0.39725  1.0000
  C   C21       1.0  0.28762  0.45782  0.92877  1.0000
  C   C22       1.0  0.67407  0.04202  0.57126  1.0000
  C   C23       1.0  0.71238  0.54218  0.07123  1.0000
  C   C24       1.0  0.32593  0.95798  0.42873  1.0000
  C   C25       1.0  0.32923  0.33194  0.90842  1.0000
  C   C26       1.0  0.56935  0.16788  0.59163  1.0000
  C   C27       1.0  0.67077  0.66806  0.09158  1.0000
  C   C28       1.0  0.43065  0.83212  0.40836  1.0000
  C   C29       1.0  0.53052  0.27346  0.86115  1.0000
  C   C30       1.0  0.66496  0.22641  0.63881  1.0000
  C   C31       1.0  0.46949  0.72654  0.13885  1.0000
  C   C32       1.0  0.33504  0.77358  0.36119  1.0000
  C   C33       1.0  0.08356  0.52575  0.98018  1.0000
  C   C34       1.0  0.58950  0.97418  0.51980  1.0000
  C   C35       1.0  0.91645  0.47425  0.01982  1.0000
  C   C36       1.0  0.41050  0.02582  0.48019  1.0000
  S   S1        1.0  0.13320  0.41602  0.68531  1.0000
  S   S2        1.0  0.23491  0.08387  0.81440  1.0000
  S   S3        1.0  0.86679  0.58398  0.31469  1.0000
  S   S4        1.0  0.76509  0.91613  0.18559  1.0000
  S   S5        1.0  0.01033  0.64737  0.55340  1.0000
  S   S6        1.0  0.21136  0.85268  0.94651  1.0000
  S   S7        1.0  0.98967  0.35263  0.44660  1.0000
  S   S8        1.0  0.78865  0.14732  0.05349  1.0000
  N   N1        1.0  0.69131  0.33288  0.83188  1.0000
  N   N2        1.0  0.85598  0.16705  0.66803  1.0000
  N   N3        1.0  0.30869  0.66711  0.16812  1.0000
  N   N4        1.0  0.14402  0.83294  0.33197  1.0000
  O   O1        1.0  0.74773  0.50369  0.64384  1.0000
  O   O2        1.0  0.89558  0.99624  0.85607  1.0000
  O   O3        1.0  0.25226  0.49632  0.35617  1.0000
  O   O4        1.0  0.10442  0.00376  0.14393  1.0000
