data_image0
_chemical_formula_structural       Sn4H64C72O4
_chemical_formula_sum              "Sn4 H64 C72 O4"
_cell_length_a       8.31059
_cell_length_b       10.1531
_cell_length_c       17.5151
_cell_angle_alpha    90
_cell_angle_beta     90.0002
_cell_angle_gamma    89.9999

_space_group_name_H-M_alt    "P 1"
_space_group_IT_number       1

loop_
  _space_group_symop_operation_xyz
  'x, y, z'

loop_
  _atom_site_type_symbol
  _atom_site_label
  _atom_site_symmetry_multiplicity
  _atom_site_fract_x
  _atom_site_fract_y
  _atom_site_fract_z
  _atom_site_occupancy
  Sn  Sn1       1.0  0.56673  0.24764  0.00348  1.0000
  Sn  Sn2       1.0  0.93327  0.75236  0.50348  1.0000
  Sn  Sn3       1.0  0.43327  0.74764  0.49652  1.0000
  Sn  Sn4       1.0  0.06673  0.25236  0.99652  1.0000
  H   H1        1.0  0.77064  0.00007  0.05889  1.0000
  H   H2        1.0  0.72936  0.99993  0.55889  1.0000
  H   H3        1.0  0.22936  0.50007  0.44111  1.0000
  H   H4        1.0  0.27064  0.49993  0.94111  1.0000
  H   H5        1.0  0.81831  0.88126  0.17977  1.0000
  H   H6        1.0  0.68169  0.11873  0.67977  1.0000
  H   H7        1.0  0.18169  0.38127  0.32023  1.0000
  H   H8        1.0  0.31831  0.61873  0.82023  1.0000
  H   H9        1.0  0.69494  0.95989  0.30021  1.0000
  H   H10       1.0  0.80506  0.04011  0.80021  1.0000
  H   H11       1.0  0.30506  0.45989  0.19979  1.0000
  H   H12       1.0  0.19494  0.54011  0.69979  1.0000
  H   H13       1.0  0.50782  0.15371  0.29774  1.0000
  H   H14       1.0  0.99218  0.84629  0.79775  1.0000
  H   H15       1.0  0.49218  0.65371  0.20225  1.0000
  H   H16       1.0  0.00782  0.34629  0.70225  1.0000
  H   H17       1.0  0.45298  0.26845  0.17654  1.0000
  H   H18       1.0  0.04703  0.73155  0.67654  1.0000
  H   H19       1.0  0.54703  0.76845  0.32346  1.0000
  H   H20       1.0  0.95297  0.23155  0.82346  1.0000
  H   H21       1.0  0.52002  0.94672  0.96836  1.0000
  H   H22       1.0  0.97998  0.05328  0.46836  1.0000
  H   H23       1.0  0.47998  0.44673  0.53163  1.0000
  H   H24       1.0  0.02002  0.55328  0.03164  1.0000
  H   H25       1.0  0.43920  0.29624  0.83262  1.0000
  H   H26       1.0  0.06080  0.70376  0.33262  1.0000
  H   H27       1.0  0.56080  0.79624  0.66738  1.0000
  H   H28       1.0  0.93920  0.20376  0.16738  1.0000
  H   H29       1.0  0.35885  0.15690  0.72394  1.0000
  H   H30       1.0  0.14115  0.84310  0.22394  1.0000
  H   H31       1.0  0.64115  0.65690  0.77606  1.0000
  H   H32       1.0  0.85885  0.34310  0.27606  1.0000
  H   H33       1.0  0.35998  0.91257  0.73590  1.0000
  H   H34       1.0  0.14002  0.08743  0.23590  1.0000
  H   H35       1.0  0.64001  0.41256  0.76409  1.0000
  H   H36       1.0  0.85998  0.58743  0.26410  1.0000
  H   H37       1.0  0.44493  0.80833  0.85868  1.0000
  H   H38       1.0  0.05507  0.19166  0.35868  1.0000
  H   H39       1.0  0.55506  0.30834  0.64132  1.0000
  H   H40       1.0  0.94493  0.69166  0.14133  1.0000
  H   H41       1.0  0.51211  0.52092  0.09288  1.0000
  H   H42       1.0  0.98789  0.47908  0.59288  1.0000
  H   H43       1.0  0.48789  0.02092  0.40712  1.0000
  H   H44       1.0  0.01211  0.97908  0.90712  1.0000
  H   H45       1.0  0.59309  0.75325  0.07475  1.0000
  H   H46       1.0  0.90691  0.24675  0.57475  1.0000
  H   H47       1.0  0.40691  0.25326  0.42524  1.0000
  H   H48       1.0  0.09309  0.74675  0.92525  1.0000
  H   H49       1.0  0.75884  0.81753  0.96289  1.0000
  H   H50       1.0  0.74116  0.18247  0.46289  1.0000
  H   H51       1.0  0.24116  0.31754  0.53711  1.0000
  H   H52       1.0  0.25884  0.68247  0.03711  1.0000
  H   H53       1.0  0.84035  0.64821  0.86729  1.0000
  H   H54       1.0  0.65965  0.35179  0.36729  1.0000
  H   H55       1.0  0.15966  0.14821  0.63271  1.0000
  H   H56       1.0  0.34035  0.85179  0.13272  1.0000
  H   H57       1.0  0.76063  0.41598  0.88513  1.0000
  H   H58       1.0  0.73937  0.58402  0.38513  1.0000
  H   H59       1.0  0.23938  0.91599  0.61487  1.0000
  H   H60       1.0  0.26063  0.08402  0.11487  1.0000
  H   H61       1.0  0.31386  0.38805  0.06202  1.0000
  H   H62       1.0  0.18614  0.61196  0.56202  1.0000
  H   H63       1.0  0.68614  0.88805  0.43798  1.0000
  H   H64       1.0  0.81386  0.11195  0.93799  1.0000
  C   C1        1.0  0.60717  0.14285  0.10856  1.0000
  C   C2        1.0  0.89283  0.85715  0.60856  1.0000
  C   C3        1.0  0.39283  0.64285  0.39144  1.0000
  C   C4        1.0  0.10717  0.35715  0.89144  1.0000
  C   C5        1.0  0.70894  0.03275  0.11053  1.0000
  C   C6        1.0  0.79106  0.96724  0.61053  1.0000
  C   C7        1.0  0.29106  0.53276  0.38947  1.0000
  C   C8        1.0  0.20894  0.46724  0.88947  1.0000
  C   C9        1.0  0.73782  0.96597  0.17894  1.0000
  C   C10       1.0  0.76218  0.03402  0.67894  1.0000
  C   C11       1.0  0.26219  0.46598  0.32106  1.0000
  C   C12       1.0  0.23781  0.53402  0.82106  1.0000
  C   C13       1.0  0.66721  0.00988  0.24668  1.0000
  C   C14       1.0  0.83279  0.99011  0.74668  1.0000
  C   C15       1.0  0.33279  0.50989  0.25332  1.0000
  C   C16       1.0  0.16721  0.49011  0.75332  1.0000
  C   C17       1.0  0.56472  0.11886  0.24537  1.0000
  C   C18       1.0  0.93527  0.88114  0.74537  1.0000
  C   C19       1.0  0.43527  0.61886  0.25463  1.0000
  C   C20       1.0  0.06473  0.38114  0.75463  1.0000
  C   C21       1.0  0.53419  0.18408  0.17662  1.0000
  C   C22       1.0  0.96581  0.81591  0.67662  1.0000
  C   C23       1.0  0.46581  0.68409  0.32338  1.0000
  C   C24       1.0  0.03419  0.31591  0.82338  1.0000
  C   C25       1.0  0.48880  0.99398  0.91442  1.0000
  C   C26       1.0  0.01120  0.00602  0.41442  1.0000
  C   C27       1.0  0.51120  0.49398  0.58558  1.0000
  C   C28       1.0  0.98880  0.50602  0.08558  1.0000
  C   C29       1.0  0.48806  0.13168  0.90838  1.0000
  C   C30       1.0  0.01194  0.86832  0.40838  1.0000
  C   C31       1.0  0.51194  0.63168  0.59162  1.0000
  C   C32       1.0  0.98806  0.36832  0.09162  1.0000
  C   C33       1.0  0.44225  0.18936  0.83892  1.0000
  C   C34       1.0  0.05775  0.81064  0.33892  1.0000
  C   C35       1.0  0.55775  0.68936  0.66107  1.0000
  C   C36       1.0  0.94225  0.31064  0.16108  1.0000
  C   C37       1.0  0.39574  0.11066  0.77733  1.0000
  C   C38       1.0  0.10427  0.88934  0.27733  1.0000
  C   C39       1.0  0.60426  0.61065  0.72267  1.0000
  C   C40       1.0  0.89574  0.38934  0.22267  1.0000
  C   C41       1.0  0.39634  0.97358  0.78408  1.0000
  C   C42       1.0  0.10366  0.02642  0.28408  1.0000
  C   C43       1.0  0.60366  0.47358  0.71592  1.0000
  C   C44       1.0  0.89634  0.52642  0.21592  1.0000
  C   C45       1.0  0.44386  0.91522  0.85259  1.0000
  C   C46       1.0  0.05614  0.08478  0.35259  1.0000
  C   C47       1.0  0.55614  0.41522  0.64741  1.0000
  C   C48       1.0  0.94386  0.58478  0.14742  1.0000
  C   C49       1.0  0.62726  0.45160  0.98911  1.0000
  C   C50       1.0  0.87274  0.54840  0.48910  1.0000
  C   C51       1.0  0.37274  0.95160  0.51090  1.0000
  C   C52       1.0  0.12726  0.04840  0.01090  1.0000
  C   C53       1.0  0.58084  0.54794  0.04200  1.0000
  C   C54       1.0  0.91916  0.45205  0.54200  1.0000
  C   C55       1.0  0.41916  0.04795  0.45799  1.0000
  C   C56       1.0  0.08084  0.95206  0.95800  1.0000
  C   C57       1.0  0.62729  0.67924  0.03261  1.0000
  C   C58       1.0  0.87270  0.32076  0.53261  1.0000
  C   C59       1.0  0.37270  0.17925  0.46739  1.0000
  C   C60       1.0  0.12729  0.82076  0.96740  1.0000
  C   C61       1.0  0.72043  0.71566  0.96974  1.0000
  C   C62       1.0  0.77957  0.28434  0.46974  1.0000
  C   C63       1.0  0.27957  0.21567  0.53026  1.0000
  C   C64       1.0  0.22043  0.78434  0.03026  1.0000
  C   C65       1.0  0.76638  0.62085  0.91628  1.0000
  C   C66       1.0  0.73362  0.37915  0.41628  1.0000
  C   C67       1.0  0.23362  0.12085  0.58372  1.0000
  C   C68       1.0  0.26638  0.87915  0.08372  1.0000
  C   C69       1.0  0.71999  0.48971  0.92600  1.0000
  C   C70       1.0  0.78001  0.51029  0.42600  1.0000
  C   C71       1.0  0.28002  0.98972  0.57400  1.0000
  C   C72       1.0  0.21999  0.01029  0.07400  1.0000
  O   O1        1.0  0.31905  0.30161  0.03822  1.0000
  O   O2        1.0  0.18095  0.69839  0.53822  1.0000
  O   O3        1.0  0.68095  0.80162  0.46178  1.0000
  O   O4        1.0  0.81905  0.19839  0.96178  1.0000
