data_image0
_chemical_formula_structural       Cu2H24C24N6O12
_chemical_formula_sum              "Cu2 H24 C24 N6 O12"
_cell_length_a       7.03057
_cell_length_b       9.71262
_cell_length_c       10.2696
_cell_angle_alpha    71.8385
_cell_angle_beta     74.7705
_cell_angle_gamma    75.7771

_space_group_name_H-M_alt    "P 1"
_space_group_IT_number       1

loop_
  _space_group_symop_operation_xyz
  'x, y, z'

loop_
  _atom_site_type_symbol
  _atom_site_label
  _atom_site_symmetry_multiplicity
  _atom_site_fract_x
  _atom_site_fract_y
  _atom_site_fract_z
  _atom_site_occupancy
  Cu  Cu1       1.0  0.40129  0.57006  0.85257  1.0000
  Cu  Cu2       1.0  0.59871  0.42994  0.14743  1.0000
  H   H1        1.0  0.22053  0.38922  0.08524  1.0000
  H   H2        1.0  0.77947  0.61078  0.91475  1.0000
  H   H3        1.0  0.18314  0.56721  0.08048  1.0000
  H   H4        1.0  0.81686  0.43278  0.91951  1.0000
  H   H5        1.0  0.36058  0.24074  0.96139  1.0000
  H   H6        1.0  0.63942  0.75926  0.03861  1.0000
  H   H7        1.0  0.53266  0.01699  0.87488  1.0000
  H   H8        1.0  0.46734  0.98301  0.12511  1.0000
  H   H9        1.0  0.76871  0.04991  0.64196  1.0000
  H   H10       1.0  0.23130  0.95009  0.35803  1.0000
  H   H11       1.0  0.81216  0.30273  0.49963  1.0000
  H   H12       1.0  0.18784  0.69728  0.50037  1.0000
  H   H13       1.0  0.84512  0.51986  0.39617  1.0000
  H   H14       1.0  0.15487  0.48015  0.60383  1.0000
  H   H15       1.0  0.89486  0.77832  0.30069  1.0000
  H   H16       1.0  0.10513  0.22169  0.69932  1.0000
  H   H17       1.0  0.73328  0.95841  0.44816  1.0000
  H   H18       1.0  0.26671  0.04160  0.55185  1.0000
  H   H19       1.0  0.51029  0.86642  0.68347  1.0000
  H   H20       1.0  0.48970  0.13357  0.31654  1.0000
  H   H21       1.0  0.02462  0.00222  0.84551  1.0000
  H   H22       1.0  0.97538  0.99776  0.15449  1.0000
  H   H23       1.0  0.20795  0.03121  0.91625  1.0000
  H   H24       1.0  0.79205  0.96877  0.08375  1.0000
  C   C1        1.0  0.46532  0.24978  0.86134  1.0000
  C   C2        1.0  0.53468  0.75022  0.13866  1.0000
  C   C3        1.0  0.55939  0.12629  0.81215  1.0000
  C   C4        1.0  0.44061  0.87371  0.18784  1.0000
  C   C5        1.0  0.68799  0.14450  0.68156  1.0000
  C   C6        1.0  0.31201  0.85551  0.31844  1.0000
  C   C7        1.0  0.71755  0.28574  0.60370  1.0000
  C   C8        1.0  0.28245  0.71426  0.39630  1.0000
  C   C9        1.0  0.62416  0.40434  0.66060  1.0000
  C   C10       1.0  0.37584  0.59566  0.33940  1.0000
  C   C11       1.0  0.65615  0.55610  0.59066  1.0000
  C   C12       1.0  0.34384  0.44390  0.40935  1.0000
  C   C13       1.0  0.77546  0.59898  0.45785  1.0000
  C   C14       1.0  0.22453  0.40103  0.54215  1.0000
  C   C15       1.0  0.80230  0.74499  0.40458  1.0000
  C   C16       1.0  0.19769  0.25501  0.59542  1.0000
  C   C17       1.0  0.71015  0.84464  0.48504  1.0000
  C   C18       1.0  0.28984  0.15537  0.51497  1.0000
  C   C19       1.0  0.58921  0.79533  0.61523  1.0000
  C   C20       1.0  0.41079  0.20468  0.38478  1.0000
  C   C21       1.0  0.15793  0.80965  0.97768  1.0000
  C   C22       1.0  0.84206  0.19034  0.02233  1.0000
  C   C23       1.0  0.08040  0.97446  0.94281  1.0000
  C   C24       1.0  0.91960  0.02552  0.05719  1.0000
  N   N1        1.0  0.49956  0.38534  0.78813  1.0000
  N   N2        1.0  0.50044  0.61466  0.21187  1.0000
  N   N3        1.0  0.56358  0.65481  0.66597  1.0000
  N   N4        1.0  0.43643  0.34520  0.33404  1.0000
  N   N5        1.0  0.99388  0.75743  0.73815  1.0000
  N   N6        1.0  0.00612  0.24258  0.26184  1.0000
  O   O1        1.0  0.30438  0.76874  0.88317  1.0000
  O   O2        1.0  0.69562  0.23125  0.11684  1.0000
  O   O3        1.0  0.28211  0.48074  0.04886  1.0000
  O   O4        1.0  0.71790  0.51925  0.95114  1.0000
  O   O5        1.0  0.07984  0.72492  0.08892  1.0000
  O   O6        1.0  0.92015  0.27506  0.91107  1.0000
  O   O7        1.0  0.83829  0.77655  0.83415  1.0000
  O   O8        1.0  0.16171  0.22346  0.16584  1.0000
  O   O9        1.0  0.04873  0.86644  0.64397  1.0000
  O   O10       1.0  0.95128  0.13356  0.35602  1.0000
  O   O11       1.0  0.08831  0.62728  0.74092  1.0000
  O   O12       1.0  0.91170  0.37272  0.25908  1.0000
