data_image0
_chemical_formula_structural       Cu2H28C40N8O10
_chemical_formula_sum              "Cu2 H28 C40 N8 O10"
_cell_length_a       9.90386
_cell_length_b       9.74112
_cell_length_c       11.9384
_cell_angle_alpha    65.4484
_cell_angle_beta     81.9503
_cell_angle_gamma    60.9504

_space_group_name_H-M_alt    "P 1"
_space_group_IT_number       1

loop_
  _space_group_symop_operation_xyz
  'x, y, z'

loop_
  _atom_site_type_symbol
  _atom_site_label
  _atom_site_symmetry_multiplicity
  _atom_site_fract_x
  _atom_site_fract_y
  _atom_site_fract_z
  _atom_site_occupancy
  Cu  Cu1       1.0  0.66089  0.97852  0.39742  1.0000
  Cu  Cu2       1.0  0.33911  0.02148  0.60258  1.0000
  H   H1        1.0  0.27308  0.96625  0.91864  1.0000
  H   H2        1.0  0.72692  0.03376  0.08136  1.0000
  H   H3        1.0  0.40295  0.11968  0.18859  1.0000
  H   H4        1.0  0.59704  0.88033  0.81141  1.0000
  H   H5        1.0  0.50634  0.86556  0.17271  1.0000
  H   H6        1.0  0.49366  0.13444  0.82729  1.0000
  H   H7        1.0  0.14393  0.87728  0.41969  1.0000
  H   H8        1.0  0.85607  0.12271  0.58031  1.0000
  H   H9        1.0  0.08470  0.92277  0.05306  1.0000
  H   H10       1.0  0.91530  0.07723  0.94694  1.0000
  H   H11       1.0  0.36959  0.19459  0.98737  1.0000
  H   H12       1.0  0.63041  0.80541  0.01264  1.0000
  H   H13       1.0  0.91253  0.86416  0.59459  1.0000
  H   H14       1.0  0.08747  0.13585  0.40541  1.0000
  H   H15       1.0  0.59579  0.36785  0.27642  1.0000
  H   H16       1.0  0.40421  0.63216  0.72359  1.0000
  H   H17       1.0  0.19276  0.28889  0.81233  1.0000
  H   H18       1.0  0.80724  0.71111  0.18767  1.0000
  H   H19       1.0  0.38715  0.60277  0.06902  1.0000
  H   H20       1.0  0.61285  0.39723  0.93099  1.0000
  H   H21       1.0  0.12514  0.70143  0.98643  1.0000
  H   H22       1.0  0.87485  0.29857  0.01357  1.0000
  H   H23       1.0  0.94864  0.79600  0.81201  1.0000
  H   H24       1.0  0.05135  0.20400  0.18799  1.0000
  H   H25       1.0  0.93807  0.37258  0.75181  1.0000
  H   H26       1.0  0.06194  0.62742  0.24818  1.0000
  H   H27       1.0  0.72429  0.58491  0.54520  1.0000
  H   H28       1.0  0.27571  0.41509  0.45479  1.0000
  C   C1        1.0  0.42763  0.21729  0.18617  1.0000
  C   C2        1.0  0.57237  0.78271  0.81383  1.0000
  C   C3        1.0  0.33679  0.86371  0.30660  1.0000
  C   C4        1.0  0.66321  0.13628  0.69340  1.0000
  C   C5        1.0  0.93089  0.93952  0.25437  1.0000
  C   C6        1.0  0.06911  0.06048  0.74563  1.0000
  C   C7        1.0  0.39300  0.87231  0.19088  1.0000
  C   C8        1.0  0.60700  0.12768  0.80913  1.0000
  C   C9        1.0  0.30194  0.89611  0.09793  1.0000
  C   C10       1.0  0.69806  0.10389  0.90207  1.0000
  C   C11       1.0  0.25852  0.44136  0.99810  1.0000
  C   C12       1.0  0.74148  0.55864  0.00190  1.0000
  C   C13       1.0  0.42756  0.86212  0.39933  1.0000
  C   C14       1.0  0.57245  0.13787  0.60067  1.0000
  C   C15       1.0  0.09721  0.90322  0.23800  1.0000
  C   C16       1.0  0.90279  0.09677  0.76200  1.0000
  C   C17       1.0  0.18858  0.87921  0.33068  1.0000
  C   C18       1.0  0.81142  0.12078  0.66932  1.0000
  C   C19       1.0  0.15565  0.90684  0.12367  1.0000
  C   C20       1.0  0.84435  0.09316  0.87633  1.0000
  C   C21       1.0  0.27605  0.32564  0.94961  1.0000
  C   C22       1.0  0.72395  0.67436  0.05040  1.0000
  C   C23       1.0  0.88748  0.76181  0.60910  1.0000
  C   C24       1.0  0.11252  0.23819  0.39090  1.0000
  C   C25       1.0  0.06073  0.54891  0.80075  1.0000
  C   C26       1.0  0.93927  0.45109  0.19925  1.0000
  C   C27       1.0  0.52410  0.35234  0.22689  1.0000
  C   C28       1.0  0.47589  0.64767  0.77311  1.0000
  C   C29       1.0  0.17790  0.37896  0.85063  1.0000
  C   C30       1.0  0.82210  0.62104  0.14937  1.0000
  C   C31       1.0  0.42033  0.46938  0.12567  1.0000
  C   C32       1.0  0.57966  0.53062  0.87433  1.0000
  C   C33       1.0  0.14187  0.61155  0.94743  1.0000
  C   C34       1.0  0.85812  0.38845  0.05257  1.0000
  C   C35       1.0  0.04241  0.66480  0.84915  1.0000
  C   C36       1.0  0.95759  0.33520  0.15085  1.0000
  C   C37       1.0  0.89956  0.50495  0.68830  1.0000
  C   C38       1.0  0.10044  0.49506  0.31170  1.0000
  C   C39       1.0  0.79559  0.61031  0.58647  1.0000
  C   C40       1.0  0.20441  0.38969  0.41353  1.0000
  N   N1        1.0  0.52688  0.19609  0.26334  1.0000
  N   N2        1.0  0.47312  0.80391  0.73666  1.0000
  N   N3        1.0  0.36017  0.38173  0.10016  1.0000
  N   N4        1.0  0.63983  0.61827  0.89984  1.0000
  N   N5        1.0  0.95632  0.60284  0.70230  1.0000
  N   N6        1.0  0.04368  0.39716  0.29769  1.0000
  N   N7        1.0  0.78924  0.76939  0.53857  1.0000
  N   N8        1.0  0.21076  0.23062  0.46143  1.0000
  O   O1        1.0  0.86610  0.99220  0.33894  1.0000
  O   O2        1.0  0.13390  0.00780  0.66105  1.0000
  O   O3        1.0  0.55524  0.86477  0.36362  1.0000
  O   O4        1.0  0.44476  0.13522  0.63638  1.0000
  O   O5        1.0  0.36864  0.86599  0.49926  1.0000
  O   O6        1.0  0.63137  0.13401  0.50074  1.0000
  O   O7        1.0  0.86826  0.91692  0.18205  1.0000
  O   O8        1.0  0.13174  0.08308  0.81795  1.0000
  O   O9        1.0  0.35873  0.90897  0.98573  1.0000
  O   O10       1.0  0.64127  0.09103  0.01427  1.0000
