data_image0
_chemical_formula_structural       Zn4H36C48N20Cl8
_chemical_formula_sum              "Zn4 H36 C48 N20 Cl8"
_cell_length_a       5.20746
_cell_length_b       12.3943
_cell_length_c       21.6548
_cell_angle_alpha    89.9994
_cell_angle_beta     90.0003
_cell_angle_gamma    97.0793

_space_group_name_H-M_alt    "P 1"
_space_group_IT_number       1

loop_
  _space_group_symop_operation_xyz
  'x, y, z'

loop_
  _atom_site_type_symbol
  _atom_site_label
  _atom_site_symmetry_multiplicity
  _atom_site_fract_x
  _atom_site_fract_y
  _atom_site_fract_z
  _atom_site_occupancy
  Zn  Zn1       1.0  0.90521  0.35403  0.64882  1.0000
  Zn  Zn2       1.0  0.09477  0.14597  0.14882  1.0000
  Zn  Zn3       1.0  0.09478  0.64599  0.35118  1.0000
  Zn  Zn4       1.0  0.90523  0.85402  0.85118  1.0000
  H   H1        1.0  0.96550  0.95357  0.35908  1.0000
  H   H2        1.0  0.03455  0.54643  0.85908  1.0000
  H   H3        1.0  0.03453  0.04645  0.64092  1.0000
  H   H4        1.0  0.96546  0.45355  0.14092  1.0000
  H   H5        1.0  0.47735  0.43941  0.56938  1.0000
  H   H6        1.0  0.52261  0.06058  0.06937  1.0000
  H   H7        1.0  0.52261  0.56060  0.43062  1.0000
  H   H8        1.0  0.47739  0.93940  0.93062  1.0000
  H   H9        1.0  0.17664  0.36336  0.48577  1.0000
  H   H10       1.0  0.82331  0.13663  0.98576  1.0000
  H   H11       1.0  0.82332  0.63664  0.51424  1.0000
  H   H12       1.0  0.17670  0.86336  0.01424  1.0000
  H   H13       1.0  0.56321  0.07427  0.49104  1.0000
  H   H14       1.0  0.43680  0.42573  0.99104  1.0000
  H   H15       1.0  0.43676  0.92573  0.50897  1.0000
  H   H16       1.0  0.56323  0.57427  0.00897  1.0000
  H   H17       1.0  0.84185  0.16013  0.57433  1.0000
  H   H18       1.0  0.15815  0.33987  0.07433  1.0000
  H   H19       1.0  0.15811  0.83988  0.42567  1.0000
  H   H20       1.0  0.84187  0.66012  0.92567  1.0000
  H   H21       1.0  0.74918  0.97344  0.27374  1.0000
  H   H22       1.0  0.25081  0.52655  0.77374  1.0000
  H   H23       1.0  0.25085  0.02657  0.72626  1.0000
  H   H24       1.0  0.74917  0.47344  0.22626  1.0000
  H   H25       1.0  0.41859  0.99006  0.19356  1.0000
  H   H26       1.0  0.58137  0.50994  0.69356  1.0000
  H   H27       1.0  0.58143  0.00994  0.80644  1.0000
  H   H28       1.0  0.41860  0.49006  0.30644  1.0000
  H   H29       1.0  0.24543  0.28357  0.26373  1.0000
  H   H30       1.0  0.75456  0.21643  0.76372  1.0000
  H   H31       1.0  0.75457  0.71643  0.73627  1.0000
  H   H32       1.0  0.24545  0.78357  0.23627  1.0000
  H   H33       1.0  0.57876  0.28190  0.34798  1.0000
  H   H34       1.0  0.42126  0.21810  0.84798  1.0000
  H   H35       1.0  0.42123  0.71811  0.65202  1.0000
  H   H36       1.0  0.57875  0.78188  0.15201  1.0000
  C   C1        1.0  0.48988  0.35854  0.55070  1.0000
  C   C2        1.0  0.51010  0.14145  0.05069  1.0000
  C   C3        1.0  0.51009  0.64148  0.44931  1.0000
  C   C4        1.0  0.48992  0.85853  0.94931  1.0000
  C   C5        1.0  0.32089  0.31561  0.50452  1.0000
  C   C6        1.0  0.67907  0.18438  0.00452  1.0000
  C   C7        1.0  0.67908  0.68440  0.49548  1.0000
  C   C8        1.0  0.32093  0.81560  0.99548  1.0000
  C   C9        1.0  0.33874  0.20999  0.48305  1.0000
  C   C10       1.0  0.66125  0.29001  0.98305  1.0000
  C   C11       1.0  0.66124  0.79002  0.51696  1.0000
  C   C12       1.0  0.33877  0.70998  0.01696  1.0000
  C   C13       1.0  0.53345  0.15426  0.50782  1.0000
  C   C14       1.0  0.46654  0.34574  0.00782  1.0000
  C   C15       1.0  0.46652  0.84575  0.49219  1.0000
  C   C16       1.0  0.53348  0.65426  0.99219  1.0000
  C   C17       1.0  0.69167  0.20212  0.55376  1.0000
  C   C18       1.0  0.30832  0.29788  0.05376  1.0000
  C   C19       1.0  0.30830  0.79789  0.44624  1.0000
  C   C20       1.0  0.69170  0.70211  0.94624  1.0000
  C   C21       1.0  0.16569  0.15562  0.43652  1.0000
  C   C22       1.0  0.83432  0.34437  0.93652  1.0000
  C   C23       1.0  0.83428  0.84439  0.56348  1.0000
  C   C24       1.0  0.16573  0.65561  0.06348  1.0000
  C   C25       1.0  0.88424  0.12150  0.36617  1.0000
  C   C26       1.0  0.11578  0.37850  0.86617  1.0000
  C   C27       1.0  0.11577  0.87851  0.63382  1.0000
  C   C28       1.0  0.88425  0.62148  0.13383  1.0000
  C   C29       1.0  0.68753  0.12631  0.31880  1.0000
  C   C30       1.0  0.31248  0.37369  0.81881  1.0000
  C   C31       1.0  0.31248  0.87370  0.68119  1.0000
  C   C32       1.0  0.68752  0.62629  0.18120  1.0000
  C   C33       1.0  0.64103  0.04329  0.27468  1.0000
  C   C34       1.0  0.35896  0.45671  0.77468  1.0000
  C   C35       1.0  0.35899  0.95673  0.72532  1.0000
  C   C36       1.0  0.64103  0.54327  0.22532  1.0000
  C   C37       1.0  0.45692  0.05176  0.22936  1.0000
  C   C38       1.0  0.54306  0.44824  0.72936  1.0000
  C   C39       1.0  0.54309  0.94824  0.77064  1.0000
  C   C40       1.0  0.45693  0.55176  0.27064  1.0000
  C   C41       1.0  0.36263  0.21685  0.26850  1.0000
  C   C42       1.0  0.63737  0.28314  0.76850  1.0000
  C   C43       1.0  0.63738  0.78315  0.73150  1.0000
  C   C44       1.0  0.36264  0.71685  0.23150  1.0000
  C   C45       1.0  0.54432  0.21497  0.31525  1.0000
  C   C46       1.0  0.45568  0.28503  0.81525  1.0000
  C   C47       1.0  0.45568  0.78504  0.68475  1.0000
  C   C48       1.0  0.54432  0.71496  0.18475  1.0000
  N   N1        1.0  0.67012  0.30229  0.57569  1.0000
  N   N2        1.0  0.32985  0.19771  0.07569  1.0000
  N   N3        1.0  0.32984  0.69772  0.42431  1.0000
  N   N4        1.0  0.67017  0.80228  0.92431  1.0000
  N   N5        1.0  0.31999  0.13691  0.22607  1.0000
  N   N6        1.0  0.68000  0.36309  0.72607  1.0000
  N   N7        1.0  0.68001  0.86309  0.77393  1.0000
  N   N8        1.0  0.32000  0.63691  0.27393  1.0000
  N   N9        1.0  0.98429  0.20156  0.40369  1.0000
  N   N10       1.0  0.01570  0.29843  0.90370  1.0000
  N   N11       1.0  0.01570  0.79846  0.59631  1.0000
  N   N12       1.0  0.98431  0.70155  0.09631  1.0000
  N   N13       1.0  0.00242  0.03113  0.37744  1.0000
  N   N14       1.0  0.99760  0.46887  0.87745  1.0000
  N   N15       1.0  0.99759  0.96888  0.62255  1.0000
  N   N16       1.0  0.00242  0.53111  0.12255  1.0000
  N   N17       1.0  0.18007  0.05060  0.42195  1.0000
  N   N18       1.0  0.81994  0.44941  0.92195  1.0000
  N   N19       1.0  0.81994  0.94940  0.57805  1.0000
  N   N20       1.0  0.18005  0.55060  0.07805  1.0000
  Cl  Cl1       1.0  0.12880  0.21184  0.67111  1.0000
  Cl  Cl2       1.0  0.87118  0.28816  0.17111  1.0000
  Cl  Cl3       1.0  0.87120  0.78817  0.32889  1.0000
  Cl  Cl4       1.0  0.12881  0.71183  0.82889  1.0000
  Cl  Cl5       1.0  0.07438  0.52374  0.62813  1.0000
  Cl  Cl6       1.0  0.92561  0.97626  0.12813  1.0000
  Cl  Cl7       1.0  0.92562  0.47627  0.37187  1.0000
  Cl  Cl8       1.0  0.07438  0.02373  0.87187  1.0000
