data_image0
_chemical_formula_structural       Zn4H36C48Br8N20
_chemical_formula_sum              "Zn4 H36 C48 Br8 N20"
_cell_length_a       5.49316
_cell_length_b       11.8287
_cell_length_c       22.1244
_cell_angle_alpha    88.8122
_cell_angle_beta     89.9998
_cell_angle_gamma    89.9995

_space_group_name_H-M_alt    "P 1"
_space_group_IT_number       1

loop_
  _space_group_symop_operation_xyz
  'x, y, z'

loop_
  _atom_site_type_symbol
  _atom_site_label
  _atom_site_symmetry_multiplicity
  _atom_site_fract_x
  _atom_site_fract_y
  _atom_site_fract_z
  _atom_site_occupancy
  Zn  Zn1       1.0  0.09850  0.70574  0.62591  1.0000
  Zn  Zn2       1.0  0.59849  0.29426  0.87409  1.0000
  Zn  Zn3       1.0  0.90147  0.29429  0.37408  1.0000
  Zn  Zn4       1.0  0.40147  0.70572  0.12592  1.0000
  H   H1        1.0  0.95626  0.97943  0.36848  1.0000
  H   H2        1.0  0.45624  0.02058  0.13152  1.0000
  H   H3        1.0  0.04369  0.02060  0.63152  1.0000
  H   H4        1.0  0.54371  0.97940  0.86848  1.0000
  H   H5        1.0  0.98179  0.89711  0.54308  1.0000
  H   H6        1.0  0.48179  0.10288  0.95691  1.0000
  H   H7        1.0  0.01821  0.10295  0.45691  1.0000
  H   H8        1.0  0.51821  0.89706  0.04308  1.0000
  H   H9        1.0  0.66477  0.94823  0.46663  1.0000
  H   H10       1.0  0.16478  0.05176  0.03337  1.0000
  H   H11       1.0  0.33523  0.05182  0.53336  1.0000
  H   H12       1.0  0.83525  0.94818  0.96664  1.0000
  H   H13       1.0  0.41870  0.60185  0.47716  1.0000
  H   H14       1.0  0.91868  0.39813  0.02283  1.0000
  H   H15       1.0  0.58133  0.39819  0.52281  1.0000
  H   H16       1.0  0.08136  0.60182  0.97719  1.0000
  H   H17       1.0  0.74120  0.56580  0.55570  1.0000
  H   H18       1.0  0.24118  0.43419  0.94430  1.0000
  H   H19       1.0  0.25879  0.43424  0.44429  1.0000
  H   H20       1.0  0.75883  0.56576  0.05571  1.0000
  H   H21       1.0  0.09948  0.62740  0.27719  1.0000
  H   H22       1.0  0.59945  0.37261  0.22280  1.0000
  H   H23       1.0  0.90052  0.37263  0.72281  1.0000
  H   H24       1.0  0.40054  0.62737  0.77719  1.0000
  H   H25       1.0  0.83148  0.59156  0.18868  1.0000
  H   H26       1.0  0.33146  0.40844  0.31132  1.0000
  H   H27       1.0  0.16851  0.40844  0.81133  1.0000
  H   H28       1.0  0.66852  0.59155  0.68867  1.0000
  H   H29       1.0  0.39457  0.86721  0.22664  1.0000
  H   H30       1.0  0.89459  0.13279  0.27337  1.0000
  H   H31       1.0  0.60542  0.13281  0.77335  1.0000
  H   H32       1.0  0.10542  0.86719  0.72664  1.0000
  H   H33       1.0  0.64224  0.91555  0.31634  1.0000
  H   H34       1.0  0.14225  0.08446  0.18367  1.0000
  H   H35       1.0  0.35776  0.08450  0.68364  1.0000
  H   H36       1.0  0.85777  0.91550  0.81636  1.0000
  C   C1        1.0  0.85273  0.83452  0.52743  1.0000
  C   C2        1.0  0.35272  0.16548  0.97256  1.0000
  C   C3        1.0  0.14729  0.16554  0.47256  1.0000
  C   C4        1.0  0.64729  0.83447  0.02744  1.0000
  C   C5        1.0  0.67799  0.86202  0.48459  1.0000
  C   C6        1.0  0.17797  0.13797  0.01541  1.0000
  C   C7        1.0  0.32206  0.13803  0.51540  1.0000
  C   C8        1.0  0.82209  0.86198  0.98461  1.0000
  C   C9        1.0  0.51653  0.77833  0.46551  1.0000
  C   C10       1.0  0.01652  0.22166  0.03449  1.0000
  C   C11       1.0  0.48348  0.22172  0.53449  1.0000
  C   C12       1.0  0.98352  0.77828  0.96552  1.0000
  C   C13       1.0  0.54149  0.66905  0.49035  1.0000
  C   C14       1.0  0.04148  0.33093  0.00965  1.0000
  C   C15       1.0  0.45850  0.33100  0.50965  1.0000
  C   C16       1.0  0.95850  0.66900  0.99036  1.0000
  C   C17       1.0  0.71937  0.64866  0.53390  1.0000
  C   C18       1.0  0.21936  0.35133  0.96610  1.0000
  C   C19       1.0  0.28064  0.35138  0.46609  1.0000
  C   C20       1.0  0.78065  0.64862  0.03391  1.0000
  C   C21       1.0  0.32349  0.80868  0.42259  1.0000
  C   C22       1.0  0.82348  0.19131  0.07741  1.0000
  C   C23       1.0  0.67654  0.19137  0.57739  1.0000
  C   C24       1.0  0.17658  0.80863  0.92261  1.0000
  C   C25       1.0  0.05535  0.80418  0.35379  1.0000
  C   C26       1.0  0.55535  0.19582  0.14621  1.0000
  C   C27       1.0  0.94462  0.19586  0.64620  1.0000
  C   C28       1.0  0.44466  0.80414  0.85380  1.0000
  C   C29       1.0  0.89627  0.77553  0.30376  1.0000
  C   C30       1.0  0.39626  0.22447  0.19624  1.0000
  C   C31       1.0  0.10371  0.22451  0.69622  1.0000
  C   C32       1.0  0.60374  0.77548  0.80378  1.0000
  C   C33       1.0  0.94465  0.68227  0.26761  1.0000
  C   C34       1.0  0.44463  0.31773  0.23239  1.0000
  C   C35       1.0  0.05534  0.31775  0.73240  1.0000
  C   C36       1.0  0.55537  0.68224  0.76761  1.0000
  C   C37       1.0  0.79474  0.66200  0.21839  1.0000
  C   C38       1.0  0.29473  0.33800  0.28161  1.0000
  C   C39       1.0  0.20525  0.33801  0.78161  1.0000
  C   C40       1.0  0.70526  0.66198  0.71839  1.0000
  C   C41       1.0  0.55339  0.81694  0.23962  1.0000
  C   C42       1.0  0.05339  0.18306  0.26038  1.0000
  C   C43       1.0  0.44660  0.18307  0.76036  1.0000
  C   C44       1.0  0.94661  0.81692  0.73963  1.0000
  C   C45       1.0  0.69356  0.84313  0.28934  1.0000
  C   C46       1.0  0.19356  0.15688  0.21067  1.0000
  C   C47       1.0  0.30643  0.15691  0.71064  1.0000
  C   C48       1.0  0.80645  0.84308  0.78936  1.0000
  Br  Br1       1.0  0.35736  0.87233  0.62707  1.0000
  Br  Br2       1.0  0.85738  0.12767  0.87292  1.0000
  Br  Br3       1.0  0.64265  0.12769  0.37294  1.0000
  Br  Br4       1.0  0.14266  0.87230  0.12706  1.0000
  Br  Br5       1.0  0.24550  0.51897  0.62639  1.0000
  Br  Br6       1.0  0.74541  0.48103  0.87363  1.0000
  Br  Br7       1.0  0.75453  0.48105  0.37359  1.0000
  Br  Br8       1.0  0.25454  0.51896  0.12640  1.0000
  N   N1        1.0  0.87210  0.73018  0.55255  1.0000
  N   N2        1.0  0.37211  0.26981  0.94744  1.0000
  N   N3        1.0  0.12787  0.26986  0.44744  1.0000
  N   N4        1.0  0.62788  0.73015  0.05256  1.0000
  N   N5        1.0  0.60346  0.72875  0.20410  1.0000
  N   N6        1.0  0.10346  0.27126  0.29591  1.0000
  N   N7        1.0  0.39652  0.27126  0.79590  1.0000
  N   N8        1.0  0.89652  0.72874  0.70410  1.0000
  N   N9        1.0  0.21894  0.73815  0.38200  1.0000
  N   N10       1.0  0.71894  0.26185  0.11799  1.0000
  N   N11       1.0  0.78108  0.26190  0.61798  1.0000
  N   N12       1.0  0.28111  0.73810  0.88203  1.0000
  N   N13       1.0  0.06521  0.90997  0.37721  1.0000
  N   N14       1.0  0.56520  0.09004  0.12279  1.0000
  N   N15       1.0  0.93474  0.09008  0.62278  1.0000
  N   N16       1.0  0.43477  0.90992  0.87722  1.0000
  N   N17       1.0  0.23356  0.91466  0.42091  1.0000
  N   N18       1.0  0.73353  0.08533  0.07909  1.0000
  N   N19       1.0  0.76646  0.08538  0.57908  1.0000
  N   N20       1.0  0.26648  0.91462  0.92093  1.0000
