data_image0
_chemical_formula_structural       Li4H12C4N24O12
_chemical_formula_sum              "Li4 H12 C4 N24 O12"
_cell_length_a       6.69425
_cell_length_b       8.40132
_cell_length_c       10.1497
_cell_angle_alpha    90.0001
_cell_angle_beta     90.0001
_cell_angle_gamma    109.221

_space_group_name_H-M_alt    "P 1"
_space_group_IT_number       1

loop_
  _space_group_symop_operation_xyz
  'x, y, z'

loop_
  _atom_site_type_symbol
  _atom_site_label
  _atom_site_symmetry_multiplicity
  _atom_site_fract_x
  _atom_site_fract_y
  _atom_site_fract_z
  _atom_site_occupancy
  Li  Li1       1.0  0.73918  0.08872  0.28868  1.0000
  Li  Li2       1.0  0.76082  0.91128  0.78868  1.0000
  Li  Li3       1.0  0.26082  0.91128  0.71132  1.0000
  Li  Li4       1.0  0.23918  0.08872  0.21132  1.0000
  H   H1        1.0  0.73470  0.51713  0.63967  1.0000
  H   H2        1.0  0.76529  0.48288  0.13967  1.0000
  H   H3        1.0  0.26530  0.48288  0.36033  1.0000
  H   H4        1.0  0.23470  0.51712  0.86033  1.0000
  H   H5        1.0  0.37667  0.86301  0.23145  1.0000
  H   H6        1.0  0.12333  0.13699  0.73145  1.0000
  H   H7        1.0  0.62333  0.13699  0.76854  1.0000
  H   H8        1.0  0.87667  0.86301  0.26855  1.0000
  H   H9        1.0  0.36747  0.93090  0.37593  1.0000
  H   H10       1.0  0.13253  0.06910  0.87593  1.0000
  H   H11       1.0  0.63253  0.06910  0.62407  1.0000
  H   H12       1.0  0.86747  0.93090  0.12407  1.0000
  C   C1        1.0  0.76612  0.57114  0.42748  1.0000
  C   C2        1.0  0.73388  0.42887  0.92748  1.0000
  C   C3        1.0  0.23388  0.42887  0.57252  1.0000
  C   C4        1.0  0.26612  0.57113  0.07252  1.0000
  N   N1        1.0  0.74410  0.48178  0.54173  1.0000
  N   N2        1.0  0.75590  0.51822  0.04173  1.0000
  N   N3        1.0  0.25590  0.51822  0.45827  1.0000
  N   N4        1.0  0.24410  0.48178  0.95827  1.0000
  N   N5        1.0  0.74157  0.32459  0.51290  1.0000
  N   N6        1.0  0.75843  0.67541  0.01290  1.0000
  N   N7        1.0  0.25843  0.67541  0.48710  1.0000
  N   N8        1.0  0.24157  0.32459  0.98710  1.0000
  N   N9        1.0  0.76074  0.31844  0.38546  1.0000
  N   N10       1.0  0.73926  0.68156  0.88546  1.0000
  N   N11       1.0  0.23926  0.68156  0.61454  1.0000
  N   N12       1.0  0.26074  0.31844  0.11454  1.0000
  N   N13       1.0  0.77599  0.46703  0.32847  1.0000
  N   N14       1.0  0.72401  0.53297  0.82846  1.0000
  N   N15       1.0  0.22401  0.53297  0.67153  1.0000
  N   N16       1.0  0.27599  0.46703  0.17153  1.0000
  N   N17       1.0  0.77623  0.73265  0.40169  1.0000
  N   N18       1.0  0.72376  0.26735  0.90169  1.0000
  N   N19       1.0  0.22377  0.26735  0.59831  1.0000
  N   N20       1.0  0.27623  0.73265  0.09831  1.0000
  N   N21       1.0  0.76312  0.82851  0.50262  1.0000
  N   N22       1.0  0.73688  0.17149  0.00262  1.0000
  N   N23       1.0  0.23688  0.17149  0.49738  1.0000
  N   N24       1.0  0.26312  0.82851  0.99738  1.0000
  O   O1        1.0  0.74438  0.77412  0.61963  1.0000
  O   O2        1.0  0.75562  0.22588  0.11964  1.0000
  O   O3        1.0  0.25562  0.22588  0.38036  1.0000
  O   O4        1.0  0.24438  0.77412  0.88037  1.0000
  O   O5        1.0  0.76995  0.97760  0.47700  1.0000
  O   O6        1.0  0.73005  0.02240  0.97700  1.0000
  O   O7        1.0  0.23005  0.02240  0.52300  1.0000
  O   O8        1.0  0.26995  0.97760  0.02300  1.0000
  O   O9        1.0  0.42821  0.96583  0.28823  1.0000
  O   O10       1.0  0.07179  0.03417  0.78823  1.0000
  O   O11       1.0  0.57179  0.03417  0.71177  1.0000
  O   O12       1.0  0.92821  0.96583  0.21177  1.0000
