data_image0
_chemical_formula_structural       Cd4P2H40C42N2O24
_chemical_formula_sum              "Cd4 P2 H40 C42 N2 O24"
_cell_length_a       7.02652
_cell_length_b       13.635
_cell_length_c       14.4453
_cell_angle_alpha    117.364
_cell_angle_beta     97.2408
_cell_angle_gamma    97.8529

_space_group_name_H-M_alt    "P 1"
_space_group_IT_number       1

loop_
  _space_group_symop_operation_xyz
  'x, y, z'

loop_
  _atom_site_type_symbol
  _atom_site_label
  _atom_site_symmetry_multiplicity
  _atom_site_fract_x
  _atom_site_fract_y
  _atom_site_fract_z
  _atom_site_occupancy
  Cd  Cd1       1.0  0.64811  0.41058  0.01851  1.0000
  Cd  Cd2       1.0  0.35189  0.58942  0.98149  1.0000
  Cd  Cd3       1.0  0.09904  0.60229  0.21318  1.0000
  Cd  Cd4       1.0  0.90096  0.39771  0.78682  1.0000
  P   P1        1.0  0.12221  0.35757  0.98256  1.0000
  P   P2        1.0  0.87779  0.64243  0.01744  1.0000
  H   H1        1.0  0.01473  0.29911  0.13867  1.0000
  H   H2        1.0  0.98527  0.70089  0.86133  1.0000
  H   H3        1.0  0.32063  0.29864  0.08775  1.0000
  H   H4        1.0  0.67937  0.70136  0.91225  1.0000
  H   H5        1.0  0.21141  0.18083  0.95949  1.0000
  H   H6        1.0  0.78858  0.81917  0.04051  1.0000
  H   H7        1.0  0.87806  0.08359  0.92796  1.0000
  H   H8        1.0  0.12195  0.91641  0.07204  1.0000
  H   H9        1.0  0.78716  0.20835  0.96201  1.0000
  H   H10       1.0  0.21284  0.79165  0.03799  1.0000
  H   H11       1.0  0.22668  0.21291  0.19049  1.0000
  H   H12       1.0  0.77332  0.78709  0.80951  1.0000
  H   H13       1.0  0.14626  0.08439  0.06464  1.0000
  H   H14       1.0  0.85375  0.91561  0.93537  1.0000
  H   H15       1.0  0.90062  0.19316  0.23342  1.0000
  H   H16       1.0  0.09938  0.80684  0.76658  1.0000
  H   H17       1.0  0.98293  0.06507  0.20255  1.0000
  H   H18       1.0  0.01708  0.93493  0.79745  1.0000
  H   H19       1.0  0.57237  0.30805  0.29007  1.0000
  H   H20       1.0  0.42763  0.69195  0.70993  1.0000
  H   H21       1.0  0.62061  0.33246  0.47581  1.0000
  H   H22       1.0  0.37940  0.66754  0.52420  1.0000
  H   H23       1.0  0.85568  0.65713  0.41783  1.0000
  H   H24       1.0  0.14431  0.34287  0.58217  1.0000
  H   H25       1.0  0.90510  0.68029  0.60254  1.0000
  H   H26       1.0  0.09489  0.31972  0.39746  1.0000
  H   H27       1.0  0.43819  0.25511  0.62822  1.0000
  H   H28       1.0  0.56181  0.74489  0.37178  1.0000
  H   H29       1.0  0.37395  0.01727  0.74588  1.0000
  H   H30       1.0  0.62606  0.98273  0.25411  1.0000
  H   H31       1.0  0.26996  0.10041  0.44422  1.0000
  H   H32       1.0  0.73004  0.89960  0.55578  1.0000
  H   H33       1.0  0.55823  0.06639  0.98166  1.0000
  H   H34       1.0  0.44177  0.93361  0.01834  1.0000
  H   H35       1.0  0.65323  0.19343  0.10603  1.0000
  H   H36       1.0  0.34677  0.80657  0.89397  1.0000
  H   H37       1.0  0.21408  0.86063  0.55988  1.0000
  H   H38       1.0  0.78593  0.13937  0.44011  1.0000
  H   H39       1.0  0.05233  0.82642  0.23470  1.0000
  H   H40       1.0  0.94767  0.17358  0.76530  1.0000
  C   C1        1.0  0.18443  0.25623  0.02580  1.0000
  C   C2        1.0  0.81557  0.74376  0.97420  1.0000
  C   C3        1.0  0.84241  0.15617  0.99372  1.0000
  C   C4        1.0  0.15760  0.84382  0.00629  1.0000
  C   C5        1.0  0.10005  0.15612  0.12568  1.0000
  C   C6        1.0  0.89995  0.84388  0.87432  1.0000
  C   C7        1.0  0.93577  0.11816  0.16940  1.0000
  C   C8        1.0  0.06424  0.88184  0.83061  1.0000
  C   C9        1.0  0.71085  0.48111  0.34333  1.0000
  C   C10       1.0  0.28915  0.51889  0.65667  1.0000
  C   C11       1.0  0.69665  0.46427  0.23316  1.0000
  C   C12       1.0  0.30334  0.53573  0.76684  1.0000
  C   C13       1.0  0.64271  0.38974  0.35946  1.0000
  C   C14       1.0  0.35729  0.61026  0.64055  1.0000
  C   C15       1.0  0.66958  0.40287  0.46178  1.0000
  C   C16       1.0  0.33041  0.59713  0.53822  1.0000
  C   C17       1.0  0.80184  0.58694  0.43129  1.0000
  C   C18       1.0  0.19815  0.41306  0.56871  1.0000
  C   C19       1.0  0.82903  0.59964  0.53354  1.0000
  C   C20       1.0  0.17097  0.40036  0.46646  1.0000
  C   C21       1.0  0.76562  0.50782  0.54966  1.0000
  C   C22       1.0  0.23438  0.49218  0.45034  1.0000
  C   C23       1.0  0.81232  0.51982  0.65927  1.0000
  C   C24       1.0  0.18768  0.48018  0.34073  1.0000
  C   C25       1.0  0.51538  0.23602  0.80762  1.0000
  C   C26       1.0  0.48462  0.76398  0.19238  1.0000
  C   C27       1.0  0.41654  0.14462  0.69729  1.0000
  C   C28       1.0  0.58346  0.85538  0.30271  1.0000
  C   C29       1.0  0.38708  0.16871  0.61272  1.0000
  C   C30       1.0  0.61292  0.83129  0.38728  1.0000
  C   C31       1.0  0.35135  0.03381  0.67876  1.0000
  C   C32       1.0  0.64866  0.96619  0.32123  1.0000
  C   C33       1.0  0.29365  0.08251  0.51039  1.0000
  C   C34       1.0  0.70635  0.91750  0.48961  1.0000
  C   C35       1.0  0.69131  0.11871  0.04342  1.0000
  C   C36       1.0  0.30869  0.88129  0.95658  1.0000
  C   C37       1.0  0.23248  0.97146  0.49160  1.0000
  C   C38       1.0  0.76752  0.02854  0.50839  1.0000
  C   C39       1.0  0.14366  0.87474  0.38335  1.0000
  C   C40       1.0  0.85635  0.12526  0.61665  1.0000
  C   C41       1.0  0.26186  0.94770  0.57659  1.0000
  C   C42       1.0  0.73815  0.05230  0.42341  1.0000
  N   N1        1.0  0.03053  0.22221  0.07389  1.0000
  N   N2        1.0  0.96948  0.77779  0.92611  1.0000
  O   O1        1.0  0.99330  0.42555  0.05710  1.0000
  O   O2        1.0  0.00670  0.57445  0.94290  1.0000
  O   O3        1.0  0.00758  0.29223  0.86588  1.0000
  O   O4        1.0  0.99242  0.70777  0.13412  1.0000
  O   O5        1.0  0.32156  0.43131  0.99894  1.0000
  O   O6        1.0  0.67844  0.56869  0.00106  1.0000
  O   O7        1.0  0.60725  0.33151  0.82220  1.0000
  O   O8        1.0  0.39275  0.66849  0.17781  1.0000
  O   O9        1.0  0.60897  0.36727  0.15431  1.0000
  O   O10       1.0  0.39103  0.63272  0.84569  1.0000
  O   O11       1.0  0.77163  0.54555  0.21845  1.0000
  O   O12       1.0  0.22837  0.45444  0.78155  1.0000
  O   O13       1.0  0.76282  0.05142  0.08728  1.0000
  O   O14       1.0  0.23718  0.94858  0.91272  1.0000
  O   O15       1.0  0.92229  0.61154  0.73315  1.0000
  O   O16       1.0  0.07771  0.38846  0.26685  1.0000
  O   O17       1.0  0.50205  0.21739  0.88560  1.0000
  O   O18       1.0  0.49795  0.78261  0.11440  1.0000
  O   O19       1.0  0.74152  0.43376  0.66839  1.0000
  O   O20       1.0  0.25847  0.56623  0.33162  1.0000
  O   O21       1.0  0.10853  0.77619  0.36881  1.0000
  O   O22       1.0  0.89147  0.22382  0.63119  1.0000
  O   O23       1.0  0.10915  0.90040  0.30541  1.0000
  O   O24       1.0  0.89085  0.09960  0.69458  1.0000
