data_image0
_chemical_formula_structural       Mo8H12C8N12O24
_chemical_formula_sum              "Mo8 H12 C8 N12 O24"
_cell_length_a       3.92067
_cell_length_b       13.4489
_cell_length_c       13.9769
_cell_angle_alpha    90
_cell_angle_beta     90.0003
_cell_angle_gamma    90.0029

_space_group_name_H-M_alt    "P 1"
_space_group_IT_number       1

loop_
  _space_group_symop_operation_xyz
  'x, y, z'

loop_
  _atom_site_type_symbol
  _atom_site_label
  _atom_site_symmetry_multiplicity
  _atom_site_fract_x
  _atom_site_fract_y
  _atom_site_fract_z
  _atom_site_occupancy
  Mo  Mo1       1.0  0.67893  0.11296  0.67139  1.0000
  Mo  Mo2       1.0  0.32064  0.61321  0.32860  1.0000
  Mo  Mo3       1.0  0.67824  0.88644  0.82939  1.0000
  Mo  Mo4       1.0  0.32138  0.38667  0.17067  1.0000
  Mo  Mo5       1.0  0.32138  0.88667  0.32933  1.0000
  Mo  Mo6       1.0  0.67824  0.38644  0.67061  1.0000
  Mo  Mo7       1.0  0.32064  0.11321  0.17141  1.0000
  Mo  Mo8       1.0  0.67893  0.61296  0.82861  1.0000
  H   H1        1.0  0.87531  0.09260  0.92886  1.0000
  H   H2        1.0  0.12459  0.59276  0.07114  1.0000
  H   H3        1.0  0.87484  0.90777  0.57203  1.0000
  H   H4        1.0  0.12630  0.40794  0.42816  1.0000
  H   H5        1.0  0.12633  0.90794  0.07184  1.0000
  H   H6        1.0  0.87485  0.40777  0.92798  1.0000
  H   H7        1.0  0.12461  0.09276  0.42886  1.0000
  H   H8        1.0  0.87533  0.59260  0.57114  1.0000
  H   H9        1.0  0.00893  0.25039  0.02907  1.0000
  H   H10       1.0  0.99190  0.75047  0.97083  1.0000
  H   H11       1.0  0.00895  0.75039  0.47093  1.0000
  H   H12       1.0  0.99189  0.25047  0.52917  1.0000
  C   C1        1.0  0.85065  0.16898  0.90451  1.0000
  C   C2        1.0  0.14942  0.66914  0.09545  1.0000
  C   C3        1.0  0.85054  0.83121  0.59591  1.0000
  C   C4        1.0  0.15020  0.33139  0.40423  1.0000
  C   C5        1.0  0.15021  0.83138  0.09577  1.0000
  C   C6        1.0  0.85054  0.33121  0.90409  1.0000
  C   C7        1.0  0.14942  0.16914  0.40455  1.0000
  C   C8        1.0  0.85067  0.66898  0.59548  1.0000
  N   N1        1.0  0.75648  0.19876  0.81831  1.0000
  N   N2        1.0  0.24322  0.69896  0.18167  1.0000
  N   N3        1.0  0.75631  0.80096  0.68197  1.0000
  N   N4        1.0  0.24377  0.30117  0.31811  1.0000
  N   N5        1.0  0.24378  0.80117  0.18189  1.0000
  N   N6        1.0  0.75632  0.30096  0.81803  1.0000
  N   N7        1.0  0.24323  0.19896  0.31833  1.0000
  N   N8        1.0  0.75648  0.69876  0.68169  1.0000
  N   N9        1.0  0.91102  0.25026  0.95964  1.0000
  N   N10       1.0  0.08971  0.75041  0.04025  1.0000
  N   N11       1.0  0.91103  0.75026  0.54036  1.0000
  N   N12       1.0  0.08969  0.25041  0.45976  1.0000
  O   O1        1.0  0.23443  0.12121  0.68557  1.0000
  O   O2        1.0  0.76513  0.62153  0.31442  1.0000
  O   O3        1.0  0.23385  0.87825  0.81519  1.0000
  O   O4        1.0  0.76577  0.37853  0.18493  1.0000
  O   O5        1.0  0.76577  0.87853  0.31507  1.0000
  O   O6        1.0  0.23385  0.37825  0.68481  1.0000
  O   O7        1.0  0.76513  0.12153  0.18559  1.0000
  O   O8        1.0  0.23443  0.62121  0.81443  1.0000
  O   O9        1.0  0.73218  0.06254  0.55990  1.0000
  O   O10       1.0  0.26750  0.56279  0.44009  1.0000
  O   O11       1.0  0.73121  0.93646  0.94107  1.0000
  O   O12       1.0  0.26854  0.43667  0.05897  1.0000
  O   O13       1.0  0.26854  0.93667  0.44103  1.0000
  O   O14       1.0  0.73121  0.43646  0.55893  1.0000
  O   O15       1.0  0.26750  0.06279  0.05991  1.0000
  O   O16       1.0  0.73218  0.56254  0.94009  1.0000
  O   O17       1.0  0.74976  0.24963  0.63221  1.0000
  O   O18       1.0  0.24974  0.74990  0.36777  1.0000
  O   O19       1.0  0.74976  0.74963  0.86779  1.0000
  O   O20       1.0  0.24973  0.24990  0.13223  1.0000
  O   O21       1.0  0.74498  0.99988  0.75063  1.0000
  O   O22       1.0  0.25445  0.50015  0.24940  1.0000
  O   O23       1.0  0.25447  0.00015  0.25060  1.0000
  O   O24       1.0  0.74499  0.49988  0.74937  1.0000
