data_image0
_chemical_formula_structural       Cu2H22C18N4Cl2O4
_chemical_formula_sum              "Cu2 H22 C18 N4 Cl2 O4"
_cell_length_a       4.8686
_cell_length_b       5.68941
_cell_length_c       19.4014
_cell_angle_alpha    90.0009
_cell_angle_beta     89.9995
_cell_angle_gamma    103.083

_space_group_name_H-M_alt    "P 1"
_space_group_IT_number       1

loop_
  _space_group_symop_operation_xyz
  'x, y, z'

loop_
  _atom_site_type_symbol
  _atom_site_label
  _atom_site_symmetry_multiplicity
  _atom_site_fract_x
  _atom_site_fract_y
  _atom_site_fract_z
  _atom_site_occupancy
  Cu  Cu1       1.0  0.70095  0.46065  0.80656  1.0000
  Cu  Cu2       1.0  0.29904  0.53934  0.30656  1.0000
  H   H1        1.0  0.84637  0.75720  0.91595  1.0000
  H   H2        1.0  0.15362  0.24280  0.41595  1.0000
  H   H3        1.0  0.51980  0.48166  0.65678  1.0000
  H   H4        1.0  0.48022  0.51835  0.15678  1.0000
  H   H5        1.0  0.61101  0.26792  0.54744  1.0000
  H   H6        1.0  0.38901  0.73210  0.04744  1.0000
  H   H7        1.0  0.91390  0.97083  0.55392  1.0000
  H   H8        1.0  0.08612  0.02918  0.05392  1.0000
  H   H9        1.0  0.09629  0.87522  0.67111  1.0000
  H   H10       1.0  0.90371  0.12477  0.17111  1.0000
  H   H11       1.0  0.23130  0.11650  0.79541  1.0000
  H   H12       1.0  0.76869  0.88349  0.29541  1.0000
  H   H13       1.0  0.92344  0.88914  0.80539  1.0000
  H   H14       1.0  0.07656  0.11084  0.30539  1.0000
  H   H15       1.0  0.09375  0.52947  0.96375  1.0000
  H   H16       1.0  0.90626  0.47054  0.46376  1.0000
  H   H17       1.0  0.71378  0.52421  0.04740  1.0000
  H   H18       1.0  0.28626  0.47583  0.54739  1.0000
  H   H19       1.0  0.48539  0.28025  0.00257  1.0000
  H   H20       1.0  0.51460  0.71978  0.50255  1.0000
  H   H21       1.0  0.78829  0.23299  0.04691  1.0000
  H   H22       1.0  0.21172  0.76705  0.54691  1.0000
  C   C1        1.0  0.64547  0.34566  0.65602  1.0000
  C   C2        1.0  0.35455  0.65434  0.15601  1.0000
  C   C3        1.0  0.69886  0.22836  0.59656  1.0000
  C   C4        1.0  0.30117  0.77165  0.09656  1.0000
  C   C5        1.0  0.86530  0.05844  0.60095  1.0000
  C   C6        1.0  0.13472  0.94156  0.10095  1.0000
  C   C7        1.0  0.96776  0.00801  0.66483  1.0000
  C   C8        1.0  0.03224  0.99199  0.16482  1.0000
  C   C9        1.0  0.90364  0.12987  0.72308  1.0000
  C   C10       1.0  0.09636  0.87012  0.22307  1.0000
  C   C11       1.0  0.99880  0.08255  0.79394  1.0000
  C   C12       1.0  0.00118  0.91743  0.29394  1.0000
  C   C13       1.0  0.92081  0.21001  0.90965  1.0000
  C   C14       1.0  0.07916  0.78996  0.40964  1.0000
  C   C15       1.0  0.87814  0.42836  0.95103  1.0000
  C   C16       1.0  0.12185  0.57164  0.45103  1.0000
  C   C17       1.0  0.70511  0.36246  0.01606  1.0000
  C   C18       1.0  0.29490  0.63756  0.51605  1.0000
  N   N1        1.0  0.74761  0.29736  0.71762  1.0000
  N   N2        1.0  0.25239  0.70262  0.21762  1.0000
  N   N3        1.0  0.89727  0.23434  0.84250  1.0000
  N   N4        1.0  0.10271  0.76565  0.34249  1.0000
  Cl  Cl1       1.0  0.39661  0.67171  0.77261  1.0000
  Cl  Cl2       1.0  0.60337  0.32827  0.27262  1.0000
  O   O1        1.0  0.98904  0.03363  0.94037  1.0000
  O   O2        1.0  0.01093  0.96635  0.44037  1.0000
  O   O3        1.0  0.74898  0.58104  0.90773  1.0000
  O   O4        1.0  0.25100  0.41895  0.40772  1.0000
