data_image0
_chemical_formula_structural       Cd2H48C52N16Cl4
_chemical_formula_sum              "Cd2 H48 C52 N16 Cl4"
_cell_length_a       8.81074
_cell_length_b       12.7357
_cell_length_c       14.0714
_cell_angle_alpha    63.4448
_cell_angle_beta     80.3495
_cell_angle_gamma    71.4218

_space_group_name_H-M_alt    "P 1"
_space_group_IT_number       1

loop_
  _space_group_symop_operation_xyz
  'x, y, z'

loop_
  _atom_site_type_symbol
  _atom_site_label
  _atom_site_symmetry_multiplicity
  _atom_site_fract_x
  _atom_site_fract_y
  _atom_site_fract_z
  _atom_site_occupancy
  Cd  Cd1       1.0  0.26021  0.44104  0.25310  1.0000
  Cd  Cd2       1.0  0.73979  0.55895  0.74690  1.0000
  H   H1        1.0  0.34321  0.02554  0.04941  1.0000
  H   H2        1.0  0.65679  0.97446  0.95059  1.0000
  H   H3        1.0  0.22373  0.22199  0.06607  1.0000
  H   H4        1.0  0.77628  0.77801  0.93394  1.0000
  H   H5        1.0  0.80198  0.10786  0.21716  1.0000
  H   H6        1.0  0.19803  0.89213  0.78286  1.0000
  H   H7        1.0  0.91690  0.91414  0.19590  1.0000
  H   H8        1.0  0.08310  0.08586  0.80410  1.0000
  H   H9        1.0  0.10793  0.71950  0.25150  1.0000
  H   H10       1.0  0.89206  0.28050  0.74850  1.0000
  H   H11       1.0  0.43614  0.65455  0.01578  1.0000
  H   H12       1.0  0.56386  0.34545  0.98422  1.0000
  H   H13       1.0  0.35061  0.90207  0.96669  1.0000
  H   H14       1.0  0.64939  0.09792  0.03331  1.0000
  H   H15       1.0  0.02879  0.32397  0.17245  1.0000
  H   H16       1.0  0.97121  0.67603  0.82756  1.0000
  H   H17       1.0  0.90079  0.37317  0.06815  1.0000
  H   H18       1.0  0.09923  0.62682  0.93186  1.0000
  H   H19       1.0  0.61425  0.41250  0.09890  1.0000
  H   H20       1.0  0.38576  0.58750  0.90110  1.0000
  H   H21       1.0  0.57259  0.27944  0.43258  1.0000
  H   H22       1.0  0.42741  0.72056  0.56742  1.0000
  H   H23       1.0  0.89779  0.21744  0.37148  1.0000
  H   H24       1.0  0.10221  0.78256  0.62853  1.0000
  H   H25       1.0  0.15080  0.87374  0.41160  1.0000
  H   H26       1.0  0.84920  0.12626  0.58840  1.0000
  H   H27       1.0  0.27489  0.67330  0.39957  1.0000
  H   H28       1.0  0.72511  0.32670  0.60043  1.0000
  H   H29       1.0  0.71630  0.77053  0.28370  1.0000
  H   H30       1.0  0.28370  0.22948  0.71629  1.0000
  H   H31       1.0  0.59653  0.96679  0.30184  1.0000
  H   H32       1.0  0.40346  0.03322  0.69815  1.0000
  H   H33       1.0  0.36905  0.17529  0.22543  1.0000
  H   H34       1.0  0.63094  0.82471  0.77457  1.0000
  H   H35       1.0  0.13339  0.21532  0.49773  1.0000
  H   H36       1.0  0.86662  0.78468  0.50228  1.0000
  H   H37       1.0  0.20319  0.96928  0.53392  1.0000
  H   H38       1.0  0.79681  0.03072  0.46608  1.0000
  H   H39       1.0  0.60713  0.51948  0.42832  1.0000
  H   H40       1.0  0.39287  0.48053  0.57167  1.0000
  H   H41       1.0  0.49120  0.55336  0.32178  1.0000
  H   H42       1.0  0.50880  0.44665  0.67821  1.0000
  H   H43       1.0  0.90237  0.49077  0.40166  1.0000
  H   H44       1.0  0.09762  0.50924  0.59834  1.0000
  H   H45       1.0  0.95484  0.57857  0.07315  1.0000
  H   H46       1.0  0.04517  0.42142  0.92685  1.0000
  H   H47       1.0  0.63030  0.64294  0.12611  1.0000
  H   H48       1.0  0.36971  0.35706  0.87388  1.0000
  C   C1        1.0  0.13709  0.95785  0.12100  1.0000
  C   C2        1.0  0.86292  0.04215  0.87901  1.0000
  C   C3        1.0  0.22311  0.04476  0.08419  1.0000
  C   C4        1.0  0.77689  0.95524  0.91581  1.0000
  C   C5        1.0  0.15684  0.15402  0.09449  1.0000
  C   C6        1.0  0.84316  0.84597  0.90552  1.0000
  C   C7        1.0  0.00481  0.17822  0.14258  1.0000
  C   C8        1.0  0.99520  0.82177  0.85743  1.0000
  C   C9        1.0  0.92083  0.09006  0.18024  1.0000
  C   C10       1.0  0.07918  0.90994  0.81978  1.0000
  C   C11       1.0  0.98535  0.98076  0.16901  1.0000
  C   C12       1.0  0.01466  0.01924  0.83099  1.0000
  C   C13       1.0  0.18322  0.73470  0.17997  1.0000
  C   C14       1.0  0.81678  0.26530  0.82002  1.0000
  C   C15       1.0  0.35369  0.70472  0.05769  1.0000
  C   C16       1.0  0.64631  0.29527  0.94231  1.0000
  C   C17       1.0  0.31530  0.82722  0.03291  1.0000
  C   C18       1.0  0.68470  0.17278  0.96710  1.0000
  C   C19       1.0  0.93692  0.30052  0.14767  1.0000
  C   C20       1.0  0.06309  0.69948  0.85234  1.0000
  C   C21       1.0  0.64280  0.36506  0.18242  1.0000
  C   C22       1.0  0.35721  0.63494  0.81758  1.0000
  C   C23       1.0  0.62952  0.29508  0.35479  1.0000
  C   C24       1.0  0.37047  0.70492  0.64521  1.0000
  C   C25       1.0  0.78927  0.26335  0.32625  1.0000
  C   C26       1.0  0.21073  0.73665  0.67375  1.0000
  C   C27       1.0  0.36728  0.93095  0.35842  1.0000
  C   C28       1.0  0.63272  0.06905  0.64158  1.0000
  C   C29       1.0  0.27510  0.85005  0.38440  1.0000
  C   C30       1.0  0.72490  0.14995  0.61560  1.0000
  C   C31       1.0  0.34369  0.73938  0.37647  1.0000
  C   C32       1.0  0.65631  0.26063  0.62352  1.0000
  C   C33       1.0  0.50327  0.70941  0.34099  1.0000
  C   C34       1.0  0.49672  0.29059  0.65900  1.0000
  C   C35       1.0  0.59182  0.79367  0.31070  1.0000
  C   C36       1.0  0.40817  0.20634  0.68930  1.0000
  C   C37       1.0  0.52507  0.90382  0.31996  1.0000
  C   C38       1.0  0.47493  0.09619  0.68004  1.0000
  C   C39       1.0  0.31508  0.15361  0.30466  1.0000
  C   C40       1.0  0.68492  0.84639  0.69535  1.0000
  C   C41       1.0  0.18971  0.17001  0.44613  1.0000
  C   C42       1.0  0.81030  0.82999  0.55388  1.0000
  C   C43       1.0  0.22197  0.04930  0.46504  1.0000
  C   C44       1.0  0.77803  0.95070  0.53496  1.0000
  C   C45       1.0  0.57717  0.58302  0.34536  1.0000
  C   C46       1.0  0.42283  0.41698  0.65463  1.0000
  C   C47       1.0  0.87584  0.52124  0.31917  1.0000
  C   C48       1.0  0.12415  0.47877  0.68082  1.0000
  C   C49       1.0  0.89604  0.57205  0.14876  1.0000
  C   C50       1.0  0.10397  0.42794  0.85123  1.0000
  C   C51       1.0  0.73544  0.60379  0.17373  1.0000
  C   C52       1.0  0.26456  0.39621  0.82626  1.0000
  N   N1        1.0  0.20569  0.84599  0.11102  1.0000
  N   N2        1.0  0.79431  0.15401  0.88898  1.0000
  N   N3        1.0  0.27130  0.64844  0.14984  1.0000
  N   N4        1.0  0.72870  0.35156  0.85016  1.0000
  N   N5        1.0  0.79525  0.30873  0.21650  1.0000
  N   N6        1.0  0.20475  0.69127  0.78350  1.0000
  N   N7        1.0  0.54013  0.35833  0.26434  1.0000
  N   N8        1.0  0.45987  0.64167  0.73566  1.0000
  N   N9        1.0  0.30247  0.03995  0.37414  1.0000
  N   N10       1.0  0.69753  0.96005  0.62586  1.0000
  N   N11       1.0  0.24722  0.23357  0.34588  1.0000
  N   N12       1.0  0.75278  0.76643  0.65412  1.0000
  N   N13       1.0  0.72447  0.57034  0.28205  1.0000
  N   N14       1.0  0.27553  0.42966  0.71793  1.0000
  N   N15       1.0  0.98193  0.52084  0.23982  1.0000
  N   N16       1.0  0.01807  0.47916  0.76018  1.0000
  Cl  Cl1       1.0  0.28768  0.41640  0.07118  1.0000
  Cl  Cl2       1.0  0.71232  0.58360  0.92882  1.0000
  Cl  Cl3       1.0  0.23297  0.46213  0.43209  1.0000
  Cl  Cl4       1.0  0.76701  0.53788  0.56790  1.0000
