data_image0
_chemical_formula_structural       Cd4H20C40N8O28
_chemical_formula_sum              "Cd4 H20 C40 N8 O28"
_cell_length_a       7.4831
_cell_length_b       11.9194
_cell_length_c       13.2098
_cell_angle_alpha    89.9996
_cell_angle_beta     90.0009
_cell_angle_gamma    89.0725

_space_group_name_H-M_alt    "P 1"
_space_group_IT_number       1

loop_
  _space_group_symop_operation_xyz
  'x, y, z'

loop_
  _atom_site_type_symbol
  _atom_site_label
  _atom_site_symmetry_multiplicity
  _atom_site_fract_x
  _atom_site_fract_y
  _atom_site_fract_z
  _atom_site_occupancy
  Cd  Cd1       1.0  0.42496  0.67821  0.83122  1.0000
  Cd  Cd2       1.0  0.92497  0.17820  0.66879  1.0000
  Cd  Cd3       1.0  0.57502  0.32182  0.16879  1.0000
  Cd  Cd4       1.0  0.07503  0.82180  0.33121  1.0000
  H   H1        1.0  0.12213  0.78071  0.72574  1.0000
  H   H2        1.0  0.62210  0.28070  0.77427  1.0000
  H   H3        1.0  0.87787  0.21930  0.27428  1.0000
  H   H4        1.0  0.37790  0.71928  0.22572  1.0000
  H   H5        1.0  0.12424  0.82824  0.83946  1.0000
  H   H6        1.0  0.62426  0.32823  0.66055  1.0000
  H   H7        1.0  0.87577  0.17177  0.16056  1.0000
  H   H8        1.0  0.37577  0.67176  0.33944  1.0000
  H   H9        1.0  0.08290  0.69617  0.99738  1.0000
  H   H10       1.0  0.58285  0.19614  0.50261  1.0000
  H   H11       1.0  0.91711  0.30386  0.00264  1.0000
  H   H12       1.0  0.41711  0.80386  0.49738  1.0000
  H   H13       1.0  0.96041  0.58060  0.14216  1.0000
  H   H14       1.0  0.46042  0.08057  0.35781  1.0000
  H   H15       1.0  0.03954  0.41939  0.85782  1.0000
  H   H16       1.0  0.53956  0.91940  0.64218  1.0000
  H   H17       1.0  0.15686  0.41960  0.20613  1.0000
  H   H18       1.0  0.65691  0.91958  0.29385  1.0000
  H   H19       1.0  0.84312  0.58040  0.79385  1.0000
  H   H20       1.0  0.34313  0.08041  0.70615  1.0000
  C   C1        1.0  0.62444  0.87700  0.95189  1.0000
  C   C2        1.0  0.12445  0.37699  0.54811  1.0000
  C   C3        1.0  0.37556  0.12301  0.04811  1.0000
  C   C4        1.0  0.87556  0.62300  0.45189  1.0000
  C   C5        1.0  0.67399  0.88567  0.84403  1.0000
  C   C6        1.0  0.17398  0.38566  0.65597  1.0000
  C   C7        1.0  0.32603  0.11433  0.15597  1.0000
  C   C8        1.0  0.82602  0.61434  0.34403  1.0000
  C   C9        1.0  0.77242  0.98229  0.80727  1.0000
  C   C10       1.0  0.27241  0.48228  0.69274  1.0000
  C   C11       1.0  0.22760  0.01771  0.19273  1.0000
  C   C12       1.0  0.72758  0.51772  0.30727  1.0000
  C   C13       1.0  0.83293  0.06760  0.87923  1.0000
  C   C14       1.0  0.33293  0.56759  0.62078  1.0000
  C   C15       1.0  0.16708  0.93241  0.12077  1.0000
  C   C16       1.0  0.66708  0.43241  0.37923  1.0000
  C   C17       1.0  0.81554  0.04819  0.98909  1.0000
  C   C18       1.0  0.31555  0.54818  0.51091  1.0000
  C   C19       1.0  0.18449  0.95182  0.01091  1.0000
  C   C20       1.0  0.68448  0.45182  0.48909  1.0000
  C   C21       1.0  0.70135  0.95586  0.02739  1.0000
  C   C22       1.0  0.20135  0.45586  0.47260  1.0000
  C   C23       1.0  0.29866  0.04415  0.97260  1.0000
  C   C24       1.0  0.79868  0.54414  0.52740  1.0000
  C   C25       1.0  0.15539  0.62333  0.02742  1.0000
  C   C26       1.0  0.65538  0.12331  0.47257  1.0000
  C   C27       1.0  0.84461  0.37668  0.97257  1.0000
  C   C28       1.0  0.34461  0.87668  0.52745  1.0000
  C   C29       1.0  0.08941  0.56061  0.10774  1.0000
  C   C30       1.0  0.58942  0.06059  0.39224  1.0000
  C   C31       1.0  0.91057  0.43939  0.89223  1.0000
  C   C32       1.0  0.41057  0.93939  0.60777  1.0000
  C   C33       1.0  0.19651  0.47219  0.14269  1.0000
  C   C34       1.0  0.69654  0.97217  0.35730  1.0000
  C   C35       1.0  0.80347  0.52781  0.85729  1.0000
  C   C36       1.0  0.30349  0.02781  0.64272  1.0000
  C   C37       1.0  0.41039  0.51280  0.02313  1.0000
  C   C38       1.0  0.91038  0.01280  0.47687  1.0000
  C   C39       1.0  0.58958  0.48720  0.97686  1.0000
  C   C40       1.0  0.08957  0.98720  0.52314  1.0000
  N   N1        1.0  0.31345  0.59800  0.98446  1.0000
  N   N2        1.0  0.81344  0.09798  0.51554  1.0000
  N   N3        1.0  0.68654  0.40202  0.01553  1.0000
  N   N4        1.0  0.18654  0.90201  0.48449  1.0000
  N   N5        1.0  0.35719  0.44946  0.10111  1.0000
  N   N6        1.0  0.85720  0.94946  0.39889  1.0000
  N   N7        1.0  0.64280  0.55052  0.89887  1.0000
  N   N8        1.0  0.14281  0.05053  0.60113  1.0000
  O   O1        1.0  0.51848  0.80262  0.97917  1.0000
  O   O2        1.0  0.01848  0.30261  0.52082  1.0000
  O   O3        1.0  0.48152  0.19740  0.02082  1.0000
  O   O4        1.0  0.98153  0.69738  0.47918  1.0000
  O   O5        1.0  0.62139  0.81334  0.78115  1.0000
  O   O6        1.0  0.12136  0.31334  0.71886  1.0000
  O   O7        1.0  0.37862  0.18667  0.21886  1.0000
  O   O8        1.0  0.87862  0.68667  0.28115  1.0000
  O   O9        1.0  0.80241  0.99430  0.71395  1.0000
  O   O10       1.0  0.30238  0.49429  0.78606  1.0000
  O   O11       1.0  0.19762  0.00570  0.28605  1.0000
  O   O12       1.0  0.69758  0.50571  0.21395  1.0000
  O   O13       1.0  0.90721  0.15497  0.84784  1.0000
  O   O14       1.0  0.40721  0.65496  0.65217  1.0000
  O   O15       1.0  0.09278  0.84504  0.15216  1.0000
  O   O16       1.0  0.59279  0.34504  0.34784  1.0000
  O   O17       1.0  0.89735  0.11041  0.04877  1.0000
  O   O18       1.0  0.39736  0.61040  0.45124  1.0000
  O   O19       1.0  0.10268  0.88960  0.95123  1.0000
  O   O20       1.0  0.60266  0.38959  0.54877  1.0000
  O   O21       1.0  0.66780  0.94750  0.11890  1.0000
  O   O22       1.0  0.16778  0.44751  0.38109  1.0000
  O   O23       1.0  0.33221  0.05251  0.88109  1.0000
  O   O24       1.0  0.83225  0.55249  0.61891  1.0000
  O   O25       1.0  0.14297  0.76044  0.79610  1.0000
  O   O26       1.0  0.64298  0.26043  0.70391  1.0000
  O   O27       1.0  0.85702  0.23957  0.20391  1.0000
  O   O28       1.0  0.35703  0.73956  0.29608  1.0000
