data_image0
_chemical_formula_structural       Cd2H32C44N4O8
_chemical_formula_sum              "Cd2 H32 C44 N4 O8"
_cell_length_a       7.48528
_cell_length_b       9.80035
_cell_length_c       13.2064
_cell_angle_alpha    88.4829
_cell_angle_beta     77.267
_cell_angle_gamma    72.2779

_space_group_name_H-M_alt    "P 1"
_space_group_IT_number       1

loop_
  _space_group_symop_operation_xyz
  'x, y, z'

loop_
  _atom_site_type_symbol
  _atom_site_label
  _atom_site_symmetry_multiplicity
  _atom_site_fract_x
  _atom_site_fract_y
  _atom_site_fract_z
  _atom_site_occupancy
  Cd  Cd1       1.0  0.28045  0.95520  0.48412  1.0000
  Cd  Cd2       1.0  0.71955  0.04482  0.51588  1.0000
  H   H1        1.0  0.07838  0.89781  0.71712  1.0000
  H   H2        1.0  0.92162  0.10219  0.28288  1.0000
  H   H3        1.0  0.15586  0.73328  0.85706  1.0000
  H   H4        1.0  0.84414  0.26672  0.14294  1.0000
  H   H5        1.0  0.62448  0.45944  0.62939  1.0000
  H   H6        1.0  0.37552  0.54056  0.37060  1.0000
  H   H7        1.0  0.53618  0.63905  0.49890  1.0000
  H   H8        1.0  0.46382  0.36096  0.50110  1.0000
  H   H9        1.0  0.54864  0.38465  0.81263  1.0000
  H   H10       1.0  0.45136  0.61535  0.18736  1.0000
  H   H11       1.0  0.23843  0.59570  0.96850  1.0000
  H   H12       1.0  0.76158  0.40429  0.03150  1.0000
  H   H13       1.0  0.53002  0.69936  0.00451  1.0000
  H   H14       1.0  0.46999  0.30064  0.99548  1.0000
  H   H15       1.0  0.80120  0.45970  0.85410  1.0000
  H   H16       1.0  0.19881  0.54030  0.14588  1.0000
  H   H17       1.0  0.95444  0.52420  0.68220  1.0000
  H   H18       1.0  0.04557  0.47582  0.31780  1.0000
  H   H19       1.0  0.96599  0.71100  0.55257  1.0000
  H   H20       1.0  0.03402  0.28902  0.44743  1.0000
  H   H21       1.0  0.52171  0.01786  0.74329  1.0000
  H   H22       1.0  0.47826  0.98214  0.25671  1.0000
  H   H23       1.0  0.48308  0.84563  0.88045  1.0000
  H   H24       1.0  0.51690  0.15436  0.11954  1.0000
  H   H25       1.0  0.64964  0.76475  0.18595  1.0000
  H   H26       1.0  0.35035  0.23525  0.81406  1.0000
  H   H27       1.0  0.81347  0.81098  0.00820  1.0000
  H   H28       1.0  0.18651  0.18900  0.99181  1.0000
  H   H29       1.0  0.12044  0.87246  0.98358  1.0000
  H   H30       1.0  0.87956  0.12750  0.01642  1.0000
  H   H31       1.0  0.26743  0.87519  0.13511  1.0000
  H   H32       1.0  0.73257  0.12480  0.86489  1.0000
  C   C1        1.0  0.19893  0.79959  0.70043  1.0000
  C   C2        1.0  0.80107  0.20042  0.29958  1.0000
  C   C3        1.0  0.24406  0.70656  0.77875  1.0000
  C   C4        1.0  0.75594  0.29344  0.22125  1.0000
  C   C5        1.0  0.40587  0.58466  0.75673  1.0000
  C   C6        1.0  0.59414  0.41534  0.24326  1.0000
  C   C7        1.0  0.50229  0.55568  0.65218  1.0000
  C   C8        1.0  0.49771  0.44432  0.34782  1.0000
  C   C9        1.0  0.45049  0.65416  0.57834  1.0000
  C   C10       1.0  0.54951  0.34585  0.42165  1.0000
  C   C11       1.0  0.49640  0.49870  0.83761  1.0000
  C   C12       1.0  0.50362  0.50129  0.16238  1.0000
  C   C13       1.0  0.39085  0.53288  0.95241  1.0000
  C   C14       1.0  0.60915  0.46711  0.04758  1.0000
  C   C15       1.0  0.55437  0.59029  0.97454  1.0000
  C   C16       1.0  0.44563  0.40971  0.02546  1.0000
  C   C17       1.0  0.66980  0.55109  0.86094  1.0000
  C   C18       1.0  0.33021  0.44891  0.13905  1.0000
  C   C19       1.0  0.71183  0.66670  0.79287  1.0000
  C   C20       1.0  0.28817  0.33330  0.20713  1.0000
  C   C21       1.0  0.85347  0.63222  0.70014  1.0000
  C   C22       1.0  0.14653  0.36779  0.29985  1.0000
  C   C23       1.0  0.86266  0.73619  0.62692  1.0000
  C   C24       1.0  0.13734  0.26383  0.37308  1.0000
  C   C25       1.0  0.61491  0.90764  0.73361  1.0000
  C   C26       1.0  0.38508  0.09236  0.26639  1.0000
  C   C27       1.0  0.59576  0.81005  0.81016  1.0000
  C   C28       1.0  0.40422  0.18995  0.18984  1.0000
  C   C29       1.0  0.03825  0.82899  0.24522  1.0000
  C   C30       1.0  0.96176  0.17101  0.75478  1.0000
  C   C31       1.0  0.86033  0.80176  0.26048  1.0000
  C   C32       1.0  0.13967  0.19824  0.73953  1.0000
  C   C33       1.0  0.78386  0.79158  0.17391  1.0000
  C   C34       1.0  0.21614  0.20842  0.82611  1.0000
  C   C35       1.0  0.87629  0.81666  0.07459  1.0000
  C   C36       1.0  0.12370  0.18332  0.92542  1.0000
  C   C37       1.0  0.04932  0.84936  0.06028  1.0000
  C   C38       1.0  0.95068  0.15061  0.93972  1.0000
  C   C39       1.0  0.13090  0.85253  0.14479  1.0000
  C   C40       1.0  0.86910  0.14746  0.85521  1.0000
  C   C41       1.0  0.75020  0.77674  0.36630  1.0000
  C   C42       1.0  0.24980  0.22327  0.63370  1.0000
  C   C43       1.0  0.13286  0.83876  0.33278  1.0000
  C   C44       1.0  0.86713  0.16125  0.66723  1.0000
  N   N1        1.0  0.30455  0.77750  0.60244  1.0000
  N   N2        1.0  0.69545  0.22250  0.39756  1.0000
  N   N3        1.0  0.74291  0.87154  0.64208  1.0000
  N   N4        1.0  0.25708  0.12847  0.35792  1.0000
  O   O1        1.0  0.31440  0.80155  0.31490  1.0000
  O   O2        1.0  0.68560  0.19846  0.68510  1.0000
  O   O3        1.0  0.02615  0.89073  0.42196  1.0000
  O   O4        1.0  0.97385  0.10929  0.57804  1.0000
  O   O5        1.0  0.62040  0.88951  0.41501  1.0000
  O   O6        1.0  0.37959  0.11050  0.58500  1.0000
  O   O7        1.0  0.78737  0.65164  0.39579  1.0000
  O   O8        1.0  0.21263  0.34837  0.60422  1.0000
