data_image0
_chemical_formula_structural       Cd2H32C44N4O8
_chemical_formula_sum              "Cd2 H32 C44 N4 O8"
_cell_length_a       9.44307
_cell_length_b       10.3621
_cell_length_c       12.3248
_cell_angle_alpha    96.6307
_cell_angle_beta     95.1538
_cell_angle_gamma    114.565

_space_group_name_H-M_alt    "P 1"
_space_group_IT_number       1

loop_
  _space_group_symop_operation_xyz
  'x, y, z'

loop_
  _atom_site_type_symbol
  _atom_site_label
  _atom_site_symmetry_multiplicity
  _atom_site_fract_x
  _atom_site_fract_y
  _atom_site_fract_z
  _atom_site_occupancy
  Cd  Cd1       1.0  0.70887  0.61214  0.10880  1.0000
  Cd  Cd2       1.0  0.29113  0.38785  0.89119  1.0000
  H   H1        1.0  0.84547  0.44450  0.96275  1.0000
  H   H2        1.0  0.15453  0.55550  0.03725  1.0000
  H   H3        1.0  0.94159  0.43321  0.78273  1.0000
  H   H4        1.0  0.05841  0.56679  0.21728  1.0000
  H   H5        1.0  0.96848  0.85870  0.77098  1.0000
  H   H6        1.0  0.03152  0.14130  0.22902  1.0000
  H   H7        1.0  0.87348  0.85230  0.95363  1.0000
  H   H8        1.0  0.12653  0.14770  0.04637  1.0000
  H   H9        1.0  0.05120  0.73813  0.62125  1.0000
  H   H10       1.0  0.94880  0.26187  0.37875  1.0000
  H   H11       1.0  0.06489  0.45670  0.64887  1.0000
  H   H12       1.0  0.93512  0.54330  0.35112  1.0000
  H   H13       1.0  0.21059  0.67209  0.50677  1.0000
  H   H14       1.0  0.78941  0.32791  0.49323  1.0000
  H   H15       1.0  0.81012  0.62518  0.49456  1.0000
  H   H16       1.0  0.18988  0.37482  0.50544  1.0000
  H   H17       1.0  0.64357  0.69687  0.60864  1.0000
  H   H18       1.0  0.35644  0.30313  0.39136  1.0000
  H   H19       1.0  0.43580  0.62456  0.73200  1.0000
  H   H20       1.0  0.56420  0.37544  0.26800  1.0000
  H   H21       1.0  0.45535  0.23565  0.74367  1.0000
  H   H22       1.0  0.54466  0.76436  0.25633  1.0000
  H   H23       1.0  0.66209  0.28949  0.62189  1.0000
  H   H24       1.0  0.33791  0.71051  0.37811  1.0000
  H   H25       1.0  0.33232  0.09550  0.90141  1.0000
  H   H26       1.0  0.66768  0.90450  0.09859  1.0000
  H   H27       1.0  0.73503  0.16649  0.13516  1.0000
  H   H28       1.0  0.26496  0.83351  0.86483  1.0000
  H   H29       1.0  0.15005  0.86565  0.43453  1.0000
  H   H30       1.0  0.84995  0.13435  0.56547  1.0000
  H   H31       1.0  0.77675  0.99235  0.37186  1.0000
  H   H32       1.0  0.22325  0.00764  0.62814  1.0000
  C   C1        1.0  0.87372  0.53373  0.91695  1.0000
  C   C2        1.0  0.12628  0.46627  0.08305  1.0000
  C   C3        1.0  0.92594  0.52783  0.81560  1.0000
  C   C4        1.0  0.07406  0.47217  0.18441  1.0000
  C   C5        1.0  0.95388  0.64194  0.75701  1.0000
  C   C6        1.0  0.04612  0.35806  0.24299  1.0000
  C   C7        1.0  0.94073  0.76331  0.80978  1.0000
  C   C8        1.0  0.05927  0.23669  0.19022  1.0000
  C   C9        1.0  0.88896  0.76121  0.91198  1.0000
  C   C10       1.0  0.11104  0.23879  0.08802  1.0000
  C   C11       1.0  0.97928  0.63053  0.63902  1.0000
  C   C12       1.0  0.02072  0.36947  0.36098  1.0000
  C   C13       1.0  0.02923  0.51390  0.59073  1.0000
  C   C14       1.0  0.97077  0.48610  0.40927  1.0000
  C   C15       1.0  0.12620  0.55847  0.49655  1.0000
  C   C16       1.0  0.87380  0.44153  0.50345  1.0000
  C   C17       1.0  0.81755  0.55311  0.55137  1.0000
  C   C18       1.0  0.18245  0.44689  0.44863  1.0000
  C   C19       1.0  0.67420  0.50063  0.60638  1.0000
  C   C20       1.0  0.32580  0.49937  0.39362  1.0000
  C   C21       1.0  0.60438  0.59282  0.63616  1.0000
  C   C22       1.0  0.39563  0.40718  0.36384  1.0000
  C   C23       1.0  0.48956  0.55396  0.70457  1.0000
  C   C24       1.0  0.51044  0.44604  0.29543  1.0000
  C   C25       1.0  0.49976  0.33622  0.71094  1.0000
  C   C26       1.0  0.50024  0.66378  0.28906  1.0000
  C   C27       1.0  0.61476  0.36726  0.64237  1.0000
  C   C28       1.0  0.38524  0.63274  0.35763  1.0000
  C   C29       1.0  0.58219  0.30537  0.04414  1.0000
  C   C30       1.0  0.41781  0.69462  0.95586  1.0000
  C   C31       1.0  0.53810  0.14733  0.02142  1.0000
  C   C32       1.0  0.46190  0.85267  0.97858  1.0000
  C   C33       1.0  0.40554  0.05380  0.94469  1.0000
  C   C34       1.0  0.59446  0.94620  0.05531  1.0000
  C   C35       1.0  0.63191  0.09243  0.07641  1.0000
  C   C36       1.0  0.36808  0.90757  0.92359  1.0000
  C   C37       1.0  0.90969  0.82991  0.27967  1.0000
  C   C38       1.0  0.09031  0.17009  0.72033  1.0000
  C   C39       1.0  0.96025  0.92195  0.39216  1.0000
  C   C40       1.0  0.03974  0.07805  0.60784  1.0000
  C   C41       1.0  0.08606  0.92589  0.46417  1.0000
  C   C42       1.0  0.91394  0.07411  0.53582  1.0000
  C   C43       1.0  0.87446  0.99674  0.42889  1.0000
  C   C44       1.0  0.12554  0.00326  0.57111  1.0000
  N   N1        1.0  0.85117  0.64631  0.96362  1.0000
  N   N2        1.0  0.14883  0.35369  0.03638  1.0000
  N   N3        1.0  0.44032  0.42899  0.74396  1.0000
  N   N4        1.0  0.55968  0.57101  0.25604  1.0000
  O   O1        1.0  0.50180  0.35812  0.99209  1.0000
  O   O2        1.0  0.49820  0.64188  0.00791  1.0000
  O   O3        1.0  0.70382  0.38455  0.11581  1.0000
  O   O4        1.0  0.29618  0.61545  0.88419  1.0000
  O   O5        1.0  0.95065  0.72822  0.26204  1.0000
  O   O6        1.0  0.04936  0.27178  0.73796  1.0000
  O   O7        1.0  0.81859  0.85354  0.20926  1.0000
  O   O8        1.0  0.18141  0.14645  0.79074  1.0000
