data_image0
_chemical_formula_structural       Cu4H16C14N32
_chemical_formula_sum              "Cu4 H16 C14 N32"
_cell_length_a       7.38858
_cell_length_b       9.74231
_cell_length_c       11.8961
_cell_angle_alpha    111.784
_cell_angle_beta     97.1143
_cell_angle_gamma    103.275

_space_group_name_H-M_alt    "P 1"
_space_group_IT_number       1

loop_
  _space_group_symop_operation_xyz
  'x, y, z'

loop_
  _atom_site_type_symbol
  _atom_site_label
  _atom_site_symmetry_multiplicity
  _atom_site_fract_x
  _atom_site_fract_y
  _atom_site_fract_z
  _atom_site_occupancy
  Cu  Cu1       1.0  0.88721  0.10506  0.31179  1.0000
  Cu  Cu2       1.0  0.11269  0.89501  0.68822  1.0000
  Cu  Cu3       1.0  0.76156  0.00245  0.52294  1.0000
  Cu  Cu4       1.0  0.23846  0.99753  0.47705  1.0000
  H   H1        1.0  0.81020  0.33439  0.07924  1.0000
  H   H2        1.0  0.18983  0.66561  0.92072  1.0000
  H   H3        1.0  0.72065  0.29887  0.20311  1.0000
  H   H4        1.0  0.27933  0.70118  0.79685  1.0000
  H   H5        1.0  0.14933  0.50413  0.15391  1.0000
  H   H6        1.0  0.85071  0.49586  0.84607  1.0000
  H   H7        1.0  0.45213  0.56209  0.34258  1.0000
  H   H8        1.0  0.54787  0.43788  0.65741  1.0000
  H   H9        1.0  0.31052  0.36265  0.44796  1.0000
  H   H10       1.0  0.68942  0.63735  0.55204  1.0000
  H   H11       1.0  0.69089  0.08987  0.88475  1.0000
  H   H12       1.0  0.30916  0.91009  0.11522  1.0000
  H   H13       1.0  0.63857  0.78074  0.82901  1.0000
  H   H14       1.0  0.36148  0.21923  0.17103  1.0000
  H   H15       1.0  0.74287  0.77475  0.05778  1.0000
  H   H16       1.0  0.25709  0.22528  0.94229  1.0000
  C   C1        1.0  0.82105  0.27759  0.14272  1.0000
  C   C2        1.0  0.17895  0.72243  0.85725  1.0000
  C   C3        1.0  0.16215  0.45189  0.21958  1.0000
  C   C4        1.0  0.83786  0.54811  0.78041  1.0000
  C   C5        1.0  0.31139  0.47988  0.31617  1.0000
  C   C6        1.0  0.68861  0.52011  0.68382  1.0000
  C   C7        1.0  0.24035  0.37973  0.37083  1.0000
  C   C8        1.0  0.75961  0.62027  0.62917  1.0000
  C   C9        1.0  0.71428  0.03189  0.94485  1.0000
  C   C10       1.0  0.28575  0.96809  0.05514  1.0000
  C   C11       1.0  0.68806  0.87689  0.91979  1.0000
  C   C12       1.0  0.31196  0.12310  0.08023  1.0000
  C   C13       1.0  0.73896  0.87280  0.03586  1.0000
  C   C14       1.0  0.26102  0.12722  0.96418  1.0000
  N   N1        1.0  0.95230  0.16878  0.50050  1.0000
  N   N2        1.0  0.04770  0.83123  0.49949  1.0000
  N   N3        1.0  0.06382  0.28968  0.57914  1.0000
  N   N4        1.0  0.93618  0.71032  0.42086  1.0000
  N   N5        1.0  0.17403  0.40361  0.65177  1.0000
  N   N6        1.0  0.82596  0.59639  0.34823  1.0000
  N   N7        1.0  0.72307  0.92195  0.33357  1.0000
  N   N8        1.0  0.27694  0.07806  0.66642  1.0000
  N   N9        1.0  0.57898  0.82812  0.25868  1.0000
  N   N10       1.0  0.42104  0.17186  0.74132  1.0000
  N   N11       1.0  0.44266  0.73818  0.18619  1.0000
  N   N12       1.0  0.55738  0.26177  0.81380  1.0000
  N   N13       1.0  0.14580  0.94281  0.30135  1.0000
  N   N14       1.0  0.85430  0.05713  0.69863  1.0000
  N   N15       1.0  0.06363  0.81352  0.22349  1.0000
  N   N16       1.0  0.93639  0.18643  0.77651  1.0000
  N   N17       1.0  0.98381  0.69333  0.14114  1.0000
  N   N18       1.0  0.01614  0.30663  0.85887  1.0000
  N   N19       1.0  0.46967  0.15978  0.49910  1.0000
  N   N20       1.0  0.53026  0.84029  0.50090  1.0000
  N   N21       1.0  0.52788  0.18340  0.41607  1.0000
  N   N22       1.0  0.47212  0.81664  0.58395  1.0000
  N   N23       1.0  0.59547  0.21193  0.34039  1.0000
  N   N24       1.0  0.40460  0.78809  0.65964  1.0000
  N   N25       1.0  0.05817  0.29578  0.31206  1.0000
  N   N26       1.0  0.94179  0.70424  0.68794  1.0000
  N   N27       1.0  0.01330  0.34058  0.21943  1.0000
  N   N28       1.0  0.98669  0.65943  0.78056  1.0000
  N   N29       1.0  0.79256  0.01683  0.12703  1.0000
  N   N30       1.0  0.20740  0.98320  0.87300  1.0000
  N   N31       1.0  0.77763  0.11242  0.06960  1.0000
  N   N32       1.0  0.22236  0.88759  0.93039  1.0000
