data_image0
_chemical_formula_structural       Cd2H32C44N4O8
_chemical_formula_sum              "Cd2 H32 C44 N4 O8"
_cell_length_a       8.60545
_cell_length_b       10.3473
_cell_length_c       11.9317
_cell_angle_alpha    83.4656
_cell_angle_beta     73.3162
_cell_angle_gamma    68.9094

_space_group_name_H-M_alt    "P 1"
_space_group_IT_number       1

loop_
  _space_group_symop_operation_xyz
  'x, y, z'

loop_
  _atom_site_type_symbol
  _atom_site_label
  _atom_site_symmetry_multiplicity
  _atom_site_fract_x
  _atom_site_fract_y
  _atom_site_fract_z
  _atom_site_occupancy
  Cd  Cd1       1.0  0.17858  0.30962  0.41444  1.0000
  Cd  Cd2       1.0  0.82143  0.69038  0.58556  1.0000
  H   H1        1.0  0.27152  0.05442  0.57839  1.0000
  H   H2        1.0  0.72849  0.94558  0.42161  1.0000
  H   H3        1.0  0.37959  0.97364  0.75511  1.0000
  H   H4        1.0  0.62042  0.02635  0.24488  1.0000
  H   H5        1.0  0.40146  0.38179  0.77225  1.0000
  H   H6        1.0  0.59854  0.61821  0.22775  1.0000
  H   H7        1.0  0.28407  0.44726  0.59645  1.0000
  H   H8        1.0  0.71593  0.55274  0.40355  1.0000
  H   H9        1.0  0.49062  0.21428  0.91916  1.0000
  H   H10       1.0  0.50938  0.78571  0.08085  1.0000
  H   H11       1.0  0.43550  0.93567  0.91897  1.0000
  H   H12       1.0  0.56449  0.06433  0.08103  1.0000
  H   H13       1.0  0.58355  0.23618  0.44447  1.0000
  H   H14       1.0  0.41647  0.76382  0.55553  1.0000
  H   H15       1.0  0.84742  0.29132  0.33850  1.0000
  H   H16       1.0  0.15259  0.70869  0.66149  1.0000
  H   H17       1.0  0.64329  0.39503  0.03518  1.0000
  H   H18       1.0  0.35669  0.60496  0.96482  1.0000
  H   H19       1.0  0.38559  0.33850  0.15597  1.0000
  H   H20       1.0  0.61441  0.66149  0.84404  1.0000
  H   H21       1.0  0.02474  0.35153  0.15887  1.0000
  H   H22       1.0  0.97525  0.64848  0.84113  1.0000
  H   H23       1.0  0.81680  0.52560  0.98702  1.0000
  H   H24       1.0  0.18319  0.47441  0.01298  1.0000
  H   H25       1.0  0.10726  0.07906  0.11166  1.0000
  H   H26       1.0  0.89273  0.92095  0.88834  1.0000
  H   H27       1.0  0.06737  0.88598  0.02610  1.0000
  H   H28       1.0  0.93263  0.11402  0.97390  1.0000
  H   H29       1.0  0.07845  0.66758  0.14152  1.0000
  H   H30       1.0  0.92156  0.33242  0.85848  1.0000
  H   H31       1.0  0.16268  0.83536  0.42306  1.0000
  H   H32       1.0  0.83731  0.16464  0.57694  1.0000
  C   C1        1.0  0.30134  0.12303  0.62530  1.0000
  C   C2        1.0  0.69867  0.87697  0.37470  1.0000
  C   C3        1.0  0.36038  0.07983  0.72429  1.0000
  C   C4        1.0  0.63963  0.92017  0.27571  1.0000
  C   C5        1.0  0.39578  0.17281  0.78235  1.0000
  C   C6        1.0  0.60423  0.82719  0.21765  1.0000
  C   C7        1.0  0.37181  0.30650  0.73309  1.0000
  C   C8        1.0  0.62819  0.69350  0.26692  1.0000
  C   C9        1.0  0.30919  0.34327  0.63479  1.0000
  C   C10       1.0  0.69082  0.65673  0.36521  1.0000
  C   C11       1.0  0.45446  0.13663  0.88781  1.0000
  C   C12       1.0  0.54553  0.86336  0.11219  1.0000
  C   C13       1.0  0.46952  0.01551  0.94866  1.0000
  C   C14       1.0  0.53048  0.98448  0.05135  1.0000
  C   C15       1.0  0.60123  0.27261  0.35371  1.0000
  C   C16       1.0  0.39878  0.72739  0.64629  1.0000
  C   C17       1.0  0.74870  0.30271  0.29426  1.0000
  C   C18       1.0  0.25130  0.69729  0.70574  1.0000
  C   C19       1.0  0.76721  0.35210  0.17783  1.0000
  C   C20       1.0  0.23278  0.64790  0.82216  1.0000
  C   C21       1.0  0.63442  0.36274  0.12635  1.0000
  C   C22       1.0  0.36557  0.63725  0.87365  1.0000
  C   C23       1.0  0.49186  0.32981  0.19219  1.0000
  C   C24       1.0  0.50815  0.67017  0.80781  1.0000
  C   C25       1.0  0.91642  0.39211  0.11918  1.0000
  C   C26       1.0  0.08357  0.60790  0.88081  1.0000
  C   C27       1.0  0.92598  0.47966  0.02562  1.0000
  C   C28       1.0  0.07401  0.52035  0.97437  1.0000
  C   C29       1.0  0.16374  0.08244  0.32259  1.0000
  C   C30       1.0  0.83626  0.91756  0.67742  1.0000
  C   C31       1.0  0.13980  0.96765  0.27137  1.0000
  C   C32       1.0  0.86019  0.03235  0.72863  1.0000
  C   C33       1.0  0.11065  0.98262  0.16007  1.0000
  C   C34       1.0  0.88934  0.01738  0.83993  1.0000
  C   C35       1.0  0.08983  0.87470  0.11266  1.0000
  C   C36       1.0  0.91016  0.12530  0.88735  1.0000
  C   C37       1.0  0.09775  0.75183  0.17617  1.0000
  C   C38       1.0  0.90225  0.24817  0.82383  1.0000
  C   C39       1.0  0.12459  0.73636  0.28821  1.0000
  C   C40       1.0  0.87541  0.26364  0.71179  1.0000
  C   C41       1.0  0.14476  0.84503  0.33549  1.0000
  C   C42       1.0  0.85524  0.15497  0.66451  1.0000
  C   C43       1.0  0.12545  0.60586  0.35763  1.0000
  C   C44       1.0  0.87455  0.39414  0.64237  1.0000
  N   N1        1.0  0.27420  0.25309  0.58134  1.0000
  N   N2        1.0  0.72580  0.74691  0.41866  1.0000
  N   N3        1.0  0.47310  0.28700  0.30484  1.0000
  N   N4        1.0  0.52690  0.71299  0.69516  1.0000
  O   O1        1.0  0.16855  0.19061  0.25933  1.0000
  O   O2        1.0  0.83145  0.80940  0.74067  1.0000
  O   O3        1.0  0.17510  0.07083  0.42733  1.0000
  O   O4        1.0  0.82490  0.92917  0.57267  1.0000
  O   O5        1.0  0.12749  0.50546  0.30325  1.0000
  O   O6        1.0  0.87252  0.49454  0.69675  1.0000
  O   O7        1.0  0.12305  0.60049  0.46564  1.0000
  O   O8        1.0  0.87696  0.39951  0.53436  1.0000
