data_image0
_chemical_formula_structural       Cd2H32C44N4O8
_chemical_formula_sum              "Cd2 H32 C44 N4 O8"
_cell_length_a       7.36723
_cell_length_b       10.2102
_cell_length_c       12.9677
_cell_angle_alpha    85.0378
_cell_angle_beta     77.4464
_cell_angle_gamma    73.991

_space_group_name_H-M_alt    "P 1"
_space_group_IT_number       1

loop_
  _space_group_symop_operation_xyz
  'x, y, z'

loop_
  _atom_site_type_symbol
  _atom_site_label
  _atom_site_symmetry_multiplicity
  _atom_site_fract_x
  _atom_site_fract_y
  _atom_site_fract_z
  _atom_site_occupancy
  Cd  Cd1       1.0  0.25024  0.95567  0.51539  1.0000
  Cd  Cd2       1.0  0.74976  0.04433  0.48461  1.0000
  H   H1        1.0  0.44515  0.92444  0.27677  1.0000
  H   H2        1.0  0.55485  0.07556  0.72323  1.0000
  H   H3        1.0  0.61600  0.75106  0.14295  1.0000
  H   H4        1.0  0.38399  0.24894  0.85705  1.0000
  H   H5        1.0  0.46930  0.44554  0.37312  1.0000
  H   H6        1.0  0.53069  0.55446  0.62688  1.0000
  H   H7        1.0  0.29871  0.63473  0.49914  1.0000
  H   H8        1.0  0.70128  0.36527  0.50086  1.0000
  H   H9        1.0  0.66282  0.36963  0.20305  1.0000
  H   H10       1.0  0.33718  0.63038  0.79695  1.0000
  H   H11       1.0  0.69340  0.59917  0.03254  1.0000
  H   H12       1.0  0.30660  0.40083  0.96746  1.0000
  H   H13       1.0  0.81587  0.28460  0.02054  1.0000
  H   H14       1.0  0.18413  0.71540  0.97946  1.0000
  H   H15       1.0  0.84351  0.52148  0.85795  1.0000
  H   H16       1.0  0.15650  0.47852  0.14205  1.0000
  H   H17       1.0  0.01564  0.46170  0.68089  1.0000
  H   H18       1.0  0.98436  0.53830  0.31911  1.0000
  H   H19       1.0  0.17252  0.28568  0.54476  1.0000
  H   H20       1.0  0.82748  0.71431  0.45524  1.0000
  H   H21       1.0  0.07004  0.97457  0.75570  1.0000
  H   H22       1.0  0.92997  0.02543  0.24431  1.0000
  H   H23       1.0  0.90882  0.13335  0.90156  1.0000
  H   H24       1.0  0.09118  0.86665  0.09845  1.0000
  H   H25       1.0  0.02907  0.77876  0.82385  1.0000
  H   H26       1.0  0.97094  0.22124  0.17614  1.0000
  H   H27       1.0  0.81776  0.82330  0.00225  1.0000
  H   H28       1.0  0.18224  0.17669  0.99775  1.0000
  H   H29       1.0  0.46007  0.86774  0.02261  1.0000
  H   H30       1.0  0.53994  0.13225  0.97738  1.0000
  H   H31       1.0  0.32199  0.86565  0.86373  1.0000
  H   H32       1.0  0.67801  0.13434  0.13627  1.0000
  C   C1        1.0  0.45333  0.81716  0.29512  1.0000
  C   C2        1.0  0.54666  0.18283  0.70488  1.0000
  C   C3        1.0  0.54669  0.71958  0.22021  1.0000
  C   C4        1.0  0.45331  0.28042  0.77979  1.0000
  C   C5        1.0  0.55541  0.58128  0.24535  1.0000
  C   C6        1.0  0.44459  0.41872  0.75465  1.0000
  C   C7        1.0  0.46672  0.55077  0.34879  1.0000
  C   C8        1.0  0.53327  0.44923  0.65121  1.0000
  C   C9        1.0  0.37518  0.65464  0.41983  1.0000
  C   C10       1.0  0.62481  0.34536  0.58017  1.0000
  C   C11       1.0  0.64844  0.47353  0.17022  1.0000
  C   C12       1.0  0.35156  0.52647  0.82978  1.0000
  C   C13       1.0  0.71147  0.49521  0.06522  1.0000
  C   C14       1.0  0.28853  0.50479  0.93478  1.0000
  C   C15       1.0  0.79919  0.38966  0.99029  1.0000
  C   C16       1.0  0.20081  0.61033  0.00971  1.0000
  C   C17       1.0  0.86026  0.41530  0.88564  1.0000
  C   C18       1.0  0.13974  0.58470  0.11436  1.0000
  C   C19       1.0  0.95019  0.31370  0.80528  1.0000
  C   C20       1.0  0.04982  0.68629  0.19472  1.0000
  C   C21       1.0  0.02538  0.35426  0.70181  1.0000
  C   C22       1.0  0.97462  0.64574  0.29819  1.0000
  C   C23       1.0  0.11379  0.25666  0.62524  1.0000
  C   C24       1.0  0.88621  0.74333  0.37476  1.0000
  C   C25       1.0  0.05681  0.08312  0.74357  1.0000
  C   C26       1.0  0.94319  0.91687  0.25643  1.0000
  C   C27       1.0  0.96769  0.17314  0.82457  1.0000
  C   C28       1.0  0.03232  0.82685  0.17543  1.0000
  C   C29       1.0  0.59415  0.82863  0.75528  1.0000
  C   C30       1.0  0.40585  0.17137  0.24472  1.0000
  C   C31       1.0  0.79459  0.80661  0.74333  1.0000
  C   C32       1.0  0.20541  0.19340  0.25666  1.0000
  C   C33       1.0  0.87287  0.80125  0.83365  1.0000
  C   C34       1.0  0.12713  0.19875  0.16635  1.0000
  C   C35       1.0  0.75425  0.82456  0.93342  1.0000
  C   C36       1.0  0.24575  0.17543  0.06658  1.0000
  C   C37       1.0  0.55456  0.84857  0.94517  1.0000
  C   C38       1.0  0.44544  0.15143  0.05483  1.0000
  C   C39       1.0  0.47696  0.84783  0.85674  1.0000
  C   C40       1.0  0.52305  0.15217  0.14325  1.0000
  C   C41       1.0  0.93397  0.78642  0.63791  1.0000
  C   C42       1.0  0.06602  0.21359  0.36208  1.0000
  C   C43       1.0  0.49468  0.83999  0.66404  1.0000
  C   C44       1.0  0.50532  0.16001  0.33595  1.0000
  N   N1        1.0  0.36878  0.78638  0.39383  1.0000
  N   N2        1.0  0.63122  0.21362  0.60617  1.0000
  N   N3        1.0  0.13060  0.12268  0.64512  1.0000
  N   N4        1.0  0.86940  0.87731  0.35489  1.0000
  O   O1        1.0  0.33891  0.80485  0.67942  1.0000
  O   O2        1.0  0.66109  0.19515  0.32058  1.0000
  O   O3        1.0  0.56399  0.89134  0.57525  1.0000
  O   O4        1.0  0.43601  0.10866  0.42475  1.0000
  O   O5        1.0  0.96062  0.89804  0.58919  1.0000
  O   O6        1.0  0.03937  0.10197  0.41081  1.0000
  O   O7        1.0  0.01738  0.66788  0.60955  1.0000
  O   O8        1.0  0.98260  0.33213  0.39044  1.0000
