data_image0
_chemical_formula_structural       Cd2H44C60N6O12
_chemical_formula_sum              "Cd2 H44 C60 N6 O12"
_cell_length_a       10.3241
_cell_length_b       10.254
_cell_length_c       14.2793
_cell_angle_alpha    81.5771
_cell_angle_beta     74.1719
_cell_angle_gamma    72.6131

_space_group_name_H-M_alt    "P 1"
_space_group_IT_number       1

loop_
  _space_group_symop_operation_xyz
  'x, y, z'

loop_
  _atom_site_type_symbol
  _atom_site_label
  _atom_site_symmetry_multiplicity
  _atom_site_fract_x
  _atom_site_fract_y
  _atom_site_fract_z
  _atom_site_occupancy
  Cd  Cd1       1.0  0.40649  0.90904  0.43358  1.0000
  Cd  Cd2       1.0  0.59351  0.09096  0.56642  1.0000
  H   H1        1.0  0.00231  0.72808  0.95891  1.0000
  H   H2        1.0  0.99766  0.27192  0.04109  1.0000
  H   H3        1.0  0.27612  0.23711  0.39676  1.0000
  H   H4        1.0  0.72389  0.76290  0.60324  1.0000
  H   H5        1.0  0.24856  0.41482  0.25815  1.0000
  H   H6        1.0  0.75144  0.58519  0.74185  1.0000
  H   H7        1.0  0.52332  0.10495  0.06396  1.0000
  H   H8        1.0  0.47667  0.89504  0.93604  1.0000
  H   H9        1.0  0.53521  0.94133  0.21029  1.0000
  H   H10       1.0  0.46479  0.05867  0.78972  1.0000
  H   H11       1.0  0.30038  0.48145  0.08729  1.0000
  H   H12       1.0  0.69962  0.51855  0.91271  1.0000
  H   H13       1.0  0.49116  0.25924  0.94824  1.0000
  H   H14       1.0  0.50885  0.74076  0.05176  1.0000
  H   H15       1.0  0.33743  0.56760  0.92064  1.0000
  H   H16       1.0  0.66259  0.43240  0.07936  1.0000
  H   H17       1.0  0.53282  0.34828  0.77808  1.0000
  H   H18       1.0  0.46719  0.65172  0.22192  1.0000
  H   H19       1.0  0.29054  0.71571  0.80647  1.0000
  H   H20       1.0  0.70946  0.28429  0.19354  1.0000
  H   H21       1.0  0.27181  0.88086  0.66230  1.0000
  H   H22       1.0  0.72819  0.11914  0.33770  1.0000
  H   H23       1.0  0.58379  0.61238  0.47723  1.0000
  H   H24       1.0  0.41621  0.38762  0.52277  1.0000
  H   H25       1.0  0.60737  0.42767  0.61338  1.0000
  H   H26       1.0  0.39263  0.57233  0.38662  1.0000
  H   H27       1.0  0.92408  0.90260  0.43817  1.0000
  H   H28       1.0  0.07593  0.09739  0.56183  1.0000
  H   H29       1.0  0.81978  0.79841  0.19175  1.0000
  H   H30       1.0  0.18021  0.20159  0.80826  1.0000
  H   H31       1.0  0.24568  0.78587  0.17634  1.0000
  H   H32       1.0  0.75432  0.21413  0.82365  1.0000
  H   H33       1.0  0.96830  0.90844  0.80922  1.0000
  H   H34       1.0  0.03170  0.09155  0.19078  1.0000
  H   H35       1.0  0.98421  0.86780  0.63696  1.0000
  H   H36       1.0  0.01578  0.13219  0.36304  1.0000
  H   H37       1.0  0.10006  0.43310  0.72033  1.0000
  H   H38       1.0  0.89995  0.56690  0.27967  1.0000
  H   H39       1.0  0.07686  0.49148  0.88780  1.0000
  H   H40       1.0  0.92315  0.50852  0.11220  1.0000
  H   H41       1.0  0.04409  0.70480  0.51192  1.0000
  H   H42       1.0  0.95590  0.29519  0.48808  1.0000
  H   H43       1.0  0.99103  0.42753  0.60432  1.0000
  H   H44       1.0  0.00897  0.57247  0.39568  1.0000
  C   C1        1.0  0.32765  0.21278  0.32145  1.0000
  C   C2        1.0  0.67236  0.78723  0.67855  1.0000
  C   C3        1.0  0.31309  0.31071  0.24406  1.0000
  C   C4        1.0  0.68692  0.68930  0.75595  1.0000
  C   C5        1.0  0.38167  0.27594  0.14774  1.0000
  C   C6        1.0  0.61833  0.72406  0.85226  1.0000
  C   C7        1.0  0.46446  0.13946  0.13589  1.0000
  C   C8        1.0  0.53553  0.86054  0.86411  1.0000
  C   C9        1.0  0.47295  0.04767  0.21683  1.0000
  C   C10       1.0  0.52704  0.95234  0.78318  1.0000
  C   C11       1.0  0.36518  0.37893  0.06753  1.0000
  C   C12       1.0  0.63483  0.62107  0.93247  1.0000
  C   C13       1.0  0.42389  0.35955  0.97132  1.0000
  C   C14       1.0  0.57613  0.64045  0.02868  1.0000
  C   C15       1.0  0.40367  0.46737  0.89647  1.0000
  C   C16       1.0  0.59634  0.53263  0.10353  1.0000
  C   C17       1.0  0.46499  0.44878  0.80040  1.0000
  C   C18       1.0  0.53502  0.55122  0.19960  1.0000
  C   C19       1.0  0.44996  0.55480  0.72191  1.0000
  C   C20       1.0  0.55005  0.44520  0.27809  1.0000
  C   C21       1.0  0.35613  0.68645  0.73480  1.0000
  C   C22       1.0  0.64387  0.31355  0.26520  1.0000
  C   C23       1.0  0.34593  0.77974  0.65488  1.0000
  C   C24       1.0  0.65407  0.22026  0.34512  1.0000
  C   C25       1.0  0.51907  0.62888  0.55121  1.0000
  C   C26       1.0  0.48093  0.37112  0.44879  1.0000
  C   C27       1.0  0.53290  0.52795  0.62676  1.0000
  C   C28       1.0  0.46710  0.47206  0.37324  1.0000
  C   C29       1.0  0.20371  0.85834  0.36064  1.0000
  C   C30       1.0  0.79630  0.14166  0.63935  1.0000
  C   C31       1.0  0.70941  0.85809  0.37877  1.0000
  C   C32       1.0  0.29059  0.14191  0.62124  1.0000
  C   C33       1.0  0.07933  0.75889  0.06663  1.0000
  C   C34       1.0  0.92065  0.24111  0.93337  1.0000
  C   C35       1.0  0.09651  0.84295  0.31295  1.0000
  C   C36       1.0  0.90349  0.15704  0.68704  1.0000
  C   C37       1.0  0.95598  0.86764  0.36459  1.0000
  C   C38       1.0  0.04402  0.13236  0.63541  1.0000
  C   C39       1.0  0.85757  0.84639  0.32193  1.0000
  C   C40       1.0  0.14243  0.15361  0.67807  1.0000
  C   C41       1.0  0.89779  0.81153  0.22499  1.0000
  C   C42       1.0  0.10220  0.18847  0.77501  1.0000
  C   C43       1.0  0.03670  0.79273  0.17137  1.0000
  C   C44       1.0  0.96329  0.20728  0.82863  1.0000
  C   C45       1.0  0.13660  0.80453  0.21674  1.0000
  C   C46       1.0  0.86339  0.19546  0.78325  1.0000
  C   C47       1.0  0.99599  0.80465  0.78621  1.0000
  C   C48       1.0  0.00400  0.19534  0.21379  1.0000
  C   C49       1.0  0.00572  0.78189  0.69067  1.0000
  C   C50       1.0  0.99427  0.21810  0.30933  1.0000
  C   C51       1.0  0.03840  0.64634  0.66489  1.0000
  C   C52       1.0  0.96160  0.35365  0.33511  1.0000
  C   C53       1.0  0.06754  0.54006  0.73694  1.0000
  C   C54       1.0  0.93247  0.45994  0.26306  1.0000
  C   C55       1.0  0.05617  0.57211  0.83039  1.0000
  C   C56       1.0  0.94384  0.42789  0.16961  1.0000
  C   C57       1.0  0.03403  0.62157  0.56831  1.0000
  C   C58       1.0  0.96597  0.37843  0.43169  1.0000
  C   C59       1.0  0.00681  0.50893  0.54715  1.0000
  C   C60       1.0  0.99319  0.49107  0.45285  1.0000
  N   N1        1.0  0.40582  0.08298  0.30871  1.0000
  N   N2        1.0  0.59418  0.91703  0.69129  1.0000
  N   N3        1.0  0.42532  0.75242  0.56414  1.0000
  N   N4        1.0  0.57467  0.24758  0.43587  1.0000
  N   N5        1.0  0.01920  0.70219  0.85534  1.0000
  N   N6        1.0  0.98080  0.29780  0.14466  1.0000
  O   O1        1.0  0.33232  0.80382  0.32203  1.0000
  O   O2        1.0  0.66769  0.19618  0.67796  1.0000
  O   O3        1.0  0.16189  0.92515  0.43676  1.0000
  O   O4        1.0  0.83812  0.07484  0.56324  1.0000
  O   O5        1.0  0.66455  0.91515  0.45919  1.0000
  O   O6        1.0  0.33546  0.08485  0.54082  1.0000
  O   O7        1.0  0.63561  0.80824  0.34316  1.0000
  O   O8        1.0  0.36439  0.19177  0.65685  1.0000
  O   O9        1.0  0.97437  0.74551  0.03550  1.0000
  O   O10       1.0  0.02560  0.25449  0.96451  1.0000
  O   O11       1.0  0.20038  0.74527  0.01647  1.0000
  O   O12       1.0  0.79959  0.25474  0.98352  1.0000
