data_image0
_chemical_formula_structural       Zn4P4H20C12N8O16
_chemical_formula_sum              "Zn4 P4 H20 C12 N8 O16"
_cell_length_a       5.11817
_cell_length_b       7.61545
_cell_length_c       17.5047
_cell_angle_alpha    90.0011
_cell_angle_beta     89.8626
_cell_angle_gamma    90.0004

_space_group_name_H-M_alt    "P 1"
_space_group_IT_number       1

loop_
  _space_group_symop_operation_xyz
  'x, y, z'

loop_
  _atom_site_type_symbol
  _atom_site_label
  _atom_site_symmetry_multiplicity
  _atom_site_fract_x
  _atom_site_fract_y
  _atom_site_fract_z
  _atom_site_occupancy
  Zn  Zn1       1.0  0.68181  0.64022  0.42017  1.0000
  Zn  Zn2       1.0  0.68180  0.85977  0.92017  1.0000
  Zn  Zn3       1.0  0.31819  0.35979  0.57983  1.0000
  Zn  Zn4       1.0  0.31818  0.14022  0.07983  1.0000
  P   P1        1.0  0.17294  0.74076  0.51324  1.0000
  P   P2        1.0  0.17294  0.75924  0.01324  1.0000
  P   P3        1.0  0.82706  0.25926  0.48676  1.0000
  P   P4        1.0  0.82706  0.24074  0.98676  1.0000
  H   H1        1.0  0.22509  0.02933  0.52475  1.0000
  H   H2        1.0  0.22509  0.47067  0.02475  1.0000
  H   H3        1.0  0.77489  0.97068  0.47525  1.0000
  H   H4        1.0  0.77489  0.52932  0.97525  1.0000
  H   H5        1.0  0.03602  0.83640  0.16012  1.0000
  H   H6        1.0  0.03601  0.66360  0.66011  1.0000
  H   H7        1.0  0.96397  0.16359  0.83987  1.0000
  H   H8        1.0  0.96402  0.33640  0.33989  1.0000
  H   H9        1.0  0.62178  0.67155  0.12562  1.0000
  H   H10       1.0  0.62178  0.82845  0.62562  1.0000
  H   H11       1.0  0.37820  0.32845  0.87438  1.0000
  H   H12       1.0  0.37826  0.17155  0.37438  1.0000
  H   H13       1.0  0.09979  0.84895  0.30773  1.0000
  H   H14       1.0  0.09977  0.65105  0.80772  1.0000
  H   H15       1.0  0.90024  0.15106  0.69226  1.0000
  H   H16       1.0  0.90023  0.34893  0.19228  1.0000
  H   H17       1.0  0.40670  0.56456  0.26423  1.0000
  H   H18       1.0  0.40671  0.93544  0.76423  1.0000
  H   H19       1.0  0.59328  0.43545  0.73578  1.0000
  H   H20       1.0  0.59331  0.06455  0.23577  1.0000
  C   C1        1.0  0.68643  0.69199  0.18383  1.0000
  C   C2        1.0  0.68643  0.80801  0.68382  1.0000
  C   C3        1.0  0.31358  0.30802  0.81617  1.0000
  C   C4        1.0  0.31361  0.19200  0.31617  1.0000
  C   C5        1.0  0.93858  0.78712  0.27797  1.0000
  C   C6        1.0  0.93857  0.71287  0.77796  1.0000
  C   C7        1.0  0.06142  0.21288  0.72202  1.0000
  C   C8        1.0  0.06142  0.28711  0.22204  1.0000
  C   C9        1.0  0.58180  0.63996  0.25252  1.0000
  C   C10       1.0  0.58179  0.86004  0.75251  1.0000
  C   C11       1.0  0.41821  0.36005  0.74749  1.0000
  C   C12       1.0  0.41823  0.13997  0.24749  1.0000
  N   N1        1.0  0.74089  0.70028  0.31084  1.0000
  N   N2        1.0  0.74087  0.79971  0.81083  1.0000
  N   N3        1.0  0.25915  0.29973  0.68917  1.0000
  N   N4        1.0  0.25913  0.20027  0.18917  1.0000
  N   N5        1.0  0.90988  0.78454  0.20129  1.0000
  N   N6        1.0  0.90987  0.71546  0.70129  1.0000
  N   N7        1.0  0.09013  0.21547  0.79871  1.0000
  N   N8        1.0  0.09013  0.28454  0.29872  1.0000
  O   O1        1.0  0.31294  0.68510  0.43972  1.0000
  O   O2        1.0  0.31293  0.81488  0.93972  1.0000
  O   O3        1.0  0.68706  0.31490  0.56027  1.0000
  O   O4        1.0  0.68705  0.18511  0.06028  1.0000
  O   O5        1.0  0.20531  0.60639  0.57838  1.0000
  O   O6        1.0  0.20531  0.89361  0.07838  1.0000
  O   O7        1.0  0.79469  0.39361  0.42163  1.0000
  O   O8        1.0  0.79468  0.10638  0.92162  1.0000
  O   O9        1.0  0.87978  0.77765  0.49601  1.0000
  O   O10       1.0  0.87977  0.72236  0.99601  1.0000
  O   O11       1.0  0.12021  0.22236  0.50399  1.0000
  O   O12       1.0  0.12022  0.27764  0.00399  1.0000
  O   O13       1.0  0.28802  0.91598  0.54863  1.0000
  O   O14       1.0  0.28800  0.58402  0.04863  1.0000
  O   O15       1.0  0.71198  0.08403  0.45138  1.0000
  O   O16       1.0  0.71198  0.41597  0.95137  1.0000
