data_image0
_chemical_formula_structural       U2H8C12N2O10
_chemical_formula_sum              "U2 H8 C12 N2 O10"
_cell_length_a       6.18171
_cell_length_b       7.94305
_cell_length_c       8.33534
_cell_angle_alpha    79.7827
_cell_angle_beta     88.0702
_cell_angle_gamma    76.6374

_space_group_name_H-M_alt    "P 1"
_space_group_IT_number       1

loop_
  _space_group_symop_operation_xyz
  'x, y, z'

loop_
  _atom_site_type_symbol
  _atom_site_label
  _atom_site_symmetry_multiplicity
  _atom_site_fract_x
  _atom_site_fract_y
  _atom_site_fract_z
  _atom_site_occupancy
  U   U1        1.0  0.08291  0.37317  0.18757  1.0000
  U   U2        1.0  0.91710  0.62683  0.81243  1.0000
  H   H1        1.0  0.00783  0.10146  0.58425  1.0000
  H   H2        1.0  0.99217  0.89854  0.41575  1.0000
  H   H3        1.0  0.15889  0.03575  0.86754  1.0000
  H   H4        1.0  0.84111  0.96425  0.13246  1.0000
  H   H5        1.0  0.50618  0.13599  0.91916  1.0000
  H   H6        1.0  0.49381  0.86401  0.08084  1.0000
  H   H7        1.0  0.70942  0.25963  0.67704  1.0000
  H   H8        1.0  0.29057  0.74037  0.32297  1.0000
  C   C1        1.0  0.16524  0.13088  0.60953  1.0000
  C   C2        1.0  0.83476  0.86912  0.39047  1.0000
  C   C3        1.0  0.24945  0.09722  0.76862  1.0000
  C   C4        1.0  0.75055  0.90278  0.23138  1.0000
  C   C5        1.0  0.44297  0.14903  0.79623  1.0000
  C   C6        1.0  0.55702  0.85097  0.20378  1.0000
  C   C7        1.0  0.55598  0.21872  0.66267  1.0000
  C   C8        1.0  0.44402  0.78129  0.33734  1.0000
  C   C9        1.0  0.58807  0.29238  0.35443  1.0000
  C   C10       1.0  0.41193  0.70762  0.64557  1.0000
  C   C11       1.0  0.46734  0.23779  0.50686  1.0000
  C   C12       1.0  0.53266  0.76222  0.49314  1.0000
  N   N1        1.0  0.26967  0.20207  0.48067  1.0000
  N   N2        1.0  0.73034  0.79793  0.51933  1.0000
  O   O1        1.0  0.07233  0.56256  0.28732  1.0000
  O   O2        1.0  0.92769  0.43744  0.71267  1.0000
  O   O3        1.0  0.11096  0.15827  0.12662  1.0000
  O   O4        1.0  0.88904  0.84172  0.87337  1.0000
  O   O5        1.0  0.48171  0.31967  0.22123  1.0000
  O   O6        1.0  0.51830  0.68032  0.77877  1.0000
  O   O7        1.0  0.78983  0.30046  0.36743  1.0000
  O   O8        1.0  0.21017  0.69954  0.63256  1.0000
  O   O9        1.0  0.19561  0.49282  0.95857  1.0000
  O   O10       1.0  0.80439  0.50718  0.04142  1.0000
