data_image0
_chemical_formula_structural       U4H16C28N4O24
_chemical_formula_sum              "U4 H16 C28 N4 O24"
_cell_length_a       7.91655
_cell_length_b       10.4075
_cell_length_c       11.9702
_cell_angle_alpha    109.643
_cell_angle_beta     89.9996
_cell_angle_gamma    90.0001

_space_group_name_H-M_alt    "P 1"
_space_group_IT_number       1

loop_
  _space_group_symop_operation_xyz
  'x, y, z'

loop_
  _atom_site_type_symbol
  _atom_site_label
  _atom_site_symmetry_multiplicity
  _atom_site_fract_x
  _atom_site_fract_y
  _atom_site_fract_z
  _atom_site_occupancy
  U   U1        1.0  0.27519  0.24027  0.86479  1.0000
  U   U2        1.0  0.77519  0.75974  0.63521  1.0000
  U   U3        1.0  0.72481  0.75973  0.13522  1.0000
  U   U4        1.0  0.22481  0.24027  0.36478  1.0000
  H   H1        1.0  0.18343  0.97872  0.52782  1.0000
  H   H2        1.0  0.68342  0.02128  0.97218  1.0000
  H   H3        1.0  0.81658  0.02128  0.47218  1.0000
  H   H4        1.0  0.31658  0.97872  0.02782  1.0000
  H   H5        1.0  0.08312  0.78064  0.35252  1.0000
  H   H6        1.0  0.58312  0.21936  0.14749  1.0000
  H   H7        1.0  0.91687  0.21937  0.64748  1.0000
  H   H8        1.0  0.41688  0.78064  0.85251  1.0000
  H   H9        1.0  0.26201  0.56816  0.28608  1.0000
  H   H10       1.0  0.76200  0.43184  0.21392  1.0000
  H   H11       1.0  0.73799  0.43184  0.71392  1.0000
  H   H12       1.0  0.23800  0.56816  0.78608  1.0000
  H   H13       1.0  0.52700  0.56054  0.39515  1.0000
  H   H14       1.0  0.02700  0.43946  0.10485  1.0000
  H   H15       1.0  0.47300  0.43946  0.60485  1.0000
  H   H16       1.0  0.97300  0.56054  0.89515  1.0000
  C   C1        1.0  0.43100  0.52578  0.04756  1.0000
  C   C2        1.0  0.93099  0.47423  0.45244  1.0000
  C   C3        1.0  0.56901  0.47423  0.95245  1.0000
  C   C4        1.0  0.06900  0.52577  0.54756  1.0000
  C   C5        1.0  0.47051  0.98139  0.65670  1.0000
  C   C6        1.0  0.97050  0.01861  0.84331  1.0000
  C   C7        1.0  0.52950  0.01860  0.34330  1.0000
  C   C8        1.0  0.02950  0.98140  0.15670  1.0000
  C   C9        1.0  0.40432  0.87082  0.55102  1.0000
  C   C10       1.0  0.90432  0.12918  0.94898  1.0000
  C   C11       1.0  0.59568  0.12918  0.44898  1.0000
  C   C12       1.0  0.09569  0.87081  0.05102  1.0000
  C   C13       1.0  0.25489  0.88426  0.49502  1.0000
  C   C14       1.0  0.75490  0.11574  0.00498  1.0000
  C   C15       1.0  0.74510  0.11575  0.50498  1.0000
  C   C16       1.0  0.24510  0.88426  0.99502  1.0000
  C   C17       1.0  0.20066  0.77457  0.39778  1.0000
  C   C18       1.0  0.70066  0.22543  0.10223  1.0000
  C   C19       1.0  0.79934  0.22543  0.60222  1.0000
  C   C20       1.0  0.29934  0.77457  0.89777  1.0000
  C   C21       1.0  0.29820  0.65665  0.36113  1.0000
  C   C22       1.0  0.79820  0.34335  0.13887  1.0000
  C   C23       1.0  0.70180  0.34335  0.63887  1.0000
  C   C24       1.0  0.20180  0.65665  0.86113  1.0000
  C   C25       1.0  0.44731  0.65110  0.42207  1.0000
  C   C26       1.0  0.94731  0.34890  0.07793  1.0000
  C   C27       1.0  0.55269  0.34890  0.57792  1.0000
  C   C28       1.0  0.05269  0.65110  0.92207  1.0000
  N   N1        1.0  0.49993  0.75581  0.51571  1.0000
  N   N2        1.0  0.99993  0.24419  0.98429  1.0000
  N   N3        1.0  0.50007  0.24419  0.48429  1.0000
  N   N4        1.0  0.00007  0.75581  0.01571  1.0000
  O   O1        1.0  0.29878  0.45352  0.03347  1.0000
  O   O2        1.0  0.79880  0.54648  0.46652  1.0000
  O   O3        1.0  0.70121  0.54648  0.96653  1.0000
  O   O4        1.0  0.20121  0.45351  0.53347  1.0000
  O   O5        1.0  0.16448  0.33170  0.78256  1.0000
  O   O6        1.0  0.66448  0.66830  0.71744  1.0000
  O   O7        1.0  0.83552  0.66830  0.21744  1.0000
  O   O8        1.0  0.33551  0.33170  0.28256  1.0000
  O   O9        1.0  0.46335  0.63561  0.13081  1.0000
  O   O10       1.0  0.96335  0.36439  0.36918  1.0000
  O   O11       1.0  0.53665  0.36439  0.86918  1.0000
  O   O12       1.0  0.03665  0.63561  0.63081  1.0000
  O   O13       1.0  0.37711  0.15212  0.95264  1.0000
  O   O14       1.0  0.87712  0.84789  0.54736  1.0000
  O   O15       1.0  0.62289  0.84789  0.04736  1.0000
  O   O16       1.0  0.12288  0.15211  0.45264  1.0000
  O   O17       1.0  0.39813  0.09732  0.69061  1.0000
  O   O18       1.0  0.89813  0.90268  0.80939  1.0000
  O   O19       1.0  0.60187  0.90268  0.30939  1.0000
  O   O20       1.0  0.10187  0.09732  0.19061  1.0000
  O   O21       1.0  0.59880  0.95292  0.70799  1.0000
  O   O22       1.0  0.09880  0.04708  0.79201  1.0000
  O   O23       1.0  0.40120  0.04708  0.29201  1.0000
  O   O24       1.0  0.90120  0.95292  0.20799  1.0000
