data_image0
_chemical_formula_structural       U4H12C24N8O24
_chemical_formula_sum              "U4 H12 C24 N8 O24"
_cell_length_a       9.27684
_cell_length_b       9.6119
_cell_length_c       11.0576
_cell_angle_alpha    89.9998
_cell_angle_beta     102.903
_cell_angle_gamma    90.0006

_space_group_name_H-M_alt    "P 1"
_space_group_IT_number       1

loop_
  _space_group_symop_operation_xyz
  'x, y, z'

loop_
  _atom_site_type_symbol
  _atom_site_label
  _atom_site_symmetry_multiplicity
  _atom_site_fract_x
  _atom_site_fract_y
  _atom_site_fract_z
  _atom_site_occupancy
  U   U1        1.0  0.71774  0.31986  0.87970  1.0000
  U   U2        1.0  0.28223  0.81985  0.62032  1.0000
  U   U3        1.0  0.28225  0.68014  0.12030  1.0000
  U   U4        1.0  0.71777  0.18015  0.37968  1.0000
  H   H1        1.0  0.95057  0.11343  0.11674  1.0000
  H   H2        1.0  0.04943  0.61343  0.38326  1.0000
  H   H3        1.0  0.04943  0.88657  0.88326  1.0000
  H   H4        1.0  0.95057  0.38657  0.61674  1.0000
  H   H5        1.0  0.59185  0.75716  0.93837  1.0000
  H   H6        1.0  0.40815  0.25717  0.56162  1.0000
  H   H7        1.0  0.40815  0.24283  0.06163  1.0000
  H   H8        1.0  0.59185  0.74283  0.43838  1.0000
  H   H9        1.0  0.96636  0.86850  0.20346  1.0000
  H   H10       1.0  0.03365  0.36850  0.29653  1.0000
  H   H11       1.0  0.03364  0.13150  0.79654  1.0000
  H   H12       1.0  0.96635  0.63150  0.70346  1.0000
  C   C1        1.0  0.87027  0.03360  0.07777  1.0000
  C   C2        1.0  0.12972  0.53360  0.42223  1.0000
  C   C3        1.0  0.12973  0.96640  0.92223  1.0000
  C   C4        1.0  0.87028  0.46640  0.57777  1.0000
  C   C5        1.0  0.66157  0.97182  0.93332  1.0000
  C   C6        1.0  0.33842  0.47183  0.56668  1.0000
  C   C7        1.0  0.33843  0.02817  0.06668  1.0000
  C   C8        1.0  0.66158  0.52817  0.43332  1.0000
  C   C9        1.0  0.67244  0.83607  0.97983  1.0000
  C   C10       1.0  0.32756  0.33607  0.52017  1.0000
  C   C11       1.0  0.32756  0.16393  0.02018  1.0000
  C   C12       1.0  0.67244  0.66393  0.47983  1.0000
  C   C13       1.0  0.53959  0.02000  0.82952  1.0000
  C   C14       1.0  0.46040  0.51999  0.67049  1.0000
  C   C15       1.0  0.46041  0.98000  0.17048  1.0000
  C   C16       1.0  0.53960  0.48001  0.32951  1.0000
  C   C17       1.0  0.87764  0.89787  0.12525  1.0000
  C   C18       1.0  0.12237  0.39787  0.37475  1.0000
  C   C19       1.0  0.12236  0.10212  0.87475  1.0000
  C   C20       1.0  0.87764  0.60213  0.62525  1.0000
  C   C21       1.0  0.03260  0.43832  0.04130  1.0000
  C   C22       1.0  0.96740  0.93833  0.45869  1.0000
  C   C23       1.0  0.96740  0.56168  0.95870  1.0000
  C   C24       1.0  0.03261  0.06169  0.54130  1.0000
  N   N1        1.0  0.76154  0.07066  0.98203  1.0000
  N   N2        1.0  0.23846  0.57066  0.51798  1.0000
  N   N3        1.0  0.23846  0.92934  0.01798  1.0000
  N   N4        1.0  0.76154  0.42934  0.48202  1.0000
  N   N5        1.0  0.78053  0.79898  0.07672  1.0000
  N   N6        1.0  0.21947  0.29899  0.42327  1.0000
  N   N7        1.0  0.21947  0.20101  0.92328  1.0000
  N   N8        1.0  0.78053  0.70101  0.57673  1.0000
  O   O1        1.0  0.95186  0.33111  0.03383  1.0000
  O   O2        1.0  0.04813  0.83111  0.46617  1.0000
  O   O3        1.0  0.04813  0.66889  0.96617  1.0000
  O   O4        1.0  0.95187  0.16890  0.53382  1.0000
  O   O5        1.0  0.61290  0.36768  0.99182  1.0000
  O   O6        1.0  0.38710  0.86769  0.50818  1.0000
  O   O7        1.0  0.38710  0.63232  0.00818  1.0000
  O   O8        1.0  0.61290  0.13231  0.49182  1.0000
  O   O9        1.0  0.82569  0.26284  0.77185  1.0000
  O   O10       1.0  0.17431  0.76284  0.72814  1.0000
  O   O11       1.0  0.17431  0.73716  0.22815  1.0000
  O   O12       1.0  0.82569  0.23717  0.27186  1.0000
  O   O13       1.0  0.16001  0.45595  0.10986  1.0000
  O   O14       1.0  0.84000  0.95596  0.39013  1.0000
  O   O15       1.0  0.83998  0.54405  0.89014  1.0000
  O   O16       1.0  0.16001  0.04405  0.60987  1.0000
  O   O17       1.0  0.54079  0.14697  0.79883  1.0000
  O   O18       1.0  0.45921  0.64697  0.70117  1.0000
  O   O19       1.0  0.45921  0.85303  0.20117  1.0000
  O   O20       1.0  0.54079  0.35303  0.29882  1.0000
  O   O21       1.0  0.43996  0.93391  0.78059  1.0000
  O   O22       1.0  0.56002  0.43391  0.71942  1.0000
  O   O23       1.0  0.56005  0.06609  0.21940  1.0000
  O   O24       1.0  0.43997  0.56609  0.28059  1.0000
