data_image0
_chemical_formula_structural       Zn4H26C36N30O2
_chemical_formula_sum              "Zn4 H26 C36 N30 O2"
_cell_length_a       10.0391
_cell_length_b       10.4901
_cell_length_c       11.8474
_cell_angle_alpha    71.2547
_cell_angle_beta     66.9409
_cell_angle_gamma    79.3989

_space_group_name_H-M_alt    "P 1"
_space_group_IT_number       1

loop_
  _space_group_symop_operation_xyz
  'x, y, z'

loop_
  _atom_site_type_symbol
  _atom_site_label
  _atom_site_symmetry_multiplicity
  _atom_site_fract_x
  _atom_site_fract_y
  _atom_site_fract_z
  _atom_site_occupancy
  Zn  Zn1       1.0  0.21535  0.02667  0.33479  1.0000
  Zn  Zn2       1.0  0.78465  0.97333  0.66521  1.0000
  Zn  Zn3       1.0  0.00786  0.30914  0.28679  1.0000
  Zn  Zn4       1.0  0.99214  0.69086  0.71321  1.0000
  H   H1        1.0  0.18331  0.86977  0.72739  1.0000
  H   H2        1.0  0.81669  0.13023  0.27261  1.0000
  H   H3        1.0  0.21701  0.93536  0.89885  1.0000
  H   H4        1.0  0.78299  0.06464  0.10115  1.0000
  H   H5        1.0  0.86224  0.69407  0.17225  1.0000
  H   H6        1.0  0.13776  0.30593  0.82775  1.0000
  H   H7        1.0  0.84332  0.63351  0.99109  1.0000
  H   H8        1.0  0.15668  0.36649  0.00891  1.0000
  H   H9        1.0  0.74385  0.41605  0.21916  1.0000
  H   H10       1.0  0.25615  0.58396  0.78084  1.0000
  H   H11       1.0  0.54250  0.59233  0.26858  1.0000
  H   H12       1.0  0.45751  0.40767  0.73142  1.0000
  H   H13       1.0  0.70440  0.62905  0.54499  1.0000
  H   H14       1.0  0.29560  0.37095  0.45501  1.0000
  H   H15       1.0  0.88972  0.44678  0.49253  1.0000
  H   H16       1.0  0.11028  0.55322  0.50747  1.0000
  H   H17       1.0  0.35378  0.08034  0.04293  1.0000
  H   H18       1.0  0.64622  0.91966  0.95707  1.0000
  H   H19       1.0  0.54311  0.22837  0.86541  1.0000
  H   H20       1.0  0.45688  0.77163  0.13459  1.0000
  H   H21       1.0  0.58705  0.37441  0.15075  1.0000
  H   H22       1.0  0.41295  0.62559  0.84926  1.0000
  H   H23       1.0  0.40795  0.21462  0.31583  1.0000
  H   H24       1.0  0.59205  0.78538  0.68417  1.0000
  H   H25       1.0  0.04576  0.15856  0.49017  1.0000
  H   H26       1.0  0.95424  0.84145  0.50983  1.0000
  C   C1        1.0  0.11452  0.83240  0.82752  1.0000
  C   C2        1.0  0.88548  0.16759  0.17248  1.0000
  C   C3        1.0  0.13295  0.86850  0.92313  1.0000
  C   C4        1.0  0.86705  0.13150  0.07687  1.0000
  C   C5        1.0  0.04261  0.81786  0.05030  1.0000
  C   C6        1.0  0.95739  0.18214  0.94970  1.0000
  C   C7        1.0  0.93507  0.73375  0.07499  1.0000
  C   C8        1.0  0.06493  0.26625  0.92501  1.0000
  C   C9        1.0  0.92374  0.70088  0.97523  1.0000
  C   C10       1.0  0.07626  0.29912  0.02477  1.0000
  C   C11       1.0  0.05648  0.84898  0.15605  1.0000
  C   C12       1.0  0.94352  0.15102  0.84395  1.0000
  C   C13       1.0  0.72979  0.46546  0.29148  1.0000
  C   C14       1.0  0.27021  0.53454  0.70852  1.0000
  C   C15       1.0  0.62028  0.56528  0.31713  1.0000
  C   C16       1.0  0.37972  0.43472  0.68287  1.0000
  C   C17       1.0  0.60956  0.62902  0.40850  1.0000
  C   C18       1.0  0.39044  0.37098  0.59149  1.0000
  C   C19       1.0  0.70738  0.58444  0.47302  1.0000
  C   C20       1.0  0.29262  0.41556  0.52698  1.0000
  C   C21       1.0  0.81238  0.48231  0.44355  1.0000
  C   C22       1.0  0.18762  0.51769  0.55645  1.0000
  C   C23       1.0  0.49950  0.73746  0.43615  1.0000
  C   C24       1.0  0.50050  0.26254  0.56385  1.0000
  C   C25       1.0  0.40925  0.14724  0.06163  1.0000
  C   C26       1.0  0.59075  0.85276  0.93837  1.0000
  C   C27       1.0  0.51252  0.23067  0.96384  1.0000
  C   C28       1.0  0.48748  0.76933  0.03616  1.0000
  C   C29       1.0  0.57776  0.31689  0.99366  1.0000
  C   C30       1.0  0.42223  0.68311  0.00634  1.0000
  C   C31       1.0  0.53882  0.31077  0.12252  1.0000
  C   C32       1.0  0.46118  0.68923  0.87748  1.0000
  C   C33       1.0  0.43683  0.22284  0.21501  1.0000
  C   C34       1.0  0.56317  0.77716  0.78499  1.0000
  C   C35       1.0  0.68240  0.40918  0.89277  1.0000
  C   C36       1.0  0.31760  0.59082  0.10723  1.0000
  N   N1        1.0  0.15550  0.92712  0.14611  1.0000
  N   N2        1.0  0.84450  0.07288  0.85389  1.0000
  N   N3        1.0  0.12500  0.92676  0.26603  1.0000
  N   N4        1.0  0.87500  0.07324  0.73397  1.0000
  N   N5        1.0  0.01243  0.85205  0.34581  1.0000
  N   N6        1.0  0.98757  0.14795  0.65419  1.0000
  N   N7        1.0  0.96761  0.80205  0.27896  1.0000
  N   N8        1.0  0.03239  0.19795  0.72103  1.0000
  N   N9        1.0  0.01233  0.74884  0.85294  1.0000
  N   N10       1.0  0.98767  0.25115  0.14706  1.0000
  N   N11       1.0  0.42325  0.80456  0.36094  1.0000
  N   N12       1.0  0.57675  0.19544  0.63906  1.0000
  N   N13       1.0  0.33461  0.89132  0.42305  1.0000
  N   N14       1.0  0.66539  0.10868  0.57695  1.0000
  N   N15       1.0  0.35506  0.87890  0.53145  1.0000
  N   N16       1.0  0.64495  0.12110  0.46855  1.0000
  N   N17       1.0  0.45903  0.78256  0.54121  1.0000
  N   N18       1.0  0.54097  0.21744  0.45879  1.0000
  N   N19       1.0  0.82585  0.42480  0.35239  1.0000
  N   N20       1.0  0.17415  0.57520  0.64761  1.0000
  N   N21       1.0  0.76163  0.48730  0.91026  1.0000
  N   N22       1.0  0.23837  0.51270  0.08974  1.0000
  N   N23       1.0  0.83875  0.55387  0.79131  1.0000
  N   N24       1.0  0.16125  0.44613  0.20869  1.0000
  N   N25       1.0  0.80864  0.51861  0.70516  1.0000
  N   N26       1.0  0.19136  0.48139  0.29484  1.0000
  N   N27       1.0  0.71044  0.42778  0.76703  1.0000
  N   N28       1.0  0.28956  0.57222  0.23297  1.0000
  N   N29       1.0  0.37104  0.14350  0.18542  1.0000
  N   N30       1.0  0.62896  0.85650  0.81458  1.0000
  O   O1        1.0  0.06486  0.15418  0.40238  1.0000
  O   O2        1.0  0.93514  0.84582  0.59762  1.0000
