data_image0
_chemical_formula_structural       Cd2H22C24N10Cl4O6
_chemical_formula_sum              "Cd2 H22 C24 N10 Cl4 O6"
_cell_length_a       7.29636
_cell_length_b       9.19171
_cell_length_c       11.4376
_cell_angle_alpha    83.2615
_cell_angle_beta     89.1449
_cell_angle_gamma    88.0897

_space_group_name_H-M_alt    "P 1"
_space_group_IT_number       1

loop_
  _space_group_symop_operation_xyz
  'x, y, z'

loop_
  _atom_site_type_symbol
  _atom_site_label
  _atom_site_symmetry_multiplicity
  _atom_site_fract_x
  _atom_site_fract_y
  _atom_site_fract_z
  _atom_site_occupancy
  Cd  Cd1       1.0  0.24903  0.42297  0.49514  1.0000
  Cd  Cd2       1.0  0.75097  0.57703  0.50486  1.0000
  H   H1        1.0  0.48289  0.42296  0.27302  1.0000
  H   H2        1.0  0.51711  0.57704  0.72698  1.0000
  H   H3        1.0  0.07075  0.23926  0.72292  1.0000
  H   H4        1.0  0.92925  0.76075  0.27708  1.0000
  H   H5        1.0  0.01575  0.97732  0.80671  1.0000
  H   H6        1.0  0.98424  0.02269  0.19328  1.0000
  H   H7        1.0  0.11045  0.77722  0.68532  1.0000
  H   H8        1.0  0.88954  0.22278  0.31468  1.0000
  H   H9        1.0  0.26529  0.84240  0.49029  1.0000
  H   H10       1.0  0.73471  0.15760  0.50971  1.0000
  H   H11       1.0  0.38329  0.03274  0.33675  1.0000
  H   H12       1.0  0.61672  0.96725  0.66325  1.0000
  H   H13       1.0  0.66286  0.55248  0.17828  1.0000
  H   H14       1.0  0.33714  0.44752  0.82173  1.0000
  H   H15       1.0  0.83831  0.43294  0.83510  1.0000
  H   H16       1.0  0.16169  0.56706  0.16490  1.0000
  H   H17       1.0  0.72166  0.19408  0.83909  1.0000
  H   H18       1.0  0.27833  0.80592  0.16091  1.0000
  H   H19       1.0  0.52770  0.15140  0.93236  1.0000
  H   H20       1.0  0.47230  0.84860  0.06764  1.0000
  H   H21       1.0  0.75050  0.08924  0.98111  1.0000
  H   H22       1.0  0.24950  0.91076  0.01889  1.0000
  C   C1        1.0  0.11081  0.14720  0.67496  1.0000
  C   C2        1.0  0.88918  0.85281  0.32503  1.0000
  C   C3        1.0  0.08060  0.00266  0.72073  1.0000
  C   C4        1.0  0.91939  0.99735  0.27927  1.0000
  C   C5        1.0  0.13500  0.89139  0.65358  1.0000
  C   C6        1.0  0.86500  0.10862  0.34643  1.0000
  C   C7        1.0  0.21987  0.92722  0.54444  1.0000
  C   C8        1.0  0.78013  0.07278  0.45556  1.0000
  C   C9        1.0  0.24734  0.07494  0.50471  1.0000
  C   C10       1.0  0.75266  0.92506  0.49529  1.0000
  C   C11       1.0  0.34184  0.11699  0.39233  1.0000
  C   C12       1.0  0.65816  0.88301  0.60767  1.0000
  C   C13       1.0  0.53466  0.24631  0.17434  1.0000
  C   C14       1.0  0.46534  0.75368  0.82566  1.0000
  C   C15       1.0  0.63561  0.34936  0.09128  1.0000
  C   C16       1.0  0.36439  0.65064  0.90872  1.0000
  C   C17       1.0  0.68511  0.49154  0.10345  1.0000
  C   C18       1.0  0.31489  0.50846  0.89655  1.0000
  C   C19       1.0  0.77494  0.54390  0.99788  1.0000
  C   C20       1.0  0.22506  0.45610  0.00212  1.0000
  C   C21       1.0  0.77997  0.43339  0.92298  1.0000
  C   C22       1.0  0.22003  0.56661  0.07703  1.0000
  C   C23       1.0  0.67268  0.17867  0.93046  1.0000
  C   C24       1.0  0.32732  0.82133  0.06955  1.0000
  N   N1        1.0  0.19081  0.18192  0.56989  1.0000
  N   N2        1.0  0.80919  0.81808  0.43011  1.0000
  N   N3        1.0  0.37637  0.25417  0.36568  1.0000
  N   N4        1.0  0.62363  0.74583  0.63432  1.0000
  N   N5        1.0  0.46855  0.31258  0.27063  1.0000
  N   N6        1.0  0.53145  0.68742  0.72937  1.0000
  N   N7        1.0  0.69612  0.31641  0.98027  1.0000
  N   N8        1.0  0.30388  0.68359  0.01973  1.0000
  N   N9        1.0  0.84746  0.68583  0.97188  1.0000
  N   N10       1.0  0.15254  0.31417  0.02812  1.0000
  Cl  Cl1       1.0  0.95760  0.47320  0.35111  1.0000
  Cl  Cl2       1.0  0.04240  0.52680  0.64889  1.0000
  Cl  Cl3       1.0  0.43409  0.62364  0.37042  1.0000
  Cl  Cl4       1.0  0.56592  0.37636  0.62958  1.0000
  O   O1        1.0  0.50788  0.11685  0.16219  1.0000
  O   O2        1.0  0.49212  0.88315  0.83781  1.0000
  O   O3        1.0  0.91910  0.71849  0.87297  1.0000
  O   O4        1.0  0.08090  0.28151  0.12704  1.0000
  O   O5        1.0  0.83552  0.77087  0.04967  1.0000
  O   O6        1.0  0.16449  0.22913  0.95033  1.0000
