data_image0
_chemical_formula_structural       Cu4H16C24S4Br4N8
_chemical_formula_sum              "Cu4 H16 C24 S4 Br4 N8"
_cell_length_a       3.77501
_cell_length_b       8.43294
_cell_length_c       23.978
_cell_angle_alpha    90.0002
_cell_angle_beta     90.0005
_cell_angle_gamma    91.9257

_space_group_name_H-M_alt    "P 1"
_space_group_IT_number       1

loop_
  _space_group_symop_operation_xyz
  'x, y, z'

loop_
  _atom_site_type_symbol
  _atom_site_label
  _atom_site_symmetry_multiplicity
  _atom_site_fract_x
  _atom_site_fract_y
  _atom_site_fract_z
  _atom_site_occupancy
  Cu  Cu1       1.0  0.93647  0.95088  0.18736  1.0000
  Cu  Cu2       1.0  0.56353  0.54912  0.68737  1.0000
  Cu  Cu3       1.0  0.06353  0.04912  0.81264  1.0000
  Cu  Cu4       1.0  0.43647  0.45088  0.31263  1.0000
  H   H1        1.0  0.17861  0.00694  0.06881  1.0000
  H   H2        1.0  0.32138  0.49306  0.56881  1.0000
  H   H3        1.0  0.82138  0.99306  0.93119  1.0000
  H   H4        1.0  0.67861  0.50694  0.43119  1.0000
  H   H5        1.0  0.14985  0.51326  0.04230  1.0000
  H   H6        1.0  0.35015  0.98674  0.54229  1.0000
  H   H7        1.0  0.85014  0.48674  0.95770  1.0000
  H   H8        1.0  0.64987  0.01326  0.45770  1.0000
  H   H9        1.0  0.88019  0.53603  0.13694  1.0000
  H   H10       1.0  0.61981  0.96397  0.63694  1.0000
  H   H11       1.0  0.11981  0.46397  0.86307  1.0000
  H   H12       1.0  0.38021  0.03603  0.36306  1.0000
  H   H13       1.0  0.78494  0.29174  0.19466  1.0000
  H   H14       1.0  0.71506  0.20826  0.69466  1.0000
  H   H15       1.0  0.21505  0.70826  0.80534  1.0000
  H   H16       1.0  0.28496  0.79174  0.30534  1.0000
  C   C1        1.0  0.42908  0.65407  0.20827  1.0000
  C   C2        1.0  0.07091  0.84593  0.70827  1.0000
  C   C3        1.0  0.57091  0.34593  0.79173  1.0000
  C   C4        1.0  0.92909  0.15407  0.29173  1.0000
  C   C5        1.0  0.11823  0.12582  0.08289  1.0000
  C   C6        1.0  0.38176  0.37418  0.58289  1.0000
  C   C7        1.0  0.88175  0.87418  0.91711  1.0000
  C   C8        1.0  0.61824  0.62582  0.41711  1.0000
  C   C9        1.0  0.17699  0.25744  0.04874  1.0000
  C   C10       1.0  0.32301  0.24256  0.54874  1.0000
  C   C11       1.0  0.82299  0.74256  0.95126  1.0000
  C   C12       1.0  0.67700  0.75744  0.45126  1.0000
  C   C13       1.0  0.09809  0.40821  0.06774  1.0000
  C   C14       1.0  0.40192  0.09179  0.56774  1.0000
  C   C15       1.0  0.90190  0.59179  0.93226  1.0000
  C   C16       1.0  0.59810  0.90821  0.43226  1.0000
  C   C17       1.0  0.95138  0.42085  0.12076  1.0000
  C   C18       1.0  0.54862  0.07915  0.62076  1.0000
  C   C19       1.0  0.04861  0.57915  0.87924  1.0000
  C   C20       1.0  0.45140  0.92084  0.37924  1.0000
  C   C21       1.0  0.89767  0.28504  0.15295  1.0000
  C   C22       1.0  0.60233  0.21496  0.65295  1.0000
  C   C23       1.0  0.10233  0.71496  0.84705  1.0000
  C   C24       1.0  0.39768  0.78504  0.34705  1.0000
  S   S1        1.0  0.42729  0.80396  0.16408  1.0000
  S   S2        1.0  0.07270  0.69604  0.66409  1.0000
  S   S3        1.0  0.57270  0.19604  0.83592  1.0000
  S   S4        1.0  0.92730  0.30396  0.33591  1.0000
  Br  Br1       1.0  0.35327  0.23046  0.97499  1.0000
  Br  Br2       1.0  0.14674  0.26955  0.47499  1.0000
  Br  Br3       1.0  0.64669  0.76954  0.02501  1.0000
  Br  Br4       1.0  0.85329  0.73046  0.52501  1.0000
  N   N1        1.0  0.43231  0.54524  0.23938  1.0000
  N   N2        1.0  0.06767  0.95476  0.73938  1.0000
  N   N3        1.0  0.56768  0.45476  0.76062  1.0000
  N   N4        1.0  0.93232  0.04524  0.26062  1.0000
  N   N5        1.0  0.98266  0.13972  0.13467  1.0000
  N   N6        1.0  0.51734  0.36028  0.63467  1.0000
  N   N7        1.0  0.01734  0.86028  0.86534  1.0000
  N   N8        1.0  0.48267  0.63972  0.36533  1.0000
