data_image0
_chemical_formula_structural       Cu2H16C24N8O4
_chemical_formula_sum              "Cu2 H16 C24 N8 O4"
_cell_length_a       6.33181
_cell_length_b       8.46186
_cell_length_c       11.5877
_cell_angle_alpha    109.136
_cell_angle_beta     90.0002
_cell_angle_gamma    90

_space_group_name_H-M_alt    "P 1"
_space_group_IT_number       1

loop_
  _space_group_symop_operation_xyz
  'x, y, z'

loop_
  _atom_site_type_symbol
  _atom_site_label
  _atom_site_symmetry_multiplicity
  _atom_site_fract_x
  _atom_site_fract_y
  _atom_site_fract_z
  _atom_site_occupancy
  Cu  Cu1       1.0  0.14279  0.51283  0.01092  1.0000
  Cu  Cu2       1.0  0.64280  0.48717  0.98908  1.0000
  H   H1        1.0  0.61080  0.80353  0.76585  1.0000
  H   H2        1.0  0.11080  0.19648  0.23415  1.0000
  H   H3        1.0  0.59273  0.86984  0.57321  1.0000
  H   H4        1.0  0.09273  0.13017  0.42679  1.0000
  H   H5        1.0  0.18386  0.61218  0.45769  1.0000
  H   H6        1.0  0.68387  0.38782  0.54231  1.0000
  H   H7        1.0  0.20230  0.55095  0.65200  1.0000
  H   H8        1.0  0.70230  0.44904  0.34799  1.0000
  H   H9        1.0  0.69874  0.01488  0.45635  1.0000
  H   H10       1.0  0.19875  0.98512  0.54365  1.0000
  H   H11       1.0  0.69340  0.06663  0.25594  1.0000
  H   H12       1.0  0.19341  0.93337  0.74405  1.0000
  H   H13       1.0  0.87460  0.86490  0.07708  1.0000
  H   H14       1.0  0.37460  0.13510  0.92292  1.0000
  H   H15       1.0  0.03383  0.55542  0.27534  1.0000
  H   H16       1.0  0.53383  0.44458  0.72466  1.0000
  C   C1        1.0  0.91240  0.62464  0.83425  1.0000
  C   C2        1.0  0.41239  0.37536  0.16575  1.0000
  C   C3        1.0  0.90659  0.67116  0.72034  1.0000
  C   C4        1.0  0.40660  0.32884  0.27966  1.0000
  C   C5        1.0  0.73543  0.76212  0.69772  1.0000
  C   C6        1.0  0.23543  0.23789  0.30228  1.0000
  C   C7        1.0  0.72678  0.79948  0.58965  1.0000
  C   C8        1.0  0.22678  0.20053  0.41035  1.0000
  C   C9        1.0  0.88537  0.74481  0.50035  1.0000
  C   C10       1.0  0.38538  0.25520  0.49965  1.0000
  C   C11       1.0  0.05673  0.65419  0.52422  1.0000
  C   C12       1.0  0.55674  0.34582  0.47578  1.0000
  C   C13       1.0  0.06820  0.61943  0.63348  1.0000
  C   C14       1.0  0.56820  0.38057  0.36652  1.0000
  C   C15       1.0  0.87241  0.78211  0.38464  1.0000
  C   C16       1.0  0.37242  0.21788  0.61536  1.0000
  C   C17       1.0  0.77147  0.92563  0.37600  1.0000
  C   C18       1.0  0.27147  0.07436  0.62400  1.0000
  C   C19       1.0  0.76954  0.95592  0.26500  1.0000
  C   C20       1.0  0.26954  0.04408  0.73500  1.0000
  C   C21       1.0  0.86947  0.84281  0.16450  1.0000
  C   C22       1.0  0.36947  0.15720  0.83550  1.0000
  C   C23       1.0  0.96165  0.67318  0.27706  1.0000
  C   C24       1.0  0.46165  0.32682  0.72294  1.0000
  N   N1        1.0  0.96175  0.70236  0.17015  1.0000
  N   N2        1.0  0.46174  0.29764  0.82985  1.0000
  N   N3        1.0  0.40738  0.65386  0.05118  1.0000
  N   N4        1.0  0.90738  0.34613  0.94882  1.0000
  N   N5        1.0  0.40747  0.78640  0.03118  1.0000
  N   N6        1.0  0.90747  0.21360  0.96882  1.0000
  N   N7        1.0  0.40803  0.91550  0.01664  1.0000
  N   N8        1.0  0.90804  0.08450  0.98337  1.0000
  O   O1        1.0  0.73376  0.61667  0.88280  1.0000
  O   O2        1.0  0.23376  0.38333  0.11720  1.0000
  O   O3        1.0  0.09269  0.59600  0.87177  1.0000
  O   O4        1.0  0.59269  0.40400  0.12823  1.0000
