data_image0
_chemical_formula_structural       Zn4H36C16S4N28O4
_chemical_formula_sum              "Zn4 H36 C16 S4 N28 O4"
_cell_length_a       10.0157
_cell_length_b       10.2478
_cell_length_c       10.2807
_cell_angle_alpha    89.9999
_cell_angle_beta     102.43
_cell_angle_gamma    90.0001

_space_group_name_H-M_alt    "P 1"
_space_group_IT_number       1

loop_
  _space_group_symop_operation_xyz
  'x, y, z'

loop_
  _atom_site_type_symbol
  _atom_site_label
  _atom_site_symmetry_multiplicity
  _atom_site_fract_x
  _atom_site_fract_y
  _atom_site_fract_z
  _atom_site_occupancy
  Zn  Zn1       1.0  0.64551  0.41065  0.05220  1.0000
  Zn  Zn2       1.0  0.35449  0.91065  0.44780  1.0000
  Zn  Zn3       1.0  0.35449  0.58935  0.94780  1.0000
  Zn  Zn4       1.0  0.64551  0.08935  0.55220  1.0000
  H   H1        1.0  0.54844  0.03166  0.24985  1.0000
  H   H2        1.0  0.45156  0.53166  0.25015  1.0000
  H   H3        1.0  0.45156  0.96834  0.75015  1.0000
  H   H4        1.0  0.54844  0.46834  0.74985  1.0000
  H   H5        1.0  0.55857  0.11842  0.10222  1.0000
  H   H6        1.0  0.44143  0.61842  0.39778  1.0000
  H   H7        1.0  0.44142  0.88158  0.89778  1.0000
  H   H8        1.0  0.55858  0.38158  0.60222  1.0000
  H   H9        1.0  0.42091  0.14808  0.18243  1.0000
  H   H10       1.0  0.57909  0.64808  0.31757  1.0000
  H   H11       1.0  0.57908  0.85192  0.81757  1.0000
  H   H12       1.0  0.42092  0.35192  0.68243  1.0000
  H   H13       1.0  0.01032  0.22391  0.03061  1.0000
  H   H14       1.0  0.98968  0.72391  0.46939  1.0000
  H   H15       1.0  0.98968  0.77609  0.96939  1.0000
  H   H16       1.0  0.01032  0.27609  0.53061  1.0000
  H   H17       1.0  0.16295  0.25846  0.15554  1.0000
  H   H18       1.0  0.83705  0.75846  0.34445  1.0000
  H   H19       1.0  0.83705  0.74154  0.84446  1.0000
  H   H20       1.0  0.16295  0.24154  0.65555  1.0000
  H   H21       1.0  0.10533  0.37242  0.01968  1.0000
  H   H22       1.0  0.89467  0.87242  0.48032  1.0000
  H   H23       1.0  0.89467  0.62758  0.98032  1.0000
  H   H24       1.0  0.10533  0.12758  0.51968  1.0000
  H   H25       1.0  0.11437  0.56409  0.16947  1.0000
  H   H26       1.0  0.88563  0.06409  0.33053  1.0000
  H   H27       1.0  0.88563  0.43591  0.83053  1.0000
  H   H28       1.0  0.11437  0.93591  0.66948  1.0000
  H   H29       1.0  0.17449  0.46897  0.31984  1.0000
  H   H30       1.0  0.82551  0.96897  0.18016  1.0000
  H   H31       1.0  0.82551  0.53103  0.68016  1.0000
  H   H32       1.0  0.17448  0.03104  0.81984  1.0000
  H   H33       1.0  0.02901  0.57394  0.30747  1.0000
  H   H34       1.0  0.97099  0.07394  0.19254  1.0000
  H   H35       1.0  0.97099  0.42606  0.69254  1.0000
  H   H36       1.0  0.02901  0.92606  0.80747  1.0000
  C   C1        1.0  0.61261  0.22915  0.28143  1.0000
  C   C2        1.0  0.38738  0.72915  0.21857  1.0000
  C   C3        1.0  0.38738  0.77085  0.71857  1.0000
  C   C4        1.0  0.61262  0.27085  0.78143  1.0000
  C   C5        1.0  0.53075  0.12631  0.19937  1.0000
  C   C6        1.0  0.46925  0.62631  0.30063  1.0000
  C   C7        1.0  0.46925  0.87369  0.80063  1.0000
  C   C8        1.0  0.53075  0.37369  0.69937  1.0000
  C   C9        1.0  0.07426  0.30072  0.08676  1.0000
  C   C10       1.0  0.92574  0.80072  0.41324  1.0000
  C   C11       1.0  0.92574  0.69928  0.91324  1.0000
  C   C12       1.0  0.07426  0.19928  0.58676  1.0000
  C   C13       1.0  0.08548  0.51116  0.25199  1.0000
  C   C14       1.0  0.91452  0.01116  0.24802  1.0000
  C   C15       1.0  0.91452  0.48884  0.74802  1.0000
  C   C16       1.0  0.08548  0.98884  0.75198  1.0000
  S   S1        1.0  0.97119  0.38168  0.18479  1.0000
  S   S2        1.0  0.02881  0.88168  0.31521  1.0000
  S   S3        1.0  0.02881  0.61832  0.81521  1.0000
  S   S4        1.0  0.97119  0.11832  0.68479  1.0000
  N   N1        1.0  0.40388  0.40379  0.99982  1.0000
  N   N2        1.0  0.59612  0.90379  0.50018  1.0000
  N   N3        1.0  0.59612  0.59620  0.00018  1.0000
  N   N4        1.0  0.40388  0.09621  0.49982  1.0000
  N   N5        1.0  0.34560  0.31122  0.94027  1.0000
  N   N6        1.0  0.65440  0.81122  0.55973  1.0000
  N   N7        1.0  0.65440  0.68878  0.05973  1.0000
  N   N8        1.0  0.34560  0.18878  0.44027  1.0000
  N   N9        1.0  0.29369  0.21901  0.88598  1.0000
  N   N10       1.0  0.70631  0.71901  0.61402  1.0000
  N   N11       1.0  0.70631  0.78098  0.11402  1.0000
  N   N12       1.0  0.29370  0.28098  0.38598  1.0000
  N   N13       1.0  0.65694  0.34099  0.23705  1.0000
  N   N14       1.0  0.34306  0.84099  0.26294  1.0000
  N   N15       1.0  0.34306  0.65901  0.76294  1.0000
  N   N16       1.0  0.65694  0.15901  0.73706  1.0000
  N   N17       1.0  0.72807  0.40669  0.34491  1.0000
  N   N18       1.0  0.27193  0.90669  0.15509  1.0000
  N   N19       1.0  0.27193  0.59331  0.65509  1.0000
  N   N20       1.0  0.72808  0.09331  0.84491  1.0000
  N   N21       1.0  0.72732  0.33799  0.45112  1.0000
  N   N22       1.0  0.27268  0.83799  0.04888  1.0000
  N   N23       1.0  0.27268  0.66201  0.54888  1.0000
  N   N24       1.0  0.72732  0.16201  0.95112  1.0000
  N   N25       1.0  0.65581  0.22621  0.41437  1.0000
  N   N26       1.0  0.34418  0.72621  0.08563  1.0000
  N   N27       1.0  0.34418  0.77379  0.58563  1.0000
  N   N28       1.0  0.65582  0.27379  0.91437  1.0000
  O   O1        1.0  0.85832  0.45039  0.08246  1.0000
  O   O2        1.0  0.14168  0.95039  0.41754  1.0000
  O   O3        1.0  0.14168  0.54961  0.91754  1.0000
  O   O4        1.0  0.85832  0.04961  0.58246  1.0000
