data_image0
_chemical_formula_structural       Zn4H24C36O16
_chemical_formula_sum              "Zn4 H24 C36 O16"
_cell_length_a       4.59958
_cell_length_b       11.9061
_cell_length_c       15.3933
_cell_angle_alpha    89.9998
_cell_angle_beta     94.5222
_cell_angle_gamma    89.9999

_space_group_name_H-M_alt    "P 1"
_space_group_IT_number       1

loop_
  _space_group_symop_operation_xyz
  'x, y, z'

loop_
  _atom_site_type_symbol
  _atom_site_label
  _atom_site_symmetry_multiplicity
  _atom_site_fract_x
  _atom_site_fract_y
  _atom_site_fract_z
  _atom_site_occupancy
  Zn  Zn1       1.0  0.31303  0.12825  0.49393  1.0000
  Zn  Zn2       1.0  0.68698  0.62825  0.00607  1.0000
  Zn  Zn3       1.0  0.68698  0.87175  0.50607  1.0000
  Zn  Zn4       1.0  0.31302  0.37175  0.99393  1.0000
  H   H1        1.0  0.18851  0.40995  0.46156  1.0000
  H   H2        1.0  0.81149  0.90996  0.03844  1.0000
  H   H3        1.0  0.81151  0.59004  0.53844  1.0000
  H   H4        1.0  0.18850  0.09004  0.96156  1.0000
  H   H5        1.0  0.12198  0.57165  0.21049  1.0000
  H   H6        1.0  0.87802  0.07166  0.28951  1.0000
  H   H7        1.0  0.87802  0.42835  0.78951  1.0000
  H   H8        1.0  0.12197  0.92835  0.71049  1.0000
  H   H9        1.0  0.58267  0.28630  0.25713  1.0000
  H   H10       1.0  0.41734  0.78630  0.24287  1.0000
  H   H11       1.0  0.41734  0.71370  0.74287  1.0000
  H   H12       1.0  0.58266  0.21370  0.75713  1.0000
  H   H13       1.0  0.28829  0.67427  0.37595  1.0000
  H   H14       1.0  0.71170  0.17427  0.12405  1.0000
  H   H15       1.0  0.71170  0.32572  0.62405  1.0000
  H   H16       1.0  0.28830  0.82572  0.87595  1.0000
  H   H17       1.0  0.57803  0.59819  0.33407  1.0000
  H   H18       1.0  0.42197  0.09819  0.16593  1.0000
  H   H19       1.0  0.42198  0.40181  0.66593  1.0000
  H   H20       1.0  0.57803  0.90181  0.83407  1.0000
  H   H21       1.0  0.47896  0.57206  0.44150  1.0000
  H   H22       1.0  0.52104  0.07206  0.05850  1.0000
  H   H23       1.0  0.52105  0.42794  0.55850  1.0000
  H   H24       1.0  0.47896  0.92794  0.94150  1.0000
  C   C1        1.0  0.79096  0.24992  0.42595  1.0000
  C   C2        1.0  0.20904  0.74992  0.07405  1.0000
  C   C3        1.0  0.20904  0.75009  0.57405  1.0000
  C   C4        1.0  0.79096  0.25009  0.92595  1.0000
  C   C5        1.0  0.09506  0.41644  0.39451  1.0000
  C   C6        1.0  0.90494  0.91644  0.10549  1.0000
  C   C7        1.0  0.90494  0.58356  0.60549  1.0000
  C   C8        1.0  0.09506  0.08356  0.89451  1.0000
  C   C9        1.0  0.05653  0.50678  0.25494  1.0000
  C   C10       1.0  0.94347  0.00678  0.24506  1.0000
  C   C11       1.0  0.94347  0.49322  0.74506  1.0000
  C   C12       1.0  0.05652  0.99322  0.75494  1.0000
  C   C13       1.0  0.75333  0.34495  0.27992  1.0000
  C   C14       1.0  0.24668  0.84495  0.22008  1.0000
  C   C15       1.0  0.24667  0.65505  0.72008  1.0000
  C   C16       1.0  0.75332  0.15505  0.77992  1.0000
  C   C17       1.0  0.18009  0.50325  0.34094  1.0000
  C   C18       1.0  0.81990  0.00325  0.15906  1.0000
  C   C19       1.0  0.81992  0.49675  0.65906  1.0000
  C   C20       1.0  0.18008  0.99675  0.84094  1.0000
  C   C21       1.0  0.88415  0.33758  0.36481  1.0000
  C   C22       1.0  0.11585  0.83759  0.13519  1.0000
  C   C23       1.0  0.11585  0.66242  0.63519  1.0000
  C   C24       1.0  0.88415  0.16241  0.86481  1.0000
  C   C25       1.0  0.39300  0.59141  0.37474  1.0000
  C   C26       1.0  0.60700  0.09141  0.12526  1.0000
  C   C27       1.0  0.60700  0.40859  0.62526  1.0000
  C   C28       1.0  0.39300  0.90859  0.87474  1.0000
  C   C29       1.0  0.70873  0.43935  0.13367  1.0000
  C   C30       1.0  0.29128  0.93935  0.36634  1.0000
  C   C31       1.0  0.29127  0.56065  0.86634  1.0000
  C   C32       1.0  0.70872  0.06065  0.63367  1.0000
  C   C33       1.0  0.84399  0.42884  0.22442  1.0000
  C   C34       1.0  0.15602  0.92884  0.27558  1.0000
  C   C35       1.0  0.15602  0.57117  0.77558  1.0000
  C   C36       1.0  0.84398  0.07117  0.72442  1.0000
  O   O1        1.0  0.95687  0.22323  0.49334  1.0000
  O   O2        1.0  0.04313  0.72324  0.00666  1.0000
  O   O3        1.0  0.04313  0.77677  0.50666  1.0000
  O   O4        1.0  0.95687  0.27676  0.99334  1.0000
  O   O5        1.0  0.53682  0.20851  0.40861  1.0000
  O   O6        1.0  0.46318  0.70851  0.09139  1.0000
  O   O7        1.0  0.46319  0.79149  0.59139  1.0000
  O   O8        1.0  0.53681  0.29149  0.90861  1.0000
  O   O9        1.0  0.47631  0.38278  0.11361  1.0000
  O   O10       1.0  0.52369  0.88278  0.38639  1.0000
  O   O11       1.0  0.52369  0.61722  0.88639  1.0000
  O   O12       1.0  0.47630  0.11722  0.61361  1.0000
  O   O13       1.0  0.83265  0.50390  0.08169  1.0000
  O   O14       1.0  0.16735  0.00390  0.41831  1.0000
  O   O15       1.0  0.16735  0.49610  0.91831  1.0000
  O   O16       1.0  0.83264  0.99610  0.58169  1.0000
