data_image0
_chemical_formula_structural       Sn2H30Au2C40N4
_chemical_formula_sum              "Sn2 H30 Au2 C40 N4"
_cell_length_a       7.24666
_cell_length_b       11.8847
_cell_length_c       11.8846
_cell_angle_alpha    105.323
_cell_angle_beta     103.196
_cell_angle_gamma    103.196

_space_group_name_H-M_alt    "P 1"
_space_group_IT_number       1

loop_
  _space_group_symop_operation_xyz
  'x, y, z'

loop_
  _atom_site_type_symbol
  _atom_site_label
  _atom_site_symmetry_multiplicity
  _atom_site_fract_x
  _atom_site_fract_y
  _atom_site_fract_z
  _atom_site_occupancy
  Sn  Sn1       1.0  0.74999  0.69041  0.30959  1.0000
  Sn  Sn2       1.0  0.25000  0.30959  0.69041  1.0000
  H   H1        1.0  0.07567  0.58216  0.41706  1.0000
  H   H2        1.0  0.42433  0.58294  0.41784  1.0000
  H   H3        1.0  0.92433  0.41784  0.58295  1.0000
  H   H4        1.0  0.57567  0.41705  0.58216  1.0000
  H   H5        1.0  0.14618  0.38273  0.36918  1.0000
  H   H6        1.0  0.35383  0.63083  0.61728  1.0000
  H   H7        1.0  0.85383  0.61728  0.63083  1.0000
  H   H8        1.0  0.64618  0.36917  0.38272  1.0000
  H   H9        1.0  0.92808  0.20920  0.18447  1.0000
  H   H10       1.0  0.57193  0.81553  0.79081  1.0000
  H   H11       1.0  0.07193  0.79080  0.81553  1.0000
  H   H12       1.0  0.42807  0.18447  0.20920  1.0000
  H   H13       1.0  0.63536  0.23379  0.04458  1.0000
  H   H14       1.0  0.86465  0.95542  0.76621  1.0000
  H   H15       1.0  0.36466  0.76621  0.95542  1.0000
  H   H16       1.0  0.13535  0.04458  0.23379  1.0000
  H   H17       1.0  0.55836  0.42930  0.09474  1.0000
  H   H18       1.0  0.94163  0.90526  0.57069  1.0000
  H   H19       1.0  0.44164  0.57069  0.90526  1.0000
  H   H20       1.0  0.05836  0.09474  0.42930  1.0000
  H   H21       1.0  0.90089  0.70903  0.08240  1.0000
  H   H22       1.0  0.59911  0.91760  0.29097  1.0000
  H   H23       1.0  0.09910  0.29097  0.91760  1.0000
  H   H24       1.0  0.40089  0.08240  0.70903  1.0000
  H   H25       1.0  0.89616  0.83810  0.95057  1.0000
  H   H26       1.0  0.60385  0.04943  0.16190  1.0000
  H   H27       1.0  0.10384  0.16190  0.04943  1.0000
  H   H28       1.0  0.39615  0.95058  0.83810  1.0000
  H   H29       1.0  0.75000  0.01010  0.98990  1.0000
  H   H30       1.0  0.25000  0.98990  0.01010  1.0000
  Au  Au1       1.0  0.50000  0.00000  0.50000  1.0000
  Au  Au2       1.0  1.00000  0.50000  1.00000  1.0000
  C   C1        1.0  0.24224  0.87046  0.44075  1.0000
  C   C2        1.0  0.25776  0.55925  0.12955  1.0000
  C   C3        1.0  0.75777  0.12955  0.55926  1.0000
  C   C4        1.0  0.74224  0.44075  0.87045  1.0000
  C   C5        1.0  0.81253  0.51985  0.25919  1.0000
  C   C6        1.0  0.68746  0.74081  0.48015  1.0000
  C   C7        1.0  0.18747  0.48015  0.74081  1.0000
  C   C8        1.0  0.31253  0.25919  0.51985  1.0000
  C   C9        1.0  0.97787  0.50567  0.33586  1.0000
  C   C10       1.0  0.52213  0.66415  0.49433  1.0000
  C   C11       1.0  0.02213  0.49433  0.66415  1.0000
  C   C12       1.0  0.47787  0.33585  0.50567  1.0000
  C   C13       1.0  0.01872  0.39399  0.30890  1.0000
  C   C14       1.0  0.48129  0.69110  0.60601  1.0000
  C   C15       1.0  0.98129  0.60601  0.69110  1.0000
  C   C16       1.0  0.51871  0.30889  0.39399  1.0000
  C   C17       1.0  0.89570  0.29614  0.20424  1.0000
  C   C18       1.0  0.60431  0.79577  0.70387  1.0000
  C   C19       1.0  0.10431  0.70386  0.79577  1.0000
  C   C20       1.0  0.39569  0.20423  0.29614  1.0000
  C   C21       1.0  0.73156  0.30952  0.12692  1.0000
  C   C22       1.0  0.76845  0.87308  0.69048  1.0000
  C   C23       1.0  0.26845  0.69048  0.87308  1.0000
  C   C24       1.0  0.23155  0.12692  0.30952  1.0000
  C   C25       1.0  0.68899  0.42086  0.15483  1.0000
  C   C26       1.0  0.81101  0.84517  0.57914  1.0000
  C   C27       1.0  0.31101  0.57914  0.84517  1.0000
  C   C28       1.0  0.18899  0.15483  0.42086  1.0000
  C   C29       1.0  0.75000  0.80387  0.19613  1.0000
  C   C30       1.0  0.25000  0.19613  0.80387  1.0000
  C   C31       1.0  0.83410  0.78313  0.10038  1.0000
  C   C32       1.0  0.66590  0.89962  0.21687  1.0000
  C   C33       1.0  0.16589  0.21687  0.89962  1.0000
  C   C34       1.0  0.33410  0.10038  0.78313  1.0000
  C   C35       1.0  0.83305  0.85656  0.02593  1.0000
  C   C36       1.0  0.66695  0.97407  0.14344  1.0000
  C   C37       1.0  0.16695  0.14344  0.97407  1.0000
  C   C38       1.0  0.33305  0.02593  0.85656  1.0000
  C   C39       1.0  0.75000  0.95235  0.04765  1.0000
  C   C40       1.0  0.25000  0.04765  0.95235  1.0000
  N   N1        1.0  0.08563  0.79653  0.40540  1.0000
  N   N2        1.0  0.41436  0.59460  0.20348  1.0000
  N   N3        1.0  0.91436  0.20347  0.59460  1.0000
  N   N4        1.0  0.58563  0.40540  0.79652  1.0000
