data_image0
_chemical_formula_structural       Cd3H44C36N28O6
_chemical_formula_sum              "Cd3 H44 C36 N28 O6"
_cell_length_a       11.7718
_cell_length_b       12.1409
_cell_length_c       13.949
_cell_angle_alpha    93.2173
_cell_angle_beta     113.74
_cell_angle_gamma    108.537

_space_group_name_H-M_alt    "P 1"
_space_group_IT_number       1

loop_
  _space_group_symop_operation_xyz
  'x, y, z'

loop_
  _atom_site_type_symbol
  _atom_site_label
  _atom_site_symmetry_multiplicity
  _atom_site_fract_x
  _atom_site_fract_y
  _atom_site_fract_z
  _atom_site_occupancy
  Cd  Cd1       1.0  1.00000  0.50000  0.50000  1.0000
  Cd  Cd2       1.0  0.89072  0.77154  0.55312  1.0000
  Cd  Cd3       1.0  0.10928  0.22846  0.44688  1.0000
  H   H1        1.0  0.50702  0.66061  0.12376  1.0000
  H   H2        1.0  0.49298  0.33939  0.87624  1.0000
  H   H3        1.0  0.64792  0.38695  0.07150  1.0000
  H   H4        1.0  0.35208  0.61305  0.92850  1.0000
  H   H5        1.0  0.12895  0.46238  0.90695  1.0000
  H   H6        1.0  0.87105  0.53762  0.09305  1.0000
  H   H7        1.0  0.82077  0.57806  0.90978  1.0000
  H   H8        1.0  0.17924  0.42194  0.09022  1.0000
  H   H9        1.0  0.62427  0.89911  0.44442  1.0000
  H   H10       1.0  0.37573  0.10089  0.55558  1.0000
  H   H11       1.0  0.56679  0.21912  0.52532  1.0000
  H   H12       1.0  0.43321  0.78088  0.47468  1.0000
  H   H13       1.0  0.87410  0.02577  0.62043  1.0000
  H   H14       1.0  0.12590  0.97423  0.37957  1.0000
  H   H15       1.0  0.89791  0.20264  0.67855  1.0000
  H   H16       1.0  0.10209  0.79737  0.32145  1.0000
  H   H17       1.0  0.06736  0.30098  0.75187  1.0000
  H   H18       1.0  0.93265  0.69902  0.24813  1.0000
  H   H19       1.0  0.96878  0.24776  0.82068  1.0000
  H   H20       1.0  0.03122  0.75224  0.17932  1.0000
  H   H21       1.0  0.16774  0.05133  0.85567  1.0000
  H   H22       1.0  0.83226  0.94867  0.14433  1.0000
  H   H23       1.0  0.13538  0.15034  0.93283  1.0000
  H   H24       1.0  0.86462  0.84966  0.06717  1.0000
  H   H25       1.0  0.23455  0.20904  0.86518  1.0000
  H   H26       1.0  0.76546  0.79096  0.13482  1.0000
  H   H27       1.0  0.77260  0.79563  0.72312  1.0000
  H   H28       1.0  0.22740  0.20437  0.27687  1.0000
  H   H29       1.0  0.68603  0.75161  0.83072  1.0000
  H   H30       1.0  0.31397  0.24839  0.16928  1.0000
  H   H31       1.0  0.58404  0.59731  0.79853  1.0000
  H   H32       1.0  0.41596  0.40269  0.20147  1.0000
  H   H33       1.0  0.50749  0.70444  0.77680  1.0000
  H   H34       1.0  0.49251  0.29556  0.22320  1.0000
  H   H35       1.0  0.46818  0.58988  0.50590  1.0000
  H   H36       1.0  0.53182  0.41012  0.49410  1.0000
  H   H37       1.0  0.37288  0.61671  0.57085  1.0000
  H   H38       1.0  0.62712  0.38329  0.42915  1.0000
  H   H39       1.0  0.43835  0.50114  0.59768  1.0000
  H   H40       1.0  0.56165  0.49886  0.40232  1.0000
  H   H41       1.0  0.82452  0.96513  0.42778  1.0000
  H   H42       1.0  0.17548  0.03487  0.57222  1.0000
  H   H43       1.0  0.77273  0.83185  0.35866  1.0000
  H   H44       1.0  0.22727  0.16815  0.64134  1.0000
  C   C1        1.0  0.67860  0.55360  0.22383  1.0000
  C   C2        1.0  0.32140  0.44640  0.77617  1.0000
  C   C3        1.0  0.58774  0.52701  0.10996  1.0000
  C   C4        1.0  0.41226  0.47299  0.89004  1.0000
  C   C5        1.0  0.50421  0.59087  0.06906  1.0000
  C   C6        1.0  0.49579  0.40913  0.93094  1.0000
  C   C7        1.0  0.58236  0.43572  0.03958  1.0000
  C   C8        1.0  0.41764  0.56428  0.96042  1.0000
  C   C9        1.0  0.94582  0.54553  0.78958  1.0000
  C   C10       1.0  0.05418  0.45447  0.21042  1.0000
  C   C11       1.0  0.97133  0.52200  0.89634  1.0000
  C   C12       1.0  0.02867  0.47800  0.10366  1.0000
  C   C13       1.0  0.07179  0.47725  0.94791  1.0000
  C   C14       1.0  0.92821  0.52275  0.05209  1.0000
  C   C15       1.0  0.89992  0.54476  0.94983  1.0000
  C   C16       1.0  0.10008  0.45524  0.05017  1.0000
  C   C17       1.0  0.72147  0.14049  0.46560  1.0000
  C   C18       1.0  0.27853  0.85951  0.53440  1.0000
  C   C19       1.0  0.60799  0.06775  0.48166  1.0000
  C   C20       1.0  0.39202  0.93225  0.51834  1.0000
  C   C21       1.0  0.56983  0.94376  0.46819  1.0000
  C   C22       1.0  0.43017  0.05624  0.53181  1.0000
  C   C23       1.0  0.53696  0.12301  0.51390  1.0000
  C   C24       1.0  0.46304  0.87699  0.48609  1.0000
  C   C25       1.0  0.96032  0.02176  0.68988  1.0000
  C   C26       1.0  0.03968  0.97824  0.31012  1.0000
  C   C27       1.0  0.98879  0.22374  0.75354  1.0000
  C   C28       1.0  0.01122  0.77626  0.24647  1.0000
  C   C29       1.0  0.14897  0.13372  0.86050  1.0000
  C   C30       1.0  0.85103  0.86628  0.13950  1.0000
  C   C31       1.0  0.68404  0.73864  0.64969  1.0000
  C   C32       1.0  0.31596  0.26136  0.35031  1.0000
  C   C33       1.0  0.59019  0.68286  0.77418  1.0000
  C   C34       1.0  0.40981  0.31714  0.22581  1.0000
  C   C35       1.0  0.45726  0.59055  0.58012  1.0000
  C   C36       1.0  0.54274  0.40946  0.41988  1.0000
  N   N1        1.0  0.74355  0.48285  0.27060  1.0000
  N   N2        1.0  0.25645  0.51715  0.72940  1.0000
  N   N3        1.0  0.81515  0.53780  0.37299  1.0000
  N   N4        1.0  0.18485  0.46220  0.62701  1.0000
  N   N5        1.0  0.79470  0.63738  0.38848  1.0000
  N   N6        1.0  0.20530  0.36261  0.61152  1.0000
  N   N7        1.0  0.70922  0.65061  0.29606  1.0000
  N   N8        1.0  0.29078  0.34939  0.70393  1.0000
  N   N9        1.0  0.90434  0.63253  0.75052  1.0000
  N   N10       1.0  0.09566  0.36747  0.24948  1.0000
  N   N11       1.0  0.90464  0.62590  0.65491  1.0000
  N   N12       1.0  0.09536  0.37410  0.34509  1.0000
  N   N13       1.0  0.94306  0.53798  0.63670  1.0000
  N   N14       1.0  0.05694  0.46202  0.36330  1.0000
  N   N15       1.0  0.96946  0.48570  0.71958  1.0000
  N   N16       1.0  0.03054  0.51431  0.28042  1.0000
  N   N17       1.0  0.75873  0.25929  0.47441  1.0000
  N   N18       1.0  0.24127  0.74071  0.52559  1.0000
  N   N19       1.0  0.86907  0.29275  0.46070  1.0000
  N   N20       1.0  0.13093  0.70725  0.53930  1.0000
  N   N21       1.0  0.89895  0.19922  0.44377  1.0000
  N   N22       1.0  0.10105  0.80078  0.55623  1.0000
  N   N23       1.0  0.80766  0.10166  0.44618  1.0000
  N   N24       1.0  0.19234  0.89834  0.55382  1.0000
  N   N25       1.0  0.02906  0.12178  0.76535  1.0000
  N   N26       1.0  0.97094  0.87822  0.23465  1.0000
  N   N27       1.0  0.58077  0.67505  0.66674  1.0000
  N   N28       1.0  0.41923  0.32495  0.33326  1.0000
  O   O1        1.0  0.98906  0.93039  0.69615  1.0000
  O   O2        1.0  0.01094  0.06961  0.30385  1.0000
  O   O3        1.0  0.68379  0.73564  0.55937  1.0000
  O   O4        1.0  0.31621  0.26437  0.44063  1.0000
  O   O5        1.0  0.84306  0.89002  0.42397  1.0000
  O   O6        1.0  0.15694  0.10998  0.57602  1.0000
