data_image0
_chemical_formula_structural       Zn4H44C58N4O16
_chemical_formula_sum              "Zn4 H44 C58 N4 O16"
_cell_length_a       7.3782
_cell_length_b       10.9207
_cell_length_c       17.422
_cell_angle_alpha    85.7104
_cell_angle_beta     77.2003
_cell_angle_gamma    70.237

_space_group_name_H-M_alt    "P 1"
_space_group_IT_number       1

loop_
  _space_group_symop_operation_xyz
  'x, y, z'

loop_
  _atom_site_type_symbol
  _atom_site_label
  _atom_site_symmetry_multiplicity
  _atom_site_fract_x
  _atom_site_fract_y
  _atom_site_fract_z
  _atom_site_occupancy
  Zn  Zn1       1.0  0.59275  0.52897  0.90893  1.0000
  Zn  Zn2       1.0  0.12207  0.47085  0.40875  1.0000
  Zn  Zn3       1.0  0.09596  0.43513  0.85450  1.0000
  Zn  Zn4       1.0  0.53089  0.56504  0.35442  1.0000
  H   H1        1.0  0.12101  0.05001  0.88015  1.0000
  H   H2        1.0  0.17082  0.94984  0.38020  1.0000
  H   H3        1.0  0.03422  0.85747  0.93705  1.0000
  H   H4        1.0  0.89134  0.14244  0.43716  1.0000
  H   H5        1.0  0.68521  0.86009  0.95532  1.0000
  H   H6        1.0  0.54492  0.13983  0.45553  1.0000
  H   H7        1.0  0.43008  0.05996  0.91937  1.0000
  H   H8        1.0  0.48966  0.94005  0.41950  1.0000
  H   H9        1.0  0.58228  0.73307  0.10052  1.0000
  H   H10       1.0  0.31583  0.26687  0.60044  1.0000
  H   H11       1.0  0.58889  0.85223  0.21632  1.0000
  H   H12       1.0  0.44189  0.14779  0.71618  1.0000
  H   H13       1.0  0.90958  0.87084  0.23074  1.0000
  H   H14       1.0  0.78102  0.12948  0.73063  1.0000
  H   H15       1.0  0.21618  0.75982  0.13756  1.0000
  H   H16       1.0  0.97626  0.24066  0.63748  1.0000
  H   H17       1.0  0.65145  0.46291  0.73598  1.0000
  H   H18       1.0  0.11517  0.53685  0.23580  1.0000
  H   H19       1.0  0.60677  0.58561  0.61129  1.0000
  H   H20       1.0  0.19330  0.41428  0.11107  1.0000
  H   H21       1.0  0.51433  0.93489  0.73700  1.0000
  H   H22       1.0  0.44890  0.06482  0.23684  1.0000
  H   H23       1.0  0.56700  0.79739  0.85610  1.0000
  H   H24       1.0  0.36444  0.20219  0.35595  1.0000
  H   H25       1.0  0.58087  0.92295  0.58312  1.0000
  H   H26       1.0  0.50429  0.07681  0.08290  1.0000
  H   H27       1.0  0.55617  0.78889  0.54073  1.0000
  H   H28       1.0  0.34537  0.21089  0.04057  1.0000
  H   H29       1.0  0.27007  0.00333  0.55015  1.0000
  H   H30       1.0  0.27355  0.99657  0.05000  1.0000
  H   H31       1.0  0.21872  0.98624  0.65262  1.0000
  H   H32       1.0  0.20529  0.01373  0.15247  1.0000
  H   H33       1.0  0.00556  0.91705  0.58193  1.0000
  H   H34       1.0  0.92270  0.08323  0.08186  1.0000
  H   H35       1.0  0.21351  0.79662  0.53072  1.0000
  H   H36       1.0  0.01048  0.20345  0.03060  1.0000
  H   H37       1.0  0.11913  0.86913  0.74902  1.0000
  H   H38       1.0  0.98862  0.13121  0.24891  1.0000
  H   H39       1.0  0.11143  0.69507  0.84744  1.0000
  H   H40       1.0  0.80646  0.30529  0.34730  1.0000
  H   H41       1.0  0.08366  0.45019  0.68257  1.0000
  H   H42       1.0  0.53383  0.55012  0.18237  1.0000
  H   H43       1.0  0.11254  0.60944  0.57456  1.0000
  H   H44       1.0  0.72216  0.39075  0.07439  1.0000
  C   C1        1.0  0.82436  0.16552  0.87300  1.0000
  C   C2        1.0  0.98958  0.83448  0.37302  1.0000
  C   C3        1.0  0.96870  0.05180  0.89070  1.0000
  C   C4        1.0  0.02024  0.94812  0.39077  1.0000
  C   C5        1.0  0.91911  0.94342  0.92206  1.0000
  C   C6        1.0  0.86222  0.05650  0.42219  1.0000
  C   C7        1.0  0.72471  0.94535  0.93227  1.0000
  C   C8        1.0  0.66971  0.05459  0.43239  1.0000
  C   C9        1.0  0.58211  0.05647  0.91260  1.0000
  C   C10       1.0  0.63823  0.94354  0.41265  1.0000
  C   C11       1.0  0.62797  0.16887  0.88510  1.0000
  C   C12       1.0  0.79655  0.83114  0.38511  1.0000
  C   C13       1.0  0.46633  0.28686  0.86831  1.0000
  C   C14       1.0  0.75303  0.71315  0.36826  1.0000
  C   C15       1.0  0.89771  0.27466  0.83985  1.0000
  C   C16       1.0  0.17203  0.72524  0.33991  1.0000
  C   C17       1.0  0.89357  0.67761  0.05569  1.0000
  C   C18       1.0  0.57150  0.32240  0.55552  1.0000
  C   C19       1.0  0.71993  0.74018  0.10957  1.0000
  C   C20       1.0  0.46062  0.25982  0.60943  1.0000
  C   C21       1.0  0.72406  0.80862  0.17310  1.0000
  C   C22       1.0  0.53332  0.19146  0.67296  1.0000
  C   C23       1.0  0.90339  0.81676  0.18187  1.0000
  C   C24       1.0  0.72067  0.18352  0.68175  1.0000
  C   C25       1.0  0.07766  0.75402  0.12876  1.0000
  C   C26       1.0  0.83202  0.24632  0.62864  1.0000
  C   C27       1.0  0.07556  0.68341  0.06537  1.0000
  C   C28       1.0  0.75924  0.31674  0.56520  1.0000
  C   C29       1.0  0.88435  0.60481  0.98821  1.0000
  C   C30       1.0  0.48952  0.39505  0.48798  1.0000
  C   C31       1.0  0.26392  0.62990  0.00482  1.0000
  C   C32       1.0  0.89417  0.37005  0.50461  1.0000
  C   C33       1.0  0.62128  0.56767  0.73345  1.0000
  C   C34       1.0  0.18958  0.43207  0.23328  1.0000
  C   C35       1.0  0.59311  0.63717  0.66451  1.0000
  C   C36       1.0  0.23087  0.36262  0.16432  1.0000
  C   C37       1.0  0.54724  0.77239  0.66420  1.0000
  C   C38       1.0  0.31997  0.22738  0.16400  1.0000
  C   C39       1.0  0.54343  0.83038  0.73402  1.0000
  C   C40       1.0  0.37380  0.16937  0.23386  1.0000
  C   C41       1.0  0.57345  0.75473  0.80062  1.0000
  C   C42       1.0  0.32829  0.24495  0.30048  1.0000
  C   C43       1.0  0.50080  0.85259  0.59268  1.0000
  C   C44       1.0  0.35379  0.14718  0.09249  1.0000
  C   C45       1.0  0.28016  0.93009  0.59740  1.0000
  C   C46       1.0  0.21056  0.06984  0.09725  1.0000
  C   C47       1.0  0.15234  0.84929  0.58712  1.0000
  C   C48       1.0  0.00192  0.15084  0.08703  1.0000
  C   C49       1.0  0.12478  0.75322  0.65155  1.0000
  C   C50       1.0  0.87829  0.24706  0.15142  1.0000
  C   C51       1.0  0.11348  0.77769  0.73061  1.0000
  C   C52       1.0  0.89141  0.22262  0.23048  1.0000
  C   C53       1.0  0.10557  0.68190  0.78674  1.0000
  C   C54       1.0  0.78750  0.31845  0.28659  1.0000
  C   C55       1.0  0.09650  0.54340  0.69375  1.0000
  C   C56       1.0  0.63994  0.45693  0.19357  1.0000
  C   C57       1.0  0.11126  0.63365  0.63429  1.0000
  C   C58       1.0  0.74509  0.36663  0.13413  1.0000
  N   N1        1.0  0.60847  0.62527  0.80113  1.0000
  N   N2        1.0  0.23413  0.37445  0.30098  1.0000
  N   N3        1.0  0.09881  0.56560  0.76861  1.0000
  N   N4        1.0  0.66439  0.43476  0.26845  1.0000
  O   O1        1.0  0.30382  0.26905  0.86624  1.0000
  O   O2        1.0  0.57265  0.73096  0.36626  1.0000
  O   O3        1.0  0.48869  0.39714  0.85620  1.0000
  O   O4        1.0  0.88581  0.60290  0.35605  1.0000
  O   O5        1.0  0.85986  0.37190  0.88792  1.0000
  O   O6        1.0  0.23160  0.62808  0.38802  1.0000
  O   O7        1.0  0.00857  0.26435  0.77397  1.0000
  O   O8        1.0  0.27254  0.73541  0.27401  1.0000
  O   O9        1.0  0.72163  0.63266  0.96647  1.0000
  O   O10       1.0  0.35488  0.36706  0.46617  1.0000
  O   O11       1.0  0.04702  0.51956  0.95694  1.0000
  O   O12       1.0  0.56689  0.48029  0.45675  1.0000
  O   O13       1.0  0.40058  0.52678  0.01862  1.0000
  O   O14       1.0  0.92798  0.47304  0.51842  1.0000
  O   O15       1.0  0.28492  0.69566  0.94239  1.0000
  O   O16       1.0  0.98073  0.30425  0.44217  1.0000
