data_image0
_chemical_formula_structural       Zn2H56C64N8O12
_chemical_formula_sum              "Zn2 H56 C64 N8 O12"
_cell_length_a       7.18658
_cell_length_b       13.8215
_cell_length_c       14.4158
_cell_angle_alpha    89.9999
_cell_angle_beta     101.863
_cell_angle_gamma    89.9997

_space_group_name_H-M_alt    "P 1"
_space_group_IT_number       1

loop_
  _space_group_symop_operation_xyz
  'x, y, z'

loop_
  _atom_site_type_symbol
  _atom_site_label
  _atom_site_symmetry_multiplicity
  _atom_site_fract_x
  _atom_site_fract_y
  _atom_site_fract_z
  _atom_site_occupancy
  Zn  Zn1       1.0  0.25000  0.25582  0.25000  1.0000
  Zn  Zn2       1.0  0.75000  0.74418  0.75000  1.0000
  H   H1        1.0  0.81881  0.27124  0.17214  1.0000
  H   H2        1.0  0.68120  0.27124  0.32786  1.0000
  H   H3        1.0  0.18120  0.72876  0.82786  1.0000
  H   H4        1.0  0.31880  0.72876  0.67214  1.0000
  H   H5        1.0  0.18248  0.04034  0.13635  1.0000
  H   H6        1.0  0.31754  0.04035  0.36365  1.0000
  H   H7        1.0  0.81753  0.95966  0.86365  1.0000
  H   H8        1.0  0.68247  0.95966  0.63635  1.0000
  H   H9        1.0  0.81362  0.99939  0.03739  1.0000
  H   H10       1.0  0.68640  0.99938  0.46261  1.0000
  H   H11       1.0  0.18638  0.00062  0.96261  1.0000
  H   H12       1.0  0.31361  0.00061  0.53738  1.0000
  H   H13       1.0  0.49495  0.18809  0.10991  1.0000
  H   H14       1.0  0.00506  0.18809  0.39009  1.0000
  H   H15       1.0  0.50505  0.81191  0.89009  1.0000
  H   H16       1.0  0.99494  0.81191  0.60990  1.0000
  H   H17       1.0  0.49135  0.07859  0.04383  1.0000
  H   H18       1.0  0.00866  0.07859  0.45617  1.0000
  H   H19       1.0  0.50865  0.92141  0.95617  1.0000
  H   H20       1.0  0.99135  0.92141  0.54383  1.0000
  H   H21       1.0  0.37242  0.24179  0.95436  1.0000
  H   H22       1.0  0.12759  0.24179  0.54564  1.0000
  H   H23       1.0  0.62758  0.75821  0.04564  1.0000
  H   H24       1.0  0.87241  0.75822  0.45436  1.0000
  H   H25       1.0  0.61097  0.27579  0.97508  1.0000
  H   H26       1.0  0.88905  0.27579  0.52492  1.0000
  H   H27       1.0  0.38904  0.72421  0.02492  1.0000
  H   H28       1.0  0.11096  0.72421  0.47508  1.0000
  H   H29       1.0  0.51489  0.35764  0.84899  1.0000
  H   H30       1.0  0.98510  0.35764  0.65101  1.0000
  H   H31       1.0  0.48511  0.64236  0.15101  1.0000
  H   H32       1.0  0.01490  0.64236  0.34899  1.0000
  H   H33       1.0  0.49726  0.44408  0.69747  1.0000
  H   H34       1.0  0.00274  0.44408  0.80252  1.0000
  H   H35       1.0  0.50275  0.55592  0.30253  1.0000
  H   H36       1.0  0.99725  0.55592  0.19747  1.0000
  H   H37       1.0  0.48097  0.35164  0.54777  1.0000
  H   H38       1.0  0.01902  0.35164  0.95222  1.0000
  H   H39       1.0  0.51903  0.64836  0.45223  1.0000
  H   H40       1.0  0.98096  0.64836  0.04777  1.0000
  H   H41       1.0  0.48258  0.17179  0.55044  1.0000
  H   H42       1.0  0.01742  0.17179  0.94955  1.0000
  H   H43       1.0  0.51743  0.82821  0.44956  1.0000
  H   H44       1.0  0.98257  0.82821  0.05044  1.0000
  H   H45       1.0  0.50629  0.08427  0.70456  1.0000
  H   H46       1.0  0.99372  0.08427  0.79544  1.0000
  H   H47       1.0  0.49371  0.91573  0.29544  1.0000
  H   H48       1.0  0.00630  0.91573  0.20455  1.0000
  H   H49       1.0  0.35339  0.50793  0.52773  1.0000
  H   H50       1.0  0.14660  0.50793  0.97227  1.0000
  H   H51       1.0  0.64660  0.49207  0.47227  1.0000
  H   H52       1.0  0.85339  0.49207  0.02773  1.0000
  H   H53       1.0  0.81928  0.40517  0.36511  1.0000
  H   H54       1.0  0.68071  0.40517  0.13489  1.0000
  H   H55       1.0  0.18071  0.59483  0.63489  1.0000
  H   H56       1.0  0.31928  0.59483  0.86511  1.0000
  C   C1        1.0  0.86932  0.20299  0.14984  1.0000
  C   C2        1.0  0.63070  0.20299  0.35016  1.0000
  C   C3        1.0  0.13069  0.79701  0.85016  1.0000
  C   C4        1.0  0.36931  0.79701  0.64984  1.0000
  C   C5        1.0  0.05257  0.08256  0.12853  1.0000
  C   C6        1.0  0.44744  0.08256  0.37148  1.0000
  C   C7        1.0  0.94743  0.91744  0.87148  1.0000
  C   C8        1.0  0.55257  0.91744  0.62853  1.0000
  C   C9        1.0  0.87168  0.06095  0.07994  1.0000
  C   C10       1.0  0.62833  0.06095  0.42006  1.0000
  C   C11       1.0  0.12832  0.93905  0.92006  1.0000
  C   C12       1.0  0.37167  0.93905  0.57994  1.0000
  C   C13       1.0  0.55458  0.15083  0.05549  1.0000
  C   C14       1.0  0.94543  0.15083  0.44451  1.0000
  C   C15       1.0  0.44542  0.84917  0.94451  1.0000
  C   C16       1.0  0.05458  0.84917  0.55548  1.0000
  C   C17       1.0  0.51753  0.21195  0.96564  1.0000
  C   C18       1.0  0.98248  0.21195  0.53436  1.0000
  C   C19       1.0  0.48247  0.78805  0.03436  1.0000
  C   C20       1.0  0.01753  0.78805  0.46563  1.0000
  C   C21       1.0  0.53492  0.15822  0.87615  1.0000
  C   C22       1.0  0.96509  0.15821  0.62385  1.0000
  C   C23       1.0  0.46508  0.84178  0.12385  1.0000
  C   C24       1.0  0.03493  0.84179  0.37615  1.0000
  C   C25       1.0  0.51296  0.21428  0.78651  1.0000
  C   C26       1.0  0.98704  0.21428  0.71349  1.0000
  C   C27       1.0  0.48704  0.78572  0.21349  1.0000
  C   C28       1.0  0.01297  0.78572  0.28651  1.0000
  C   C29       1.0  0.50734  0.31597  0.78418  1.0000
  C   C30       1.0  0.99266  0.31597  0.71582  1.0000
  C   C31       1.0  0.49266  0.68403  0.21582  1.0000
  C   C32       1.0  0.00734  0.68403  0.28418  1.0000
  C   C33       1.0  0.49612  0.36516  0.69872  1.0000
  C   C34       1.0  0.00387  0.36516  0.80128  1.0000
  C   C35       1.0  0.50388  0.63484  0.30129  1.0000
  C   C36       1.0  0.99612  0.63483  0.19872  1.0000
  C   C37       1.0  0.48799  0.31342  0.61468  1.0000
  C   C38       1.0  0.01201  0.31342  0.88532  1.0000
  C   C39       1.0  0.51202  0.68658  0.38532  1.0000
  C   C40       1.0  0.98798  0.68658  0.11468  1.0000
  C   C41       1.0  0.48938  0.21207  0.61622  1.0000
  C   C42       1.0  0.01062  0.21207  0.88378  1.0000
  C   C43       1.0  0.51062  0.78793  0.38378  1.0000
  C   C44       1.0  0.98938  0.78793  0.11622  1.0000
  C   C45       1.0  0.50243  0.16294  0.70145  1.0000
  C   C46       1.0  0.99757  0.16294  0.79854  1.0000
  C   C47       1.0  0.49757  0.83706  0.29855  1.0000
  C   C48       1.0  0.00244  0.83706  0.20145  1.0000
  C   C49       1.0  0.20060  0.39098  0.37947  1.0000
  C   C50       1.0  0.29939  0.39099  0.12053  1.0000
  C   C51       1.0  0.79939  0.60901  0.62053  1.0000
  C   C52       1.0  0.70060  0.60901  0.87948  1.0000
  C   C53       1.0  0.09663  0.44936  0.44012  1.0000
  C   C54       1.0  0.40336  0.44937  0.05988  1.0000
  C   C55       1.0  0.90337  0.55063  0.55988  1.0000
  C   C56       1.0  0.59663  0.55063  0.94012  1.0000
  C   C57       1.0  0.19885  0.50411  0.51547  1.0000
  C   C58       1.0  0.30114  0.50412  0.98453  1.0000
  C   C59       1.0  0.80114  0.49588  0.48453  1.0000
  C   C60       1.0  0.69885  0.49588  0.01547  1.0000
  C   C61       1.0  0.89759  0.44632  0.42493  1.0000
  C   C62       1.0  0.60240  0.44632  0.07507  1.0000
  C   C63       1.0  0.10240  0.55368  0.57507  1.0000
  C   C64       1.0  0.39759  0.55368  0.92493  1.0000
  N   N1        1.0  0.04835  0.17159  0.17175  1.0000
  N   N2        1.0  0.45166  0.17159  0.32825  1.0000
  N   N3        1.0  0.95166  0.82841  0.82825  1.0000
  N   N4        1.0  0.54834  0.82841  0.67175  1.0000
  N   N5        1.0  0.75794  0.13769  0.09451  1.0000
  N   N6        1.0  0.74207  0.13769  0.40549  1.0000
  N   N7        1.0  0.24206  0.86231  0.90549  1.0000
  N   N8        1.0  0.25793  0.86231  0.59451  1.0000
  O   O1        1.0  0.56414  0.06977  0.87810  1.0000
  O   O2        1.0  0.93589  0.06976  0.62190  1.0000
  O   O3        1.0  0.43586  0.93024  0.12190  1.0000
  O   O4        1.0  0.06415  0.93024  0.37810  1.0000
  O   O5        1.0  0.09660  0.32688  0.32582  1.0000
  O   O6        1.0  0.40339  0.32688  0.17418  1.0000
  O   O7        1.0  0.90339  0.67312  0.67418  1.0000
  O   O8        1.0  0.59660  0.67312  0.82582  1.0000
  O   O9        1.0  0.37479  0.40262  0.38391  1.0000
  O   O10       1.0  0.12520  0.40262  0.11609  1.0000
  O   O11       1.0  0.62520  0.59738  0.61609  1.0000
  O   O12       1.0  0.87479  0.59738  0.88391  1.0000
