data_image0
_chemical_formula_structural       Hg6H36C48I12N36
_chemical_formula_sum              "Hg6 H36 C48 I12 N36"
_cell_length_a       8.15771
_cell_length_b       14.8832
_cell_length_c       18.2249
_cell_angle_alpha    104.589
_cell_angle_beta     102.938
_cell_angle_gamma    90.0078

_space_group_name_H-M_alt    "P 1"
_space_group_IT_number       1

loop_
  _space_group_symop_operation_xyz
  'x, y, z'

loop_
  _atom_site_type_symbol
  _atom_site_label
  _atom_site_symmetry_multiplicity
  _atom_site_fract_x
  _atom_site_fract_y
  _atom_site_fract_z
  _atom_site_occupancy
  Hg  Hg1       1.0  0.90309  0.93886  0.60238  1.0000
  Hg  Hg2       1.0  0.30048  0.56119  0.39763  1.0000
  Hg  Hg3       1.0  0.09691  0.06114  0.39763  1.0000
  Hg  Hg4       1.0  0.69952  0.43880  0.60237  1.0000
  Hg  Hg5       1.0  0.64794  0.24991  0.99996  1.0000
  Hg  Hg6       1.0  0.35206  0.75009  0.00004  1.0000
  H   H1        1.0  0.25739  0.20101  0.56937  1.0000
  H   H2        1.0  0.68790  0.29885  0.43055  1.0000
  H   H3        1.0  0.74261  0.79899  0.43063  1.0000
  H   H4        1.0  0.31210  0.70114  0.56945  1.0000
  H   H5        1.0  0.02490  0.29875  0.48836  1.0000
  H   H6        1.0  0.53651  0.20121  0.51172  1.0000
  H   H7        1.0  0.97510  0.70125  0.51164  1.0000
  H   H8        1.0  0.46349  0.79879  0.48828  1.0000
  H   H9        1.0  0.82829  0.93187  0.79882  1.0000
  H   H10       1.0  0.02942  0.56807  0.20138  1.0000
  H   H11       1.0  0.17170  0.06813  0.20119  1.0000
  H   H12       1.0  0.97058  0.43193  0.79862  1.0000
  H   H13       1.0  0.85935  0.27102  0.68529  1.0000
  H   H14       1.0  0.17376  0.22886  0.31481  1.0000
  H   H15       1.0  0.14065  0.72898  0.31470  1.0000
  H   H16       1.0  0.82624  0.77114  0.68519  1.0000
  H   H17       1.0  0.54961  0.00299  0.85399  1.0000
  H   H18       1.0  0.69553  0.49681  0.14599  1.0000
  H   H19       1.0  0.45039  0.99701  0.14601  1.0000
  H   H20       1.0  0.30447  0.50319  0.85401  1.0000
  H   H21       1.0  0.23216  0.06204  0.93962  1.0000
  H   H22       1.0  0.29244  0.43766  0.06028  1.0000
  H   H23       1.0  0.76784  0.93796  0.06038  1.0000
  H   H24       1.0  0.70756  0.56234  0.93972  1.0000
  H   H25       1.0  0.84680  0.21466  0.83649  1.0000
  H   H26       1.0  0.00984  0.28546  0.16362  1.0000
  H   H27       1.0  0.15319  0.78534  0.16351  1.0000
  H   H28       1.0  0.99016  0.71454  0.83638  1.0000
  H   H29       1.0  0.98124  0.09061  0.02403  1.0000
  H   H30       1.0  0.95700  0.40920  0.97593  1.0000
  H   H31       1.0  0.01875  0.90939  0.97597  1.0000
  H   H32       1.0  0.04300  0.59080  0.02406  1.0000
  H   H33       1.0  0.56647  0.08526  0.64849  1.0000
  H   H34       1.0  0.91771  0.41450  0.35152  1.0000
  H   H35       1.0  0.43354  0.91474  0.35151  1.0000
  H   H36       1.0  0.08229  0.58550  0.64848  1.0000
  C   C1        1.0  0.60532  0.05371  0.69668  1.0000
  C   C2        1.0  0.90841  0.44607  0.30334  1.0000
  C   C3        1.0  0.39468  0.94629  0.30332  1.0000
  C   C4        1.0  0.09159  0.55393  0.69666  1.0000
  C   C5        1.0  0.36520  0.10341  0.75622  1.0000
  C   C6        1.0  0.60878  0.39640  0.24373  1.0000
  C   C7        1.0  0.63480  0.89659  0.24378  1.0000
  C   C8        1.0  0.39122  0.60360  0.75627  1.0000
  C   C9        1.0  0.14167  0.23072  0.58025  1.0000
  C   C10       1.0  0.56123  0.26923  0.41979  1.0000
  C   C11       1.0  0.85834  0.76928  0.41975  1.0000
  C   C12       1.0  0.43877  0.73077  0.58021  1.0000
  C   C13       1.0  0.02485  0.27885  0.54161  1.0000
  C   C14       1.0  0.48311  0.22112  0.45848  1.0000
  C   C15       1.0  0.97515  0.72115  0.45839  1.0000
  C   C16       1.0  0.51689  0.77888  0.54152  1.0000
  C   C17       1.0  0.73194  0.97433  0.77582  1.0000
  C   C18       1.0  0.95596  0.52558  0.22430  1.0000
  C   C19       1.0  0.26806  0.02567  0.22419  1.0000
  C   C20       1.0  0.04404  0.47442  0.77570  1.0000
  C   C21       1.0  0.93221  0.26638  0.64167  1.0000
  C   C22       1.0  0.29035  0.23354  0.35839  1.0000
  C   C23       1.0  0.06779  0.73362  0.35833  1.0000
  C   C24       1.0  0.70965  0.76646  0.64161  1.0000
  C   C25       1.0  0.59622  0.00823  0.80402  1.0000
  C   C26       1.0  0.79205  0.49164  0.19601  1.0000
  C   C27       1.0  0.40378  0.99178  0.19598  1.0000
  C   C28       1.0  0.20796  0.50836  0.80399  1.0000
  C   C29       1.0  0.15724  0.18112  0.70284  1.0000
  C   C30       1.0  0.45419  0.31872  0.29714  1.0000
  C   C31       1.0  0.84276  0.81888  0.29716  1.0000
  C   C32       1.0  0.54581  0.68128  0.70286  1.0000
  C   C33       1.0  0.15008  0.14129  0.81251  1.0000
  C   C34       1.0  0.33735  0.35857  0.18746  1.0000
  C   C35       1.0  0.84991  0.85871  0.18749  1.0000
  C   C36       1.0  0.66265  0.64143  0.81254  1.0000
  C   C37       1.0  0.11577  0.09730  0.93214  1.0000
  C   C38       1.0  0.18340  0.40260  0.06787  1.0000
  C   C39       1.0  0.88423  0.90270  0.06786  1.0000
  C   C40       1.0  0.81660  0.59740  0.93213  1.0000
  C   C41       1.0  0.91380  0.17761  0.87710  1.0000
  C   C42       1.0  0.03641  0.32235  0.12294  1.0000
  C   C43       1.0  0.08620  0.82240  0.12290  1.0000
  C   C44       1.0  0.96359  0.67765  0.87706  1.0000
  C   C45       1.0  0.99093  0.11196  0.97236  1.0000
  C   C46       1.0  0.01829  0.38800  0.02769  1.0000
  C   C47       1.0  0.00907  0.88805  0.02764  1.0000
  C   C48       1.0  0.98171  0.61200  0.97231  1.0000
  I   I1        1.0  0.14631  0.86693  0.69268  1.0000
  I   I2        1.0  0.45334  0.63297  0.30723  1.0000
  I   I3        1.0  0.85369  0.13308  0.30732  1.0000
  I   I4        1.0  0.54666  0.36703  0.69277  1.0000
  I   I5        1.0  0.75180  0.03469  0.50359  1.0000
  I   I6        1.0  0.24838  0.46547  0.49655  1.0000
  I   I7        1.0  0.24820  0.96531  0.49642  1.0000
  I   I8        1.0  0.75161  0.53453  0.50345  1.0000
  I   I9        1.0  0.51535  0.35027  0.90040  1.0000
  I   I10       1.0  0.61488  0.14956  0.09954  1.0000
  I   I11       1.0  0.48465  0.64973  0.09960  1.0000
  I   I12       1.0  0.38512  0.85044  0.90046  1.0000
  N   N1        1.0  0.73622  0.00359  0.70949  1.0000
  N   N2        1.0  0.02650  0.49627  0.29062  1.0000
  N   N3        1.0  0.26379  0.99641  0.29051  1.0000
  N   N4        1.0  0.97350  0.50373  0.70938  1.0000
  N   N5        1.0  0.51534  0.05927  0.75346  1.0000
  N   N6        1.0  0.76170  0.44052  0.24652  1.0000
  N   N7        1.0  0.48466  0.94073  0.24654  1.0000
  N   N8        1.0  0.23830  0.55948  0.75348  1.0000
  N   N9        1.0  0.86663  0.16154  0.93726  1.0000
  N   N10       1.0  0.92906  0.33846  0.06281  1.0000
  N   N11       1.0  0.13337  0.83847  0.06274  1.0000
  N   N12       1.0  0.07094  0.66154  0.93719  1.0000
  N   N13       1.0  0.89582  0.30078  0.58069  1.0000
  N   N14       1.0  0.31496  0.19917  0.41940  1.0000
  N   N15       1.0  0.10419  0.69922  0.41931  1.0000
  N   N16       1.0  0.68504  0.80083  0.58060  1.0000
  N   N17       1.0  0.29658  0.10084  0.81593  1.0000
  N   N18       1.0  0.48044  0.39901  0.18403  1.0000
  N   N19       1.0  0.70342  0.89916  0.18407  1.0000
  N   N20       1.0  0.51956  0.60099  0.81597  1.0000
  N   N21       1.0  0.30381  0.14281  0.69822  1.0000
  N   N22       1.0  0.60541  0.35698  0.30171  1.0000
  N   N23       1.0  0.69619  0.85719  0.30178  1.0000
  N   N24       1.0  0.39458  0.64302  0.69829  1.0000
  N   N25       1.0  0.07303  0.18266  0.75837  1.0000
  N   N26       1.0  0.31444  0.31722  0.24162  1.0000
  N   N27       1.0  0.92697  0.81734  0.24163  1.0000
  N   N28       1.0  0.68557  0.68278  0.75838  1.0000
  N   N29       1.0  0.08239  0.22313  0.64465  1.0000
  N   N30       1.0  0.43754  0.27677  0.35537  1.0000
  N   N31       1.0  0.91761  0.77687  0.35534  1.0000
  N   N32       1.0  0.56246  0.72323  0.64463  1.0000
  N   N33       1.0  0.06584  0.13945  0.87119  1.0000
  N   N34       1.0  0.19441  0.36043  0.12880  1.0000
  N   N35       1.0  0.93415  0.86055  0.12881  1.0000
  N   N36       1.0  0.80559  0.63957  0.87120  1.0000
