data_image0
_chemical_formula_structural       Ni2H60C56N4O16
_chemical_formula_sum              "Ni2 H60 C56 N4 O16"
_cell_length_a       10.3205
_cell_length_b       10.9804
_cell_length_c       12.8214
_cell_angle_alpha    111.809
_cell_angle_beta     90.0012
_cell_angle_gamma    90.0004

_space_group_name_H-M_alt    "P 1"
_space_group_IT_number       1

loop_
  _space_group_symop_operation_xyz
  'x, y, z'

loop_
  _atom_site_type_symbol
  _atom_site_label
  _atom_site_symmetry_multiplicity
  _atom_site_fract_x
  _atom_site_fract_y
  _atom_site_fract_z
  _atom_site_occupancy
  Ni  Ni1       1.0  1.00000  0.50000  0.99999  1.0000
  Ni  Ni2       1.0  0.50000  1.00000  0.50000  1.0000
  H   H1        1.0  0.15722  0.14362  0.12003  1.0000
  H   H2        1.0  0.65721  0.35638  0.37998  1.0000
  H   H3        1.0  0.84278  0.85638  0.87997  1.0000
  H   H4        1.0  0.34279  0.64362  0.62003  1.0000
  H   H5        1.0  0.84957  0.03613  0.87111  1.0000
  H   H6        1.0  0.34958  0.46386  0.62889  1.0000
  H   H7        1.0  0.15042  0.96387  0.12889  1.0000
  H   H8        1.0  0.65042  0.53613  0.37112  1.0000
  H   H9        1.0  0.85707  0.26111  0.87594  1.0000
  H   H10       1.0  0.35707  0.23888  0.62405  1.0000
  H   H11       1.0  0.14293  0.73889  0.12405  1.0000
  H   H12       1.0  0.64293  0.76111  0.37595  1.0000
  H   H13       1.0  0.15188  0.36455  0.11209  1.0000
  H   H14       1.0  0.65189  0.13545  0.38792  1.0000
  H   H15       1.0  0.84811  0.63545  0.88790  1.0000
  H   H16       1.0  0.34812  0.86455  0.61210  1.0000
  H   H17       1.0  0.12865  0.57274  0.67066  1.0000
  H   H18       1.0  0.62865  0.92726  0.82935  1.0000
  H   H19       1.0  0.87135  0.42727  0.32934  1.0000
  H   H20       1.0  0.37135  0.07273  0.17066  1.0000
  H   H21       1.0  0.71666  0.57768  0.61955  1.0000
  H   H22       1.0  0.21666  0.92232  0.88045  1.0000
  H   H23       1.0  0.28334  0.42232  0.38045  1.0000
  H   H24       1.0  0.78334  0.07768  0.11955  1.0000
  H   H25       1.0  0.14297  0.80226  0.68468  1.0000
  H   H26       1.0  0.64296  0.69774  0.81532  1.0000
  H   H27       1.0  0.85703  0.19775  0.31532  1.0000
  H   H28       1.0  0.35703  0.30226  0.18469  1.0000
  H   H29       1.0  0.92923  0.18485  0.52765  1.0000
  H   H30       1.0  0.42924  0.31515  0.97234  1.0000
  H   H31       1.0  0.07077  0.81515  0.47234  1.0000
  H   H32       1.0  0.57076  0.68486  0.02765  1.0000
  H   H33       1.0  0.88338  0.21597  0.67047  1.0000
  H   H34       1.0  0.38338  0.28403  0.82952  1.0000
  H   H35       1.0  0.11662  0.78403  0.32952  1.0000
  H   H36       1.0  0.61662  0.71596  0.17047  1.0000
  H   H37       1.0  0.04281  0.15596  0.61947  1.0000
  H   H38       1.0  0.54282  0.34403  0.88052  1.0000
  H   H39       1.0  0.95719  0.84404  0.38052  1.0000
  H   H40       1.0  0.45718  0.65596  0.11947  1.0000
  H   H41       1.0  0.08828  0.36288  0.58792  1.0000
  H   H42       1.0  0.58829  0.13712  0.91207  1.0000
  H   H43       1.0  0.91172  0.63712  0.41207  1.0000
  H   H44       1.0  0.41171  0.86288  0.08794  1.0000
  H   H45       1.0  0.94479  0.92271  0.66368  1.0000
  H   H46       1.0  0.44478  0.57729  0.83633  1.0000
  H   H47       1.0  0.05521  0.07729  0.33632  1.0000
  H   H48       1.0  0.55521  0.42271  0.16368  1.0000
  H   H49       1.0  0.73189  0.81006  0.63193  1.0000
  H   H50       1.0  0.23188  0.68995  0.86808  1.0000
  H   H51       1.0  0.26811  0.18995  0.36808  1.0000
  H   H52       1.0  0.76812  0.31006  0.13193  1.0000
  H   H53       1.0  0.32044  0.46715  0.01131  1.0000
  H   H54       1.0  0.82045  0.03285  0.48869  1.0000
  H   H55       1.0  0.67956  0.53285  0.98869  1.0000
  H   H56       1.0  0.17956  0.96716  0.51131  1.0000
  H   H57       1.0  0.24308  0.49156  0.91734  1.0000
  H   H58       1.0  0.74307  0.00844  0.58265  1.0000
  H   H59       1.0  0.75692  0.50843  0.08265  1.0000
  H   H60       1.0  0.25693  0.99157  0.41735  1.0000
  C   C1        1.0  0.08943  0.16245  0.06297  1.0000
  C   C2        1.0  0.58943  0.33755  0.43704  1.0000
  C   C3        1.0  0.91056  0.83755  0.93703  1.0000
  C   C4        1.0  0.41057  0.66244  0.56297  1.0000
  C   C5        1.0  0.91977  0.10300  0.92665  1.0000
  C   C6        1.0  0.41978  0.39700  0.57336  1.0000
  C   C7        1.0  0.08022  0.89701  0.07335  1.0000
  C   C8        1.0  0.58022  0.60299  0.42665  1.0000
  C   C9        1.0  0.92322  0.22972  0.92708  1.0000
  C   C10       1.0  0.42322  0.27027  0.57292  1.0000
  C   C11       1.0  0.07678  0.77028  0.07291  1.0000
  C   C12       1.0  0.57678  0.72972  0.42709  1.0000
  C   C13       1.0  0.06505  0.41234  0.76630  1.0000
  C   C14       1.0  0.56504  0.08766  0.73369  1.0000
  C   C15       1.0  0.93495  0.58766  0.23369  1.0000
  C   C16       1.0  0.43496  0.91233  0.26631  1.0000
  C   C17       1.0  0.08822  0.28718  0.05933  1.0000
  C   C18       1.0  0.58822  0.21282  0.44068  1.0000
  C   C19       1.0  0.91178  0.71281  0.94067  1.0000
  C   C20       1.0  0.41178  0.78718  0.55933  1.0000
  C   C21       1.0  0.92071  0.56027  0.64309  1.0000
  C   C22       1.0  0.42071  0.93973  0.85691  1.0000
  C   C23       1.0  0.07929  0.43974  0.35691  1.0000
  C   C24       1.0  0.57929  0.06027  0.14309  1.0000
  C   C25       1.0  0.00247  0.06642  0.99704  1.0000
  C   C26       1.0  0.50247  0.43357  0.50296  1.0000
  C   C27       1.0  0.99752  0.93357  0.00295  1.0000
  C   C28       1.0  0.49752  0.56642  0.49705  1.0000
  C   C29       1.0  0.04138  0.62342  0.66142  1.0000
  C   C30       1.0  0.54137  0.87658  0.83859  1.0000
  C   C31       1.0  0.95863  0.37659  0.33858  1.0000
  C   C32       1.0  0.45863  0.12342  0.16142  1.0000
  C   C33       1.0  0.80930  0.62867  0.63332  1.0000
  C   C34       1.0  0.30930  0.87133  0.86668  1.0000
  C   C35       1.0  0.19070  0.37134  0.36668  1.0000
  C   C36       1.0  0.69070  0.12867  0.13332  1.0000
  C   C37       1.0  0.04881  0.75372  0.66934  1.0000
  C   C38       1.0  0.54880  0.74628  0.83066  1.0000
  C   C39       1.0  0.95120  0.24628  0.33066  1.0000
  C   C40       1.0  0.45120  0.25372  0.16934  1.0000
  C   C41       1.0  0.96298  0.21963  0.61503  1.0000
  C   C42       1.0  0.46297  0.28037  0.88497  1.0000
  C   C43       1.0  0.03703  0.78037  0.38496  1.0000
  C   C44       1.0  0.53702  0.71963  0.11503  1.0000
  C   C45       1.0  0.01066  0.35924  0.64559  1.0000
  C   C46       1.0  0.51066  0.14076  0.85440  1.0000
  C   C47       1.0  0.98934  0.64076  0.35441  1.0000
  C   C48       1.0  0.48934  0.85924  0.14560  1.0000
  C   C49       1.0  0.93860  0.82181  0.65904  1.0000
  C   C50       1.0  0.43858  0.67819  0.84097  1.0000
  C   C51       1.0  0.06141  0.17819  0.34096  1.0000
  C   C52       1.0  0.56141  0.32181  0.15904  1.0000
  C   C53       1.0  0.81849  0.75804  0.64073  1.0000
  C   C54       1.0  0.31848  0.74197  0.85927  1.0000
  C   C55       1.0  0.18152  0.24197  0.35927  1.0000
  C   C56       1.0  0.68152  0.25804  0.14074  1.0000
  N   N1        1.0  0.00553  0.32125  0.99341  1.0000
  N   N2        1.0  0.50554  0.17875  0.50659  1.0000
  N   N3        1.0  0.99446  0.67875  0.00659  1.0000
  N   N4        1.0  0.49447  0.82124  0.49341  1.0000
  O   O1        1.0  0.97559  0.43831  0.84175  1.0000
  O   O2        1.0  0.47558  0.06168  0.65825  1.0000
  O   O3        1.0  0.02441  0.56169  0.15824  1.0000
  O   O4        1.0  0.52442  0.93831  0.34176  1.0000
  O   O5        1.0  0.90072  0.43369  0.63379  1.0000
  O   O6        1.0  0.40072  0.06631  0.86621  1.0000
  O   O7        1.0  0.09928  0.56631  0.36621  1.0000
  O   O8        1.0  0.59928  0.93369  0.13379  1.0000
  O   O9        1.0  0.18517  0.42249  0.78111  1.0000
  O   O10       1.0  0.68516  0.07751  0.71888  1.0000
  O   O11       1.0  0.81483  0.57750  0.21888  1.0000
  O   O12       1.0  0.31484  0.92248  0.28112  1.0000
  O   O13       1.0  0.27413  0.53582  0.99623  1.0000
  O   O14       1.0  0.77414  0.96417  0.50377  1.0000
  O   O15       1.0  0.72587  0.46418  0.00376  1.0000
  O   O16       1.0  0.22585  0.03583  0.49624  1.0000
