data_image0
_chemical_formula_structural       Cd2P4H36C28N4O12
_chemical_formula_sum              "Cd2 P4 H36 C28 N4 O12"
_cell_length_a       5.55614
_cell_length_b       11.2153
_cell_length_c       14.225
_cell_angle_alpha    90.0003
_cell_angle_beta     95.4308
_cell_angle_gamma    90.0003

_space_group_name_H-M_alt    "P 1"
_space_group_IT_number       1

loop_
  _space_group_symop_operation_xyz
  'x, y, z'

loop_
  _atom_site_type_symbol
  _atom_site_label
  _atom_site_symmetry_multiplicity
  _atom_site_fract_x
  _atom_site_fract_y
  _atom_site_fract_z
  _atom_site_occupancy
  Cd  Cd1       1.0  0.00000  1.00000  0.00000  1.0000
  Cd  Cd2       1.0  0.49999  0.50000  0.50000  1.0000
  P   P1        1.0  0.46281  0.82326  0.91749  1.0000
  P   P2        1.0  0.96281  0.67673  0.41748  1.0000
  P   P3        1.0  0.53719  0.17673  0.08251  1.0000
  P   P4        1.0  0.03719  0.32327  0.58251  1.0000
  H   H1        1.0  0.12948  0.65504  0.81354  1.0000
  H   H2        1.0  0.62947  0.84495  0.31355  1.0000
  H   H3        1.0  0.87054  0.34495  0.18646  1.0000
  H   H4        1.0  0.37051  0.15504  0.68645  1.0000
  H   H5        1.0  0.15228  0.54796  0.66002  1.0000
  H   H6        1.0  0.65227  0.95204  0.16002  1.0000
  H   H7        1.0  0.84773  0.45205  0.33998  1.0000
  H   H8        1.0  0.34773  0.04795  0.83998  1.0000
  H   H9        1.0  0.81116  0.70442  0.62076  1.0000
  H   H10       1.0  0.31117  0.79558  0.12077  1.0000
  H   H11       1.0  0.18884  0.29558  0.37923  1.0000
  H   H12       1.0  0.68885  0.20442  0.87924  1.0000
  H   H13       1.0  0.81424  0.81875  0.77332  1.0000
  H   H14       1.0  0.31424  0.68126  0.27333  1.0000
  H   H15       1.0  0.18576  0.18126  0.22667  1.0000
  H   H16       1.0  0.68576  0.31875  0.72668  1.0000
  H   H17       1.0  0.74956  0.60292  0.92993  1.0000
  H   H18       1.0  0.24954  0.89707  0.42993  1.0000
  H   H19       1.0  0.25045  0.39707  0.07007  1.0000
  H   H20       1.0  0.75044  0.10292  0.57007  1.0000
  H   H21       1.0  0.90889  0.71739  0.99649  1.0000
  H   H22       1.0  0.40890  0.78262  0.49649  1.0000
  H   H23       1.0  0.09110  0.28262  0.00351  1.0000
  H   H24       1.0  0.59110  0.21739  0.50352  1.0000
  H   H25       1.0  0.77235  0.62528  0.14638  1.0000
  H   H26       1.0  0.27234  0.87472  0.64637  1.0000
  H   H27       1.0  0.22765  0.37473  0.85362  1.0000
  H   H28       1.0  0.72764  0.12529  0.35363  1.0000
  H   H29       1.0  0.62546  0.50956  0.07698  1.0000
  H   H30       1.0  0.12543  0.99043  0.57697  1.0000
  H   H31       1.0  0.37455  0.49044  0.92303  1.0000
  H   H32       1.0  0.87454  0.00957  0.42302  1.0000
  H   H33       1.0  0.94539  0.52365  0.08475  1.0000
  H   H34       1.0  0.44536  0.97636  0.58474  1.0000
  H   H35       1.0  0.05463  0.47636  0.91526  1.0000
  H   H36       1.0  0.55461  0.02365  0.41525  1.0000
  C   C1        1.0  0.47294  0.74404  0.80622  1.0000
  C   C2        1.0  0.97294  0.75596  0.30622  1.0000
  C   C3        1.0  0.52707  0.25596  0.19378  1.0000
  C   C4        1.0  0.02706  0.24404  0.69378  1.0000
  C   C5        1.0  0.28501  0.66715  0.77345  1.0000
  C   C6        1.0  0.78500  0.83285  0.27345  1.0000
  C   C7        1.0  0.71501  0.33285  0.22655  1.0000
  C   C8        1.0  0.21500  0.16715  0.72655  1.0000
  C   C9        1.0  0.29686  0.60741  0.68832  1.0000
  C   C10       1.0  0.79686  0.89259  0.18833  1.0000
  C   C11       1.0  0.70314  0.39259  0.31168  1.0000
  C   C12       1.0  0.20314  0.10741  0.81167  1.0000
  C   C13       1.0  0.66539  0.69462  0.66648  1.0000
  C   C14       1.0  0.16540  0.80539  0.16649  1.0000
  C   C15       1.0  0.33461  0.30539  0.33352  1.0000
  C   C16       1.0  0.83462  0.19461  0.83352  1.0000
  C   C17       1.0  0.66621  0.75818  0.75080  1.0000
  C   C18       1.0  0.16622  0.74183  0.25080  1.0000
  C   C19       1.0  0.33378  0.24183  0.24920  1.0000
  C   C20       1.0  0.83379  0.25818  0.74920  1.0000
  C   C21       1.0  0.75597  0.65510  0.99591  1.0000
  C   C22       1.0  0.25596  0.84489  0.49591  1.0000
  C   C23       1.0  0.24403  0.34490  0.00409  1.0000
  C   C24       1.0  0.74402  0.15510  0.50409  1.0000
  C   C25       1.0  0.77506  0.57378  0.08098  1.0000
  C   C26       1.0  0.27504  0.92622  0.58097  1.0000
  C   C27       1.0  0.22495  0.42622  0.91903  1.0000
  C   C28       1.0  0.72494  0.07378  0.41903  1.0000
  N   N1        1.0  0.48454  0.62028  0.63594  1.0000
  N   N2        1.0  0.98454  0.87972  0.13595  1.0000
  N   N3        1.0  0.51547  0.37972  0.36405  1.0000
  N   N4        1.0  0.01548  0.12028  0.86405  1.0000
  O   O1        1.0  0.20158  0.85282  0.92786  1.0000
  O   O2        1.0  0.70157  0.64717  0.42786  1.0000
  O   O3        1.0  0.79842  0.14718  0.07214  1.0000
  O   O4        1.0  0.29841  0.35283  0.57214  1.0000
  O   O5        1.0  0.53140  0.72104  0.99606  1.0000
  O   O6        1.0  0.03141  0.77894  0.49606  1.0000
  O   O7        1.0  0.46859  0.27895  0.00394  1.0000
  O   O8        1.0  0.96859  0.22104  0.50394  1.0000
  O   O9        1.0  0.64767  0.92169  0.92044  1.0000
  O   O10       1.0  0.14767  0.57830  0.42043  1.0000
  O   O11       1.0  0.35234  0.07830  0.07956  1.0000
  O   O12       1.0  0.85233  0.42170  0.57956  1.0000
