data_image0
_chemical_formula_structural       Rb4H24C24S8N4O20
_chemical_formula_sum              "Rb4 H24 C24 S8 N4 O20"
_cell_length_a       7.02719
_cell_length_b       11.6854
_cell_length_c       13.2555
_cell_angle_alpha    90.0001
_cell_angle_beta     89.9999
_cell_angle_gamma    107.362

_space_group_name_H-M_alt    "P 1"
_space_group_IT_number       1

loop_
  _space_group_symop_operation_xyz
  'x, y, z'

loop_
  _atom_site_type_symbol
  _atom_site_label
  _atom_site_symmetry_multiplicity
  _atom_site_fract_x
  _atom_site_fract_y
  _atom_site_fract_z
  _atom_site_occupancy
  Rb  Rb1       1.0  0.17688  0.48961  0.63895  1.0000
  Rb  Rb2       1.0  0.67688  0.48961  0.86105  1.0000
  Rb  Rb3       1.0  0.82312  0.51039  0.36105  1.0000
  Rb  Rb4       1.0  0.32312  0.51039  0.13895  1.0000
  H   H1        1.0  0.20639  0.27110  0.80784  1.0000
  H   H2        1.0  0.70639  0.27110  0.69216  1.0000
  H   H3        1.0  0.79361  0.72890  0.19216  1.0000
  H   H4        1.0  0.29361  0.72890  0.30784  1.0000
  H   H5        1.0  0.35612  0.27136  0.71911  1.0000
  H   H6        1.0  0.85612  0.27136  0.78089  1.0000
  H   H7        1.0  0.64388  0.72864  0.28089  1.0000
  H   H8        1.0  0.14388  0.72864  0.21911  1.0000
  H   H9        1.0  0.30947  0.95318  0.48870  1.0000
  H   H10       1.0  0.80947  0.95318  0.01130  1.0000
  H   H11       1.0  0.69053  0.04682  0.51130  1.0000
  H   H12       1.0  0.19053  0.04682  0.98870  1.0000
  H   H13       1.0  0.03899  0.84432  0.37338  1.0000
  H   H14       1.0  0.53900  0.84432  0.12662  1.0000
  H   H15       1.0  0.96101  0.15568  0.62662  1.0000
  H   H16       1.0  0.46101  0.15568  0.87338  1.0000
  H   H17       1.0  0.85555  0.95421  0.26992  1.0000
  H   H18       1.0  0.35555  0.95421  0.23008  1.0000
  H   H19       1.0  0.14445  0.04579  0.73008  1.0000
  H   H20       1.0  0.64445  0.04579  0.76992  1.0000
  H   H21       1.0  0.94159  0.17738  0.28013  1.0000
  H   H22       1.0  0.44159  0.17738  0.21987  1.0000
  H   H23       1.0  0.05841  0.82262  0.71987  1.0000
  H   H24       1.0  0.55841  0.82262  0.78013  1.0000
  C   C1        1.0  0.17511  0.18848  0.38943  1.0000
  C   C2        1.0  0.67511  0.18848  0.11057  1.0000
  C   C3        1.0  0.82489  0.81152  0.61057  1.0000
  C   C4        1.0  0.32489  0.81152  0.88943  1.0000
  C   C5        1.0  0.27859  0.12696  0.44708  1.0000
  C   C6        1.0  0.77858  0.12696  0.05292  1.0000
  C   C7        1.0  0.72141  0.87304  0.55292  1.0000
  C   C8        1.0  0.22141  0.87304  0.94708  1.0000
  C   C9        1.0  0.23298  0.00274  0.44244  1.0000
  C   C10       1.0  0.73298  0.00274  0.05756  1.0000
  C   C11       1.0  0.76702  0.99726  0.55756  1.0000
  C   C12       1.0  0.26702  0.99726  0.94244  1.0000
  C   C13       1.0  0.07907  0.94180  0.37766  1.0000
  C   C14       1.0  0.57907  0.94181  0.12234  1.0000
  C   C15       1.0  0.92093  0.05820  0.62234  1.0000
  C   C16       1.0  0.42093  0.05819  0.87767  1.0000
  C   C17       1.0  0.97589  0.00367  0.31916  1.0000
  C   C18       1.0  0.47588  0.00367  0.18084  1.0000
  C   C19       1.0  0.02411  0.99633  0.68084  1.0000
  C   C20       1.0  0.52412  0.99633  0.81916  1.0000
  C   C21       1.0  0.02257  0.12852  0.32432  1.0000
  C   C22       1.0  0.52257  0.12852  0.17568  1.0000
  C   C23       1.0  0.97743  0.87148  0.67568  1.0000
  C   C24       1.0  0.47743  0.87148  0.82432  1.0000
  S   S1        1.0  0.27716  0.34638  0.40535  1.0000
  S   S2        1.0  0.77716  0.34638  0.09465  1.0000
  S   S3        1.0  0.72284  0.65362  0.59464  1.0000
  S   S4        1.0  0.22284  0.65362  0.90535  1.0000
  S   S5        1.0  0.47574  0.22882  0.51580  1.0000
  S   S6        1.0  0.97574  0.22882  0.98420  1.0000
  S   S7        1.0  0.52426  0.77118  0.48420  1.0000
  S   S8        1.0  0.02426  0.77118  0.01580  1.0000
  N   N1        1.0  0.41144  0.34836  0.50390  1.0000
  N   N2        1.0  0.91144  0.34836  0.99610  1.0000
  N   N3        1.0  0.58856  0.65164  0.49610  1.0000
  N   N4        1.0  0.08856  0.65164  0.00390  1.0000
  O   O1        1.0  0.32056  0.32238  0.77025  1.0000
  O   O2        1.0  0.82056  0.32238  0.72975  1.0000
  O   O3        1.0  0.67944  0.67762  0.22975  1.0000
  O   O4        1.0  0.17944  0.67762  0.27025  1.0000
  O   O5        1.0  0.12507  0.40346  0.42891  1.0000
  O   O6        1.0  0.62506  0.40346  0.07110  1.0000
  O   O7        1.0  0.87493  0.59654  0.57109  1.0000
  O   O8        1.0  0.37493  0.59654  0.92891  1.0000
  O   O9        1.0  0.39488  0.39120  0.31494  1.0000
  O   O10       1.0  0.89488  0.39120  0.18506  1.0000
  O   O11       1.0  0.60512  0.60880  0.68506  1.0000
  O   O12       1.0  0.10512  0.60881  0.81493  1.0000
  O   O13       1.0  0.46684  0.19521  0.62311  1.0000
  O   O14       1.0  0.96684  0.19520  0.87689  1.0000
  O   O15       1.0  0.53316  0.80479  0.37689  1.0000
  O   O16       1.0  0.03316  0.80479  0.12311  1.0000
  O   O17       1.0  0.66337  0.23327  0.46687  1.0000
  O   O18       1.0  0.16336  0.23328  0.03313  1.0000
  O   O19       1.0  0.33664  0.76673  0.53313  1.0000
  O   O20       1.0  0.83664  0.76673  0.96687  1.0000
