data_image0
_chemical_formula_structural       K4H24C24S8N4O20
_chemical_formula_sum              "K4 H24 C24 S8 N4 O20"
_cell_length_a       6.87115
_cell_length_b       11.4961
_cell_length_c       13.0301
_cell_angle_alpha    90.0001
_cell_angle_beta     89.9999
_cell_angle_gamma    106.474

_space_group_name_H-M_alt    "P 1"
_space_group_IT_number       1

loop_
  _space_group_symop_operation_xyz
  'x, y, z'

loop_
  _atom_site_type_symbol
  _atom_site_label
  _atom_site_symmetry_multiplicity
  _atom_site_fract_x
  _atom_site_fract_y
  _atom_site_fract_z
  _atom_site_occupancy
  K   K1        1.0  0.18616  0.49163  0.64073  1.0000
  K   K2        1.0  0.68617  0.49163  0.85927  1.0000
  K   K3        1.0  0.81384  0.50837  0.35927  1.0000
  K   K4        1.0  0.31384  0.50837  0.14073  1.0000
  H   H1        1.0  0.22399  0.28237  0.81060  1.0000
  H   H2        1.0  0.72399  0.28237  0.68940  1.0000
  H   H3        1.0  0.77601  0.71763  0.18940  1.0000
  H   H4        1.0  0.27601  0.71763  0.31060  1.0000
  H   H5        1.0  0.37469  0.28155  0.72000  1.0000
  H   H6        1.0  0.87469  0.28155  0.78000  1.0000
  H   H7        1.0  0.62532  0.71845  0.28000  1.0000
  H   H8        1.0  0.12532  0.71845  0.22000  1.0000
  H   H9        1.0  0.31787  0.95635  0.48484  1.0000
  H   H10       1.0  0.81788  0.95635  0.01516  1.0000
  H   H11       1.0  0.68212  0.04365  0.51516  1.0000
  H   H12       1.0  0.18213  0.04365  0.98484  1.0000
  H   H13       1.0  0.03597  0.84694  0.37176  1.0000
  H   H14       1.0  0.53597  0.84694  0.12824  1.0000
  H   H15       1.0  0.96403  0.15306  0.62824  1.0000
  H   H16       1.0  0.46403  0.15306  0.87176  1.0000
  H   H17       1.0  0.83770  0.95900  0.27290  1.0000
  H   H18       1.0  0.33769  0.95900  0.22710  1.0000
  H   H19       1.0  0.16230  0.04100  0.72710  1.0000
  H   H20       1.0  0.66230  0.04100  0.77290  1.0000
  H   H21       1.0  0.92139  0.18492  0.28460  1.0000
  H   H22       1.0  0.42139  0.18492  0.21540  1.0000
  H   H23       1.0  0.07861  0.81508  0.71539  1.0000
  H   H24       1.0  0.57861  0.81508  0.78460  1.0000
  C   C1        1.0  0.16803  0.19524  0.39059  1.0000
  C   C2        1.0  0.66803  0.19524  0.10941  1.0000
  C   C3        1.0  0.83197  0.80476  0.60941  1.0000
  C   C4        1.0  0.33197  0.80476  0.89059  1.0000
  C   C5        1.0  0.27927  0.13224  0.44591  1.0000
  C   C6        1.0  0.77928  0.13224  0.05409  1.0000
  C   C7        1.0  0.72072  0.86776  0.55409  1.0000
  C   C8        1.0  0.22073  0.86776  0.94591  1.0000
  C   C9        1.0  0.23529  0.00670  0.44009  1.0000
  C   C10       1.0  0.73529  0.00670  0.05991  1.0000
  C   C11       1.0  0.76471  0.99330  0.55991  1.0000
  C   C12       1.0  0.26471  0.99330  0.94009  1.0000
  C   C13       1.0  0.07482  0.94555  0.37670  1.0000
  C   C14       1.0  0.57482  0.94555  0.12330  1.0000
  C   C15       1.0  0.92518  0.05445  0.62330  1.0000
  C   C16       1.0  0.42518  0.05445  0.87670  1.0000
  C   C17       1.0  0.96329  0.00874  0.32085  1.0000
  C   C18       1.0  0.46329  0.00874  0.17915  1.0000
  C   C19       1.0  0.03671  0.99126  0.67915  1.0000
  C   C20       1.0  0.53671  0.99126  0.82085  1.0000
  C   C21       1.0  0.00874  0.13509  0.32684  1.0000
  C   C22       1.0  0.50874  0.13509  0.17316  1.0000
  C   C23       1.0  0.99126  0.86491  0.67316  1.0000
  C   C24       1.0  0.49126  0.86491  0.82684  1.0000
  S   S1        1.0  0.27178  0.35495  0.40698  1.0000
  S   S2        1.0  0.77178  0.35495  0.09302  1.0000
  S   S3        1.0  0.72822  0.64505  0.59302  1.0000
  S   S4        1.0  0.22822  0.64505  0.90698  1.0000
  S   S5        1.0  0.48223  0.23417  0.51408  1.0000
  S   S6        1.0  0.98223  0.23417  0.98592  1.0000
  S   S7        1.0  0.51777  0.76583  0.48592  1.0000
  S   S8        1.0  0.01777  0.76583  0.01408  1.0000
  N   N1        1.0  0.41316  0.35529  0.50534  1.0000
  N   N2        1.0  0.91317  0.35529  0.99466  1.0000
  N   N3        1.0  0.58684  0.64471  0.49466  1.0000
  N   N4        1.0  0.08683  0.64471  0.00534  1.0000
  O   O1        1.0  0.11863  0.41444  0.43405  1.0000
  O   O2        1.0  0.61863  0.41444  0.06595  1.0000
  O   O3        1.0  0.88137  0.58556  0.56595  1.0000
  O   O4        1.0  0.38137  0.58556  0.93405  1.0000
  O   O5        1.0  0.38766  0.39971  0.31391  1.0000
  O   O6        1.0  0.88766  0.39971  0.18609  1.0000
  O   O7        1.0  0.61234  0.60029  0.68609  1.0000
  O   O8        1.0  0.11234  0.60029  0.81391  1.0000
  O   O9        1.0  0.48006  0.19915  0.62280  1.0000
  O   O10       1.0  0.98006  0.19915  0.87719  1.0000
  O   O11       1.0  0.51993  0.80085  0.37720  1.0000
  O   O12       1.0  0.01994  0.80085  0.12281  1.0000
  O   O13       1.0  0.67095  0.23875  0.46132  1.0000
  O   O14       1.0  0.17095  0.23875  0.03868  1.0000
  O   O15       1.0  0.32905  0.76125  0.53868  1.0000
  O   O16       1.0  0.82905  0.76125  0.96132  1.0000
  O   O17       1.0  0.33922  0.33392  0.77211  1.0000
  O   O18       1.0  0.83922  0.33392  0.72789  1.0000
  O   O19       1.0  0.66078  0.66608  0.22789  1.0000
  O   O20       1.0  0.16078  0.66608  0.27211  1.0000
