data_image0
_chemical_formula_structural       Pr2H38C30S12N12O16
_chemical_formula_sum              "Pr2 H38 C30 S12 N12 O16"
_cell_length_a       8.61834
_cell_length_b       12.3175
_cell_length_c       14.4078
_cell_angle_alpha    64.5212
_cell_angle_beta     77.5165
_cell_angle_gamma    73.9871

_space_group_name_H-M_alt    "P 1"
_space_group_IT_number       1

loop_
  _space_group_symop_operation_xyz
  'x, y, z'

loop_
  _atom_site_type_symbol
  _atom_site_label
  _atom_site_symmetry_multiplicity
  _atom_site_fract_x
  _atom_site_fract_y
  _atom_site_fract_z
  _atom_site_occupancy
  Pr  Pr1       1.0  0.24778  0.98635  0.01224  1.0000
  Pr  Pr2       1.0  0.75222  0.01365  0.98776  1.0000
  H   H1        1.0  0.78517  0.84271  0.82303  1.0000
  H   H2        1.0  0.21482  0.15729  0.17698  1.0000
  H   H3        1.0  0.63529  0.89096  0.73711  1.0000
  H   H4        1.0  0.36471  0.10904  0.26289  1.0000
  H   H5        1.0  0.91821  0.31604  0.24807  1.0000
  H   H6        1.0  0.08179  0.68396  0.75193  1.0000
  H   H7        1.0  0.90779  0.23264  0.17519  1.0000
  H   H8        1.0  0.09220  0.76736  0.82481  1.0000
  H   H9        1.0  0.73076  0.27863  0.24946  1.0000
  H   H10       1.0  0.26924  0.72137  0.75054  1.0000
  H   H11       1.0  0.45954  0.54453  0.15592  1.0000
  H   H12       1.0  0.54045  0.45547  0.84408  1.0000
  H   H13       1.0  0.25261  0.54197  0.21154  1.0000
  H   H14       1.0  0.74738  0.45804  0.78847  1.0000
  H   H15       1.0  0.81395  0.70305  0.58357  1.0000
  H   H16       1.0  0.18606  0.29694  0.41643  1.0000
  H   H17       1.0  0.98063  0.74024  0.60875  1.0000
  H   H18       1.0  0.01937  0.25976  0.39125  1.0000
  H   H19       1.0  0.95154  0.58606  0.67096  1.0000
  H   H20       1.0  0.04847  0.41394  0.32904  1.0000
  H   H21       1.0  0.80242  0.88712  0.29895  1.0000
  H   H22       1.0  0.19758  0.11287  0.70105  1.0000
  H   H23       1.0  0.74101  0.04971  0.23946  1.0000
  H   H24       1.0  0.25899  0.95028  0.76054  1.0000
  H   H25       1.0  0.29540  0.27157  0.56182  1.0000
  H   H26       1.0  0.70460  0.72843  0.43816  1.0000
  H   H27       1.0  0.47213  0.31802  0.56494  1.0000
  H   H28       1.0  0.52787  0.68198  0.43504  1.0000
  H   H29       1.0  0.42787  0.17793  0.65933  1.0000
  H   H30       1.0  0.57212  0.82208  0.34066  1.0000
  H   H31       1.0  0.12222  0.26353  0.99533  1.0000
  H   H32       1.0  0.87779  0.73647  0.00467  1.0000
  H   H33       1.0  0.97920  0.23184  0.95797  1.0000
  H   H34       1.0  0.02080  0.76817  0.04202  1.0000
  H   H35       1.0  0.23694  0.22516  0.83352  1.0000
  H   H36       1.0  0.76306  0.77484  0.16648  1.0000
  H   H37       1.0  0.42573  0.18971  0.83697  1.0000
  H   H38       1.0  0.57427  0.81029  0.16302  1.0000
  C   C1        1.0  0.53352  0.87788  0.88975  1.0000
  C   C2        1.0  0.46648  0.12213  0.11025  1.0000
  C   C3        1.0  0.66519  0.83395  0.81691  1.0000
  C   C4        1.0  0.33480  0.16606  0.18309  1.0000
  C   C5        1.0  0.73060  0.59145  0.95146  1.0000
  C   C6        1.0  0.26940  0.40856  0.04854  1.0000
  C   C7        1.0  0.80521  0.42475  0.11182  1.0000
  C   C8        1.0  0.19478  0.57525  0.88818  1.0000
  C   C9        1.0  0.84221  0.30628  0.20147  1.0000
  C   C10       1.0  0.15778  0.69372  0.79853  1.0000
  C   C11       1.0  0.31329  0.72088  0.14328  1.0000
  C   C12       1.0  0.68671  0.27912  0.85672  1.0000
  C   C13       1.0  0.35684  0.58214  0.20146  1.0000
  C   C14       1.0  0.64316  0.41786  0.79855  1.0000
  C   C15       1.0  0.25216  0.58301  0.39066  1.0000
  C   C16       1.0  0.74787  0.41699  0.60934  1.0000
  C   C17       1.0  0.04350  0.64144  0.51082  1.0000
  C   C18       1.0  0.95651  0.35856  0.48918  1.0000
  C   C19       1.0  0.94154  0.66858  0.59860  1.0000
  C   C20       1.0  0.05846  0.33141  0.40141  1.0000
  C   C21       1.0  0.98237  0.97407  0.18725  1.0000
  C   C22       1.0  0.01763  0.02593  0.81274  1.0000
  C   C23       1.0  0.84290  0.97396  0.27128  1.0000
  C   C24       1.0  0.15710  0.02603  0.72873  1.0000
  C   C25       1.0  0.72278  0.06458  0.42103  1.0000
  C   C26       1.0  0.27723  0.93542  0.57897  1.0000
  C   C27       1.0  0.51905  0.17581  0.50912  1.0000
  C   C28       1.0  0.48094  0.82417  0.49088  1.0000
  C   C29       1.0  0.42291  0.23889  0.57716  1.0000
  C   C30       1.0  0.57709  0.76111  0.42283  1.0000
  S   S1        1.0  0.66549  0.68128  0.83026  1.0000
  S   S2        1.0  0.33450  0.31872  0.16974  1.0000
  S   S3        1.0  0.71061  0.43928  0.01079  1.0000
  S   S4        1.0  0.28938  0.56073  0.98921  1.0000
  S   S5        1.0  0.43023  0.53126  0.32457  1.0000
  S   S6        1.0  0.56979  0.46874  0.67543  1.0000
  S   S7        1.0  0.24882  0.57058  0.51557  1.0000
  S   S8        1.0  0.75118  0.42938  0.48445  1.0000
  S   S9        1.0  0.90414  0.98736  0.37759  1.0000
  S   S10       1.0  0.09586  0.01264  0.62241  1.0000
  S   S11       1.0  0.72023  0.09918  0.52635  1.0000
  S   S12       1.0  0.27979  0.90086  0.47362  1.0000
  N   N1        1.0  0.79901  0.62263  0.00762  1.0000
  N   N2        1.0  0.20099  0.37738  0.99238  1.0000
  N   N3        1.0  0.84118  0.52737  0.09875  1.0000
  N   N4        1.0  0.15882  0.47263  0.90125  1.0000
  N   N5        1.0  0.11092  0.63480  0.35344  1.0000
  N   N6        1.0  0.88912  0.36524  0.64656  1.0000
  N   N7        1.0  0.99327  0.66759  0.42262  1.0000
  N   N8        1.0  0.00676  0.33244  0.57737  1.0000
  N   N9        1.0  0.58332  0.10736  0.38114  1.0000
  N   N10       1.0  0.41667  0.89258  0.61889  1.0000
  N   N11       1.0  0.46798  0.17087  0.43207  1.0000
  N   N12       1.0  0.53200  0.82906  0.56795  1.0000
  O   O1        1.0  0.39148  0.86141  0.90095  1.0000
  O   O2        1.0  0.60851  0.13860  0.09906  1.0000
  O   O3        1.0  0.56974  0.93462  0.93600  1.0000
  O   O4        1.0  0.43025  0.06540  0.06399  1.0000
  O   O5        1.0  0.40400  0.78831  0.14090  1.0000
  O   O6        1.0  0.59600  0.21170  0.85911  1.0000
  O   O7        1.0  0.18984  0.76634  0.09385  1.0000
  O   O8        1.0  0.81016  0.23366  0.90615  1.0000
  O   O9        1.0  0.94914  0.97635  0.10338  1.0000
  O   O10       1.0  0.05086  0.02365  0.89662  1.0000
  O   O11       1.0  0.12476  0.97105  0.19828  1.0000
  O   O12       1.0  0.87523  0.02895  0.80171  1.0000
  O   O13       1.0  0.08007  0.19722  0.99185  1.0000
  O   O14       1.0  0.91993  0.80278  0.00815  1.0000
  O   O15       1.0  0.33075  0.15807  0.83720  1.0000
  O   O16       1.0  0.66925  0.84193  0.16279  1.0000
