data_image0
_chemical_formula_structural       Ba2H48C32N8O22
_chemical_formula_sum              "Ba2 H48 C32 N8 O22"
_cell_length_a       10.3208
_cell_length_b       10.4219
_cell_length_c       10.7534
_cell_angle_alpha    76.4667
_cell_angle_beta     78.9507
_cell_angle_gamma    84.1328

_space_group_name_H-M_alt    "P 1"
_space_group_IT_number       1

loop_
  _space_group_symop_operation_xyz
  'x, y, z'

loop_
  _atom_site_type_symbol
  _atom_site_label
  _atom_site_symmetry_multiplicity
  _atom_site_fract_x
  _atom_site_fract_y
  _atom_site_fract_z
  _atom_site_occupancy
  Ba  Ba1       1.0  0.46509  0.27796  0.60901  1.0000
  Ba  Ba2       1.0  0.53491  0.72204  0.39099  1.0000
  H   H1        1.0  0.86136  0.30861  0.70443  1.0000
  H   H2        1.0  0.13864  0.69139  0.29557  1.0000
  H   H3        1.0  0.27476  0.05853  0.19536  1.0000
  H   H4        1.0  0.72524  0.94148  0.80464  1.0000
  H   H5        1.0  0.03972  0.69275  0.62768  1.0000
  H   H6        1.0  0.96028  0.30725  0.37232  1.0000
  H   H7        1.0  0.38006  0.75986  0.95819  1.0000
  H   H8        1.0  0.61994  0.24014  0.04181  1.0000
  H   H9        1.0  0.72677  0.17643  0.45793  1.0000
  H   H10       1.0  0.27323  0.82357  0.54208  1.0000
  H   H11       1.0  0.63455  0.07377  0.43434  1.0000
  H   H12       1.0  0.36545  0.92623  0.56567  1.0000
  H   H13       1.0  0.48662  0.25704  0.29081  1.0000
  H   H14       1.0  0.51339  0.74296  0.70919  1.0000
  H   H15       1.0  0.34957  0.34092  0.32765  1.0000
  H   H16       1.0  0.65044  0.65907  0.67235  1.0000
  H   H17       1.0  0.56881  0.41516  0.81320  1.0000
  H   H18       1.0  0.43119  0.58484  0.18680  1.0000
  H   H19       1.0  0.50893  0.53405  0.71827  1.0000
  H   H20       1.0  0.49107  0.46595  0.28174  1.0000
  H   H21       1.0  0.16158  0.07785  0.62271  1.0000
  H   H22       1.0  0.83842  0.92215  0.37729  1.0000
  H   H23       1.0  0.98843  0.09115  0.62582  1.0000
  H   H24       1.0  0.01156  0.90884  0.37418  1.0000
  H   H25       1.0  0.94659  0.07275  0.86529  1.0000
  H   H26       1.0  0.05341  0.92725  0.13471  1.0000
  H   H27       1.0  0.11736  0.06913  0.86525  1.0000
  H   H28       1.0  0.88264  0.93087  0.13475  1.0000
  H   H29       1.0  0.97970  0.85755  0.78692  1.0000
  H   H30       1.0  0.02030  0.14244  0.21308  1.0000
  H   H31       1.0  0.03502  0.84006  0.93683  1.0000
  H   H32       1.0  0.96499  0.15994  0.06317  1.0000
  H   H33       1.0  0.15054  0.85328  0.79014  1.0000
  H   H34       1.0  0.84947  0.14672  0.20986  1.0000
  H   H35       1.0  0.38523  0.36539  0.99225  1.0000
  H   H36       1.0  0.61476  0.63461  0.00776  1.0000
  H   H37       1.0  0.26099  0.31030  0.12830  1.0000
  H   H38       1.0  0.73900  0.68970  0.87171  1.0000
  H   H39       1.0  0.21973  0.37645  0.84488  1.0000
  H   H40       1.0  0.78027  0.62355  0.15512  1.0000
  H   H41       1.0  0.09390  0.34515  0.98236  1.0000
  H   H42       1.0  0.90609  0.65486  0.01763  1.0000
  H   H43       1.0  0.14943  0.55469  0.04291  1.0000
  H   H44       1.0  0.85056  0.44532  0.95709  1.0000
  H   H45       1.0  0.10132  0.58778  0.88770  1.0000
  H   H46       1.0  0.89868  0.41222  0.11230  1.0000
  H   H47       1.0  0.27079  0.58204  0.89991  1.0000
  H   H48       1.0  0.72921  0.41796  0.10009  1.0000
  C   C1        1.0  0.22346  0.56710  0.58351  1.0000
  C   C2        1.0  0.77654  0.43290  0.41648  1.0000
  C   C3        1.0  0.13117  0.45849  0.62390  1.0000
  C   C4        1.0  0.86884  0.54150  0.37609  1.0000
  C   C5        1.0  0.99364  0.46547  0.66109  1.0000
  C   C6        1.0  0.00636  0.53453  0.33891  1.0000
  C   C7        1.0  0.89296  0.57310  0.67864  1.0000
  C   C8        1.0  0.10705  0.42690  0.32135  1.0000
  C   C9        1.0  0.06828  0.25839  0.65748  1.0000
  C   C10       1.0  0.93172  0.74160  0.34253  1.0000
  C   C11       1.0  0.06663  0.11285  0.67339  1.0000
  C   C12       1.0  0.93337  0.88715  0.32661  1.0000
  C   C13       1.0  0.04397  0.03958  0.81709  1.0000
  C   C14       1.0  0.95603  0.96042  0.18291  1.0000
  C   C15       1.0  0.05269  0.88981  0.83360  1.0000
  C   C16       1.0  0.94731  0.11019  0.16640  1.0000
  C   C17       1.0  0.39842  0.94053  0.80020  1.0000
  C   C18       1.0  0.60157  0.05946  0.19980  1.0000
  C   C19       1.0  0.36533  0.00932  0.90962  1.0000
  C   C20       1.0  0.63467  0.99068  0.09038  1.0000
  C   C21       1.0  0.33136  0.95653  0.04261  1.0000
  C   C22       1.0  0.66864  0.04346  0.95739  1.0000
  C   C23       1.0  0.31892  0.82241  0.12246  1.0000
  C   C24       1.0  0.68108  0.17759  0.87754  1.0000
  C   C25       1.0  0.32038  0.17691  0.00272  1.0000
  C   C26       1.0  0.67961  0.82310  0.99729  1.0000
  C   C27       1.0  0.29316  0.31324  0.02433  1.0000
  C   C28       1.0  0.70683  0.68676  0.97567  1.0000
  C   C29       1.0  0.18973  0.38980  0.94479  1.0000
  C   C30       1.0  0.81026  0.61020  0.05521  1.0000
  C   C31       1.0  0.17670  0.53666  0.94434  1.0000
  C   C32       1.0  0.82329  0.46335  0.05566  1.0000
  N   N1        1.0  0.17552  0.32935  0.62321  1.0000
  N   N2        1.0  0.82448  0.67065  0.37679  1.0000
  N   N3        1.0  0.95732  0.33791  0.68087  1.0000
  N   N4        1.0  0.04269  0.66209  0.31913  1.0000
  N   N5        1.0  0.35849  0.14487  0.88695  1.0000
  N   N6        1.0  0.64151  0.85513  0.11305  1.0000
  N   N7        1.0  0.30327  0.06493  0.09811  1.0000
  N   N8        1.0  0.69673  0.93507  0.90189  1.0000
  O   O1        1.0  0.34434  0.54025  0.54552  1.0000
  O   O2        1.0  0.65566  0.45975  0.45448  1.0000
  O   O3        1.0  0.17329  0.68511  0.58798  1.0000
  O   O4        1.0  0.82672  0.31489  0.41202  1.0000
  O   O5        1.0  0.93245  0.69342  0.65836  1.0000
  O   O6        1.0  0.06756  0.30658  0.34164  1.0000
  O   O7        1.0  0.77443  0.54755  0.71294  1.0000
  O   O8        1.0  0.22558  0.45245  0.28705  1.0000
  O   O9        1.0  0.40650  0.00822  0.68607  1.0000
  O   O10       1.0  0.59350  0.99179  0.31393  1.0000
  O   O11       1.0  0.41617  0.81295  0.82906  1.0000
  O   O12       1.0  0.58383  0.18705  0.17094  1.0000
  O   O13       1.0  0.34747  0.72373  0.06272  1.0000
  O   O14       1.0  0.65252  0.27627  0.93728  1.0000
  O   O15       1.0  0.28167  0.80425  0.24251  1.0000
  O   O16       1.0  0.71833  0.19575  0.75749  1.0000
  O   O17       1.0  0.65995  0.11129  0.50183  1.0000
  O   O18       1.0  0.34006  0.88870  0.49817  1.0000
  O   O19       1.0  0.43574  0.30602  0.35514  1.0000
  O   O20       1.0  0.56426  0.69398  0.64486  1.0000
  O   O21       1.0  0.49381  0.44189  0.76730  1.0000
  O   O22       1.0  0.50620  0.55811  0.23270  1.0000
