data_image0
_chemical_formula_structural       Sr2H44C32N8O20
_chemical_formula_sum              "Sr2 H44 C32 N8 O20"
_cell_length_a       9.25455
_cell_length_b       9.25461
_cell_length_c       11.5765
_cell_angle_alpha    96.6517
_cell_angle_beta     96.6514
_cell_angle_gamma    90.3241

_space_group_name_H-M_alt    "P 1"
_space_group_IT_number       1

loop_
  _space_group_symop_operation_xyz
  'x, y, z'

loop_
  _atom_site_type_symbol
  _atom_site_label
  _atom_site_symmetry_multiplicity
  _atom_site_fract_x
  _atom_site_fract_y
  _atom_site_fract_z
  _atom_site_occupancy
  Sr  Sr1       1.0  0.92168  0.07832  0.75000  1.0000
  Sr  Sr2       1.0  0.07832  0.92168  0.25000  1.0000
  H   H1        1.0  0.44638  0.83553  0.92816  1.0000
  H   H2        1.0  0.16448  0.55362  0.57183  1.0000
  H   H3        1.0  0.55362  0.16447  0.07184  1.0000
  H   H4        1.0  0.83552  0.44638  0.42817  1.0000
  H   H5        1.0  0.04347  0.14291  0.02020  1.0000
  H   H6        1.0  0.85708  0.95654  0.47979  1.0000
  H   H7        1.0  0.95654  0.85709  0.97980  1.0000
  H   H8        1.0  0.14292  0.04346  0.52021  1.0000
  H   H9        1.0  0.87452  0.15516  0.02032  1.0000
  H   H10       1.0  0.84485  0.12548  0.47968  1.0000
  H   H11       1.0  0.12548  0.84484  0.97968  1.0000
  H   H12       1.0  0.15515  0.87451  0.52032  1.0000
  H   H13       1.0  0.28935  0.16305  0.69399  1.0000
  H   H14       1.0  0.83695  0.71065  0.80601  1.0000
  H   H15       1.0  0.71065  0.83695  0.30601  1.0000
  H   H16       1.0  0.16305  0.28935  0.19400  1.0000
  H   H17       1.0  0.64911  0.30662  0.61316  1.0000
  H   H18       1.0  0.69338  0.35089  0.88684  1.0000
  H   H19       1.0  0.35089  0.69338  0.38684  1.0000
  H   H20       1.0  0.30662  0.64911  0.11316  1.0000
  H   H21       1.0  0.47076  0.36851  0.63023  1.0000
  H   H22       1.0  0.63150  0.52924  0.86977  1.0000
  H   H23       1.0  0.52924  0.63149  0.36977  1.0000
  H   H24       1.0  0.36850  0.47076  0.13023  1.0000
  H   H25       1.0  0.55339  0.12185  0.45189  1.0000
  H   H26       1.0  0.87815  0.44661  0.04811  1.0000
  H   H27       1.0  0.44661  0.87815  0.54811  1.0000
  H   H28       1.0  0.12185  0.55339  0.95189  1.0000
  H   H29       1.0  0.37193  0.16072  0.47541  1.0000
  H   H30       1.0  0.83929  0.62806  0.02459  1.0000
  H   H31       1.0  0.62806  0.83929  0.52459  1.0000
  H   H32       1.0  0.16071  0.37193  0.97541  1.0000
  H   H33       1.0  0.39808  0.41097  0.42079  1.0000
  H   H34       1.0  0.58903  0.60192  0.07922  1.0000
  H   H35       1.0  0.60192  0.58903  0.57921  1.0000
  H   H36       1.0  0.41097  0.39808  0.92078  1.0000
  H   H37       1.0  0.44399  0.28210  0.30590  1.0000
  H   H38       1.0  0.71790  0.55601  0.19410  1.0000
  H   H39       1.0  0.55601  0.71790  0.69410  1.0000
  H   H40       1.0  0.28210  0.44399  0.80590  1.0000
  H   H41       1.0  0.58355  0.38048  0.40003  1.0000
  H   H42       1.0  0.61952  0.41645  0.09997  1.0000
  H   H43       1.0  0.41645  0.61952  0.59997  1.0000
  H   H44       1.0  0.38047  0.58355  0.90003  1.0000
  C   C1        1.0  0.56511  0.00151  0.81021  1.0000
  C   C2        1.0  0.99848  0.43489  0.68978  1.0000
  C   C3        1.0  0.43489  0.99849  0.18979  1.0000
  C   C4        1.0  0.00151  0.56511  0.31021  1.0000
  C   C5        1.0  0.41509  0.02281  0.79978  1.0000
  C   C6        1.0  0.97719  0.58491  0.70022  1.0000
  C   C7        1.0  0.58491  0.97719  0.20022  1.0000
  C   C8        1.0  0.02281  0.41509  0.29978  1.0000
  C   C9        1.0  0.52074  0.16581  0.69135  1.0000
  C   C10       1.0  0.83419  0.47926  0.80865  1.0000
  C   C11       1.0  0.47926  0.83419  0.30865  1.0000
  C   C12       1.0  0.16581  0.52074  0.19135  1.0000
  C   C13       1.0  0.65225  0.89534  0.87322  1.0000
  C   C14       1.0  0.10466  0.34775  0.62678  1.0000
  C   C15       1.0  0.34775  0.10466  0.12678  1.0000
  C   C16       1.0  0.89534  0.65225  0.37322  1.0000
  C   C17       1.0  0.29624  0.96412  0.85476  1.0000
  C   C18       1.0  0.03588  0.70376  0.64523  1.0000
  C   C19       1.0  0.70377  0.03587  0.14523  1.0000
  C   C20       1.0  0.96412  0.29624  0.35477  1.0000
  C   C21       1.0  0.53442  0.27202  0.60615  1.0000
  C   C22       1.0  0.72798  0.46558  0.89385  1.0000
  C   C23       1.0  0.46558  0.72798  0.39385  1.0000
  C   C24       1.0  0.27202  0.53442  0.10615  1.0000
  C   C25       1.0  0.48092  0.20984  0.47901  1.0000
  C   C26       1.0  0.79017  0.51908  0.02099  1.0000
  C   C27       1.0  0.51908  0.79017  0.52099  1.0000
  C   C28       1.0  0.20983  0.48092  0.97901  1.0000
  C   C29       1.0  0.47655  0.32752  0.39698  1.0000
  C   C30       1.0  0.67248  0.52345  0.10302  1.0000
  C   C31       1.0  0.52345  0.67248  0.60302  1.0000
  C   C32       1.0  0.32752  0.47655  0.89698  1.0000
  N   N1        1.0  0.62869  0.09188  0.74351  1.0000
  N   N2        1.0  0.90812  0.37131  0.75649  1.0000
  N   N3        1.0  0.37131  0.90812  0.25649  1.0000
  N   N4        1.0  0.09188  0.62869  0.24351  1.0000
  N   N5        1.0  0.39113  0.12665  0.72442  1.0000
  N   N6        1.0  0.87335  0.60887  0.77557  1.0000
  N   N7        1.0  0.60887  0.87335  0.27558  1.0000
  N   N8        1.0  0.12665  0.39113  0.22443  1.0000
  O   O1        1.0  0.78749  0.88851  0.86203  1.0000
  O   O2        1.0  0.11150  0.21250  0.63797  1.0000
  O   O3        1.0  0.21251  0.11149  0.13797  1.0000
  O   O4        1.0  0.88850  0.78750  0.36203  1.0000
  O   O5        1.0  0.58768  0.81165  0.93273  1.0000
  O   O6        1.0  0.18835  0.41231  0.56727  1.0000
  O   O7        1.0  0.41232  0.18835  0.06726  1.0000
  O   O8        1.0  0.81165  0.58769  0.43273  1.0000
  O   O9        1.0  0.32698  0.86030  0.92185  1.0000
  O   O10       1.0  0.13970  0.67302  0.57815  1.0000
  O   O11       1.0  0.67303  0.13970  0.07815  1.0000
  O   O12       1.0  0.86030  0.32698  0.42185  1.0000
  O   O13       1.0  0.17121  0.01250  0.83954  1.0000
  O   O14       1.0  0.98751  0.82879  0.66046  1.0000
  O   O15       1.0  0.82879  0.98750  0.16045  1.0000
  O   O16       1.0  0.01250  0.17121  0.33955  1.0000
  O   O17       1.0  0.95457  0.17318  0.97501  1.0000
  O   O18       1.0  0.82682  0.04544  0.52499  1.0000
  O   O19       1.0  0.04544  0.82682  0.02499  1.0000
  O   O20       1.0  0.17318  0.95456  0.47501  1.0000
