data_image0
_chemical_formula_structural       Cd4H38C74N16Cl2O12
_chemical_formula_sum              "Cd4 H38 C74 N16 Cl2 O12"
_cell_length_a       9.8937
_cell_length_b       12.2836
_cell_length_c       15.7234
_cell_angle_alpha    67.7302
_cell_angle_beta     74.1868
_cell_angle_gamma    80.0258

_space_group_name_H-M_alt    "P 1"
_space_group_IT_number       1

loop_
  _space_group_symop_operation_xyz
  'x, y, z'

loop_
  _atom_site_type_symbol
  _atom_site_label
  _atom_site_symmetry_multiplicity
  _atom_site_fract_x
  _atom_site_fract_y
  _atom_site_fract_z
  _atom_site_occupancy
  Cd  Cd1       1.0  0.72052  0.39135  0.60539  1.0000
  Cd  Cd2       1.0  0.27948  0.60865  0.39461  1.0000
  Cd  Cd3       1.0  0.84070  0.72252  0.39104  1.0000
  Cd  Cd4       1.0  0.15929  0.27748  0.60896  1.0000
  H   H1        1.0  0.08639  0.91253  0.30531  1.0000
  H   H2        1.0  0.91361  0.08747  0.69469  1.0000
  H   H3        1.0  0.23163  0.03346  0.14804  1.0000
  H   H4        1.0  0.76837  0.96654  0.85196  1.0000
  H   H5        1.0  0.67777  0.76901  0.63776  1.0000
  H   H6        1.0  0.32224  0.23099  0.36223  1.0000
  H   H7        1.0  0.92121  0.55450  0.64715  1.0000
  H   H8        1.0  0.07879  0.44550  0.35285  1.0000
  H   H9        1.0  0.92683  0.62454  0.77690  1.0000
  H   H10       1.0  0.07317  0.37545  0.22310  1.0000
  H   H11       1.0  0.78087  0.52747  0.93986  1.0000
  H   H12       1.0  0.21913  0.47253  0.06014  1.0000
  H   H13       1.0  0.52386  0.35376  0.20492  1.0000
  H   H14       1.0  0.47614  0.64624  0.79508  1.0000
  H   H15       1.0  0.36661  0.20235  0.22274  1.0000
  H   H16       1.0  0.63338  0.79765  0.77726  1.0000
  H   H17       1.0  0.37266  0.10282  0.99839  1.0000
  H   H18       1.0  0.62735  0.89717  0.00162  1.0000
  H   H19       1.0  0.37314  0.05599  0.85301  1.0000
  H   H20       1.0  0.62688  0.94400  0.14700  1.0000
  H   H21       1.0  0.52468  0.16743  0.69963  1.0000
  H   H22       1.0  0.47533  0.83256  0.30037  1.0000
  H   H23       1.0  0.22495  0.99240  0.00287  1.0000
  H   H24       1.0  0.77504  0.00760  0.99714  1.0000
  H   H25       1.0  0.22349  0.89987  0.77506  1.0000
  H   H26       1.0  0.77651  0.10013  0.22494  1.0000
  H   H27       1.0  0.07184  0.74341  0.79489  1.0000
  H   H28       1.0  0.92817  0.25659  0.20511  1.0000
  H   H29       1.0  0.82098  0.56360  0.06177  1.0000
  H   H30       1.0  0.17903  0.43639  0.93823  1.0000
  H   H31       1.0  0.67921  0.46277  0.22695  1.0000
  H   H32       1.0  0.32079  0.53722  0.77305  1.0000
  H   H33       1.0  0.69495  0.52308  0.35700  1.0000
  H   H34       1.0  0.30505  0.47692  0.64300  1.0000
  H   H35       1.0  0.55434  0.95673  0.66005  1.0000
  H   H36       1.0  0.44567  0.04327  0.33994  1.0000
  H   H37       1.0  0.23617  0.93809  0.52905  1.0000
  H   H38       1.0  0.76383  0.06192  0.47095  1.0000
  C   C1        1.0  0.08510  0.90163  0.23973  1.0000
  C   C2        1.0  0.91489  0.09837  0.76027  1.0000
  C   C3        1.0  0.16636  0.96777  0.15213  1.0000
  C   C4        1.0  0.83363  0.03223  0.84787  1.0000
  C   C5        1.0  0.51975  0.74451  0.57729  1.0000
  C   C6        1.0  0.48025  0.25549  0.42271  1.0000
  C   C7        1.0  0.57747  0.80438  0.61760  1.0000
  C   C8        1.0  0.42254  0.19562  0.38240  1.0000
  C   C9        1.0  0.58337  0.62278  0.58127  1.0000
  C   C10       1.0  0.41663  0.37722  0.41872  1.0000
  C   C11       1.0  0.85762  0.51602  0.71860  1.0000
  C   C12       1.0  0.14239  0.48398  0.28140  1.0000
  C   C13       1.0  0.86060  0.55455  0.79147  1.0000
  C   C14       1.0  0.13941  0.44545  0.20853  1.0000
  C   C15       1.0  0.78031  0.50143  0.88104  1.0000
  C   C16       1.0  0.21970  0.49857  0.11896  1.0000
  C   C17       1.0  0.69499  0.41211  0.89639  1.0000
  C   C18       1.0  0.30500  0.58790  0.10361  1.0000
  C   C19       1.0  0.60674  0.35364  0.98845  1.0000
  C   C20       1.0  0.39325  0.64636  0.01155  1.0000
  C   C21       1.0  0.52429  0.32985  0.14457  1.0000
  C   C22       1.0  0.47570  0.67015  0.85543  1.0000
  C   C23       1.0  0.43658  0.24442  0.15497  1.0000
  C   C24       1.0  0.56342  0.75558  0.84503  1.0000
  C   C25       1.0  0.52020  0.26630  0.99962  1.0000
  C   C26       1.0  0.47980  0.73370  0.00038  1.0000
  C   C27       1.0  0.51995  0.23444  0.91981  1.0000
  C   C28       1.0  0.48005  0.76556  0.08019  1.0000
  C   C29       1.0  0.43620  0.14732  0.92877  1.0000
  C   C30       1.0  0.56381  0.85268  0.07123  1.0000
  C   C31       1.0  0.43708  0.12176  0.85024  1.0000
  C   C32       1.0  0.56293  0.87824  0.14977  1.0000
  C   C33       1.0  0.52220  0.18449  0.76315  1.0000
  C   C34       1.0  0.47781  0.81550  0.23685  1.0000
  C   C35       1.0  0.60422  0.29195  0.83009  1.0000
  C   C36       1.0  0.39577  0.70805  0.16991  1.0000
  C   C37       1.0  0.69507  0.38097  0.81832  1.0000
  C   C38       1.0  0.30492  0.61904  0.18167  1.0000
  C   C39       1.0  0.16351  0.94559  0.07265  1.0000
  C   C40       1.0  0.83648  0.05441  0.92735  1.0000
  C   C41       1.0  0.08001  0.85876  0.08080  1.0000
  C   C42       1.0  0.91998  0.14124  0.91921  1.0000
  C   C43       1.0  0.07761  0.82885  0.00036  1.0000
  C   C44       1.0  0.92239  0.17115  0.99965  1.0000
  C   C45       1.0  0.15679  0.85495  0.84370  1.0000
  C   C46       1.0  0.84321  0.14504  0.15630  1.0000
  C   C47       1.0  0.07164  0.76715  0.85531  1.0000
  C   C48       1.0  0.92836  0.23284  0.14469  1.0000
  C   C49       1.0  0.99214  0.74018  0.01216  1.0000
  C   C50       1.0  0.00785  0.25982  0.98784  1.0000
  C   C51       1.0  0.90739  0.67880  0.10511  1.0000
  C   C52       1.0  0.09261  0.32120  0.89489  1.0000
  C   C53       1.0  0.82367  0.58810  0.12096  1.0000
  C   C54       1.0  0.17634  0.41190  0.87904  1.0000
  C   C55       1.0  0.74765  0.53163  0.21115  1.0000
  C   C56       1.0  0.25236  0.46836  0.78885  1.0000
  C   C57       1.0  0.75504  0.56612  0.28532  1.0000
  C   C58       1.0  0.24496  0.43388  0.71468  1.0000
  C   C59       1.0  0.91037  0.70754  0.18369  1.0000
  C   C60       1.0  0.08963  0.29245  0.81631  1.0000
  C   C61       1.0  0.99904  0.79852  0.17110  1.0000
  C   C62       1.0  0.00095  0.20148  0.82890  1.0000
  C   C63       1.0  0.30427  0.06302  0.61729  1.0000
  C   C64       1.0  0.69573  0.93698  0.38271  1.0000
  C   C65       1.0  0.34797  0.74732  0.48288  1.0000
  C   C66       1.0  0.65204  0.25269  0.51712  1.0000
  C   C67       1.0  0.38095  0.95262  0.60383  1.0000
  C   C68       1.0  0.61906  0.04739  0.39617  1.0000
  C   C69       1.0  0.50898  0.90776  0.63083  1.0000
  C   C70       1.0  0.49102  0.09224  0.36916  1.0000
  C   C71       1.0  0.39841  0.79553  0.54216  1.0000
  C   C72       1.0  0.60159  0.20447  0.45783  1.0000
  C   C73       1.0  0.32963  0.89825  0.55669  1.0000
  C   C74       1.0  0.67037  0.10176  0.44330  1.0000
  N   N1        1.0  0.77751  0.43162  0.73200  1.0000
  N   N2        1.0  0.22249  0.56838  0.26800  1.0000
  N   N3        1.0  0.60312  0.26634  0.75399  1.0000
  N   N4        1.0  0.39688  0.73365  0.24600  1.0000
  N   N5        1.0  0.60827  0.38456  0.06218  1.0000
  N   N6        1.0  0.39173  0.61544  0.93782  1.0000
  N   N7        1.0  0.43429  0.21233  0.08380  1.0000
  N   N8        1.0  0.56571  0.78767  0.91620  1.0000
  N   N9        1.0  0.00378  0.82081  0.24787  1.0000
  N   N10       1.0  0.99622  0.17919  0.75213  1.0000
  N   N11       1.0  0.83463  0.65130  0.27166  1.0000
  N   N12       1.0  0.16537  0.34870  0.72834  1.0000
  N   N13       1.0  0.16025  0.88546  0.91554  1.0000
  N   N14       1.0  0.83974  0.11454  0.08446  1.0000
  N   N15       1.0  0.99032  0.70995  0.93810  1.0000
  N   N16       1.0  0.00968  0.29004  0.06190  1.0000
  Cl  Cl1       1.0  0.96942  0.35825  0.51422  1.0000
  Cl  Cl2       1.0  0.03057  0.64176  0.48578  1.0000
  O   O1        1.0  0.68901  0.60477  0.51758  1.0000
  O   O2        1.0  0.31099  0.39523  0.48241  1.0000
  O   O3        1.0  0.53569  0.53956  0.65533  1.0000
  O   O4        1.0  0.46430  0.46044  0.34467  1.0000
  O   O5        1.0  0.38118  0.63672  0.49578  1.0000
  O   O6        1.0  0.61882  0.36329  0.50422  1.0000
  O   O7        1.0  0.28178  0.81614  0.42259  1.0000
  O   O8        1.0  0.71822  0.18388  0.57742  1.0000
  O   O9        1.0  0.19693  0.10472  0.58060  1.0000
  O   O10       1.0  0.80308  0.89528  0.41940  1.0000
  O   O11       1.0  0.34683  0.11150  0.66290  1.0000
  O   O12       1.0  0.65317  0.88850  0.33711  1.0000
