data_image0
_chemical_formula_structural       Li4H8C8O12
_chemical_formula_sum              "Li4 H8 C8 O12"
_cell_length_a       7.07767
_cell_length_b       7.27344
_cell_length_c       7.56384
_cell_angle_alpha    96.8217
_cell_angle_beta     94.5443
_cell_angle_gamma    115.023

_space_group_name_H-M_alt    "P 1"
_space_group_IT_number       1

loop_
  _space_group_symop_operation_xyz
  'x, y, z'

loop_
  _atom_site_type_symbol
  _atom_site_label
  _atom_site_symmetry_multiplicity
  _atom_site_fract_x
  _atom_site_fract_y
  _atom_site_fract_z
  _atom_site_occupancy
  Li  Li1       1.0  0.11261  0.49881  0.77230  1.0000
  Li  Li2       1.0  0.88739  0.50120  0.22771  1.0000
  Li  Li3       1.0  0.82341  0.10059  0.94223  1.0000
  Li  Li4       1.0  0.17659  0.89941  0.05777  1.0000
  H   H1        1.0  0.40899  0.73909  0.96577  1.0000
  H   H2        1.0  0.59102  0.26091  0.03423  1.0000
  H   H3        1.0  0.90583  0.67858  0.74182  1.0000
  H   H4        1.0  0.09418  0.32142  0.25818  1.0000
  H   H5        1.0  0.77560  0.47184  0.59644  1.0000
  H   H6        1.0  0.22440  0.52816  0.40356  1.0000
  H   H7        1.0  0.26614  0.60522  0.10908  1.0000
  H   H8        1.0  0.73387  0.39479  0.89093  1.0000
  C   C1        1.0  0.50688  0.76170  0.66124  1.0000
  C   C2        1.0  0.49312  0.23830  0.33876  1.0000
  C   C3        1.0  0.86693  0.90340  0.25197  1.0000
  C   C4        1.0  0.13307  0.09660  0.74803  1.0000
  C   C5        1.0  0.63299  0.82265  0.51803  1.0000
  C   C6        1.0  0.36700  0.17734  0.48198  1.0000
  C   C7        1.0  0.73913  0.85943  0.39601  1.0000
  C   C8        1.0  0.26087  0.14057  0.60398  1.0000
  O   O1        1.0  0.89202  0.06197  0.18415  1.0000
  O   O2        1.0  0.10798  0.93803  0.81586  1.0000
  O   O3        1.0  0.31866  0.62304  0.61502  1.0000
  O   O4        1.0  0.68133  0.37695  0.38498  1.0000
  O   O5        1.0  0.26791  0.67986  0.00662  1.0000
  O   O6        1.0  0.73210  0.32014  0.99339  1.0000
  O   O7        1.0  0.94554  0.78027  0.20363  1.0000
  O   O8        1.0  0.05446  0.21973  0.79637  1.0000
  O   O9        1.0  0.59249  0.84611  0.82209  1.0000
  O   O10       1.0  0.40752  0.15389  0.17791  1.0000
  O   O11       1.0  0.85014  0.52719  0.72354  1.0000
  O   O12       1.0  0.14986  0.47281  0.27646  1.0000
