data_image0
_chemical_formula_structural       Zn2H28C32N4O8
_chemical_formula_sum              "Zn2 H28 C32 N4 O8"
_cell_length_a       8.11876
_cell_length_b       8.97568
_cell_length_c       11.2485
_cell_angle_alpha    91.2883
_cell_angle_beta     106.656
_cell_angle_gamma    96.604

_space_group_name_H-M_alt    "P 1"
_space_group_IT_number       1

loop_
  _space_group_symop_operation_xyz
  'x, y, z'

loop_
  _atom_site_type_symbol
  _atom_site_label
  _atom_site_symmetry_multiplicity
  _atom_site_fract_x
  _atom_site_fract_y
  _atom_site_fract_z
  _atom_site_occupancy
  Zn  Zn1       1.0  0.48088  0.86480  0.74199  1.0000
  Zn  Zn2       1.0  0.51911  0.13520  0.25801  1.0000
  H   H1        1.0  0.94982  0.06147  0.61210  1.0000
  H   H2        1.0  0.05017  0.93853  0.38789  1.0000
  H   H3        1.0  0.38263  0.38176  0.90128  1.0000
  H   H4        1.0  0.61738  0.61824  0.09872  1.0000
  H   H5        1.0  0.65470  0.01559  0.99684  1.0000
  H   H6        1.0  0.34530  0.98441  0.00316  1.0000
  H   H7        1.0  0.86563  0.23576  0.08999  1.0000
  H   H8        1.0  0.13438  0.76423  0.91002  1.0000
  H   H9        1.0  0.88797  0.33761  0.72052  1.0000
  H   H10       1.0  0.11202  0.66239  0.27947  1.0000
  H   H11       1.0  0.67261  0.11047  0.64037  1.0000
  H   H12       1.0  0.32737  0.88953  0.35962  1.0000
  H   H13       1.0  0.07630  0.49057  0.88966  1.0000
  H   H14       1.0  0.92371  0.50942  0.11034  1.0000
  H   H15       1.0  0.14715  0.40059  0.02934  1.0000
  H   H16       1.0  0.85285  0.59940  0.97067  1.0000
  H   H17       1.0  0.84080  0.79462  0.81300  1.0000
  H   H18       1.0  0.15920  0.20537  0.18701  1.0000
  H   H19       1.0  0.04664  0.68363  0.71622  1.0000
  H   H20       1.0  0.95336  0.31637  0.28379  1.0000
  H   H21       1.0  0.62758  0.59818  0.37746  1.0000
  H   H22       1.0  0.37243  0.40183  0.62254  1.0000
  H   H23       1.0  0.43715  0.70935  0.48858  1.0000
  H   H24       1.0  0.56285  0.29066  0.51143  1.0000
  H   H25       1.0  0.09598  0.65755  0.50021  1.0000
  H   H26       1.0  0.90402  0.34245  0.49979  1.0000
  H   H27       1.0  0.91689  0.56703  0.37608  1.0000
  H   H28       1.0  0.08310  0.43298  0.62392  1.0000
  C   C1        1.0  0.19325  0.96525  0.64013  1.0000
  C   C2        1.0  0.80674  0.03476  0.35985  1.0000
  C   C3        1.0  0.02808  0.01084  0.56207  1.0000
  C   C4        1.0  0.97190  0.98915  0.43792  1.0000
  C   C5        1.0  0.42807  0.61816  0.85705  1.0000
  C   C6        1.0  0.57194  0.38185  0.14295  1.0000
  C   C7        1.0  0.45143  0.49161  0.94050  1.0000
  C   C8        1.0  0.54858  0.50839  0.05950  1.0000
  C   C9        1.0  0.70752  0.09032  0.93807  1.0000
  C   C10       1.0  0.29247  0.90968  0.06193  1.0000
  C   C11       1.0  0.82798  0.21443  0.98960  1.0000
  C   C12       1.0  0.17202  0.78557  0.01040  1.0000
  C   C13       1.0  0.89772  0.30742  0.91298  1.0000
  C   C14       1.0  0.10228  0.69257  0.08701  1.0000
  C   C15       1.0  0.83837  0.26985  0.78491  1.0000
  C   C16       1.0  0.16162  0.73014  0.21509  1.0000
  C   C17       1.0  0.71773  0.14392  0.73953  1.0000
  C   C18       1.0  0.28226  0.85608  0.26047  1.0000
  C   C19       1.0  0.03261  0.44015  0.96525  1.0000
  C   C20       1.0  0.96740  0.55984  0.03475  1.0000
  C   C21       1.0  0.79858  0.74798  0.71710  1.0000
  C   C22       1.0  0.20142  0.25202  0.28291  1.0000
  C   C23       1.0  0.91142  0.68670  0.66367  1.0000
  C   C24       1.0  0.08858  0.31331  0.33634  1.0000
  C   C25       1.0  0.85324  0.63511  0.53829  1.0000
  C   C26       1.0  0.14676  0.36490  0.46172  1.0000
  C   C27       1.0  0.67901  0.64087  0.47414  1.0000
  C   C28       1.0  0.32100  0.35914  0.52586  1.0000
  C   C29       1.0  0.57340  0.70220  0.53494  1.0000
  C   C30       1.0  0.42660  0.29781  0.46507  1.0000
  C   C31       1.0  0.97653  0.57734  0.47708  1.0000
  C   C32       1.0  0.02346  0.42266  0.52291  1.0000
  N   N1        1.0  0.65297  0.05507  0.81472  1.0000
  N   N2        1.0  0.34702  0.94494  0.18528  1.0000
  N   N3        1.0  0.63223  0.75744  0.65365  1.0000
  N   N4        1.0  0.36777  0.24256  0.34636  1.0000
  O   O1        1.0  0.29638  0.91064  0.58601  1.0000
  O   O2        1.0  0.70361  0.08935  0.41398  1.0000
  O   O3        1.0  0.22816  0.97779  0.75714  1.0000
  O   O4        1.0  0.77183  0.02220  0.24285  1.0000
  O   O5        1.0  0.52804  0.74352  0.89407  1.0000
  O   O6        1.0  0.47196  0.25649  0.10594  1.0000
  O   O7        1.0  0.31267  0.59833  0.75342  1.0000
  O   O8        1.0  0.68733  0.40168  0.24659  1.0000
