data_image0
_chemical_formula_structural       Ag2H18C24N4O8
_chemical_formula_sum              "Ag2 H18 C24 N4 O8"
_cell_length_a       7.30592
_cell_length_b       7.30594
_cell_length_c       12.1773
_cell_angle_alpha    75.2322
_cell_angle_beta     75.2324
_cell_angle_gamma    64.8663

_space_group_name_H-M_alt    "P 1"
_space_group_IT_number       1

loop_
  _space_group_symop_operation_xyz
  'x, y, z'

loop_
  _atom_site_type_symbol
  _atom_site_label
  _atom_site_symmetry_multiplicity
  _atom_site_fract_x
  _atom_site_fract_y
  _atom_site_fract_z
  _atom_site_occupancy
  Ag  Ag1       1.0  0.99999  1.00000  0.00000  1.0000
  Ag  Ag2       1.0  1.00000  1.00000  0.50000  1.0000
  H   H1        1.0  0.34039  0.47639  0.82254  1.0000
  H   H2        1.0  0.47640  0.34039  0.32254  1.0000
  H   H3        1.0  0.65961  0.52361  0.17746  1.0000
  H   H4        1.0  0.52361  0.65961  0.67746  1.0000
  H   H5        1.0  0.71476  0.34283  0.84295  1.0000
  H   H6        1.0  0.34283  0.71475  0.34295  1.0000
  H   H7        1.0  0.28524  0.65717  0.15706  1.0000
  H   H8        1.0  0.65717  0.28524  0.65705  1.0000
  H   H9        1.0  0.59904  0.03901  0.17401  1.0000
  H   H10       1.0  0.03902  0.59903  0.67400  1.0000
  H   H11       1.0  0.40096  0.96098  0.82599  1.0000
  H   H12       1.0  0.96099  0.40097  0.32599  1.0000
  H   H13       1.0  0.10111  0.36316  0.98266  1.0000
  H   H14       1.0  0.36317  0.10111  0.48266  1.0000
  H   H15       1.0  0.89889  0.63684  0.01734  1.0000
  H   H16       1.0  0.63684  0.89889  0.51734  1.0000
  H   H17       1.0  0.91764  0.08239  0.24999  1.0000
  H   H18       1.0  0.08237  0.91763  0.75000  1.0000
  C   C1        1.0  0.39498  0.37803  0.90082  1.0000
  C   C2        1.0  0.37804  0.39498  0.40082  1.0000
  C   C3        1.0  0.60502  0.62197  0.09918  1.0000
  C   C4        1.0  0.62197  0.60502  0.59918  1.0000
  C   C5        1.0  0.60009  0.30638  0.91159  1.0000
  C   C6        1.0  0.30639  0.60009  0.41159  1.0000
  C   C7        1.0  0.39990  0.69362  0.08841  1.0000
  C   C8        1.0  0.69362  0.39991  0.58841  1.0000
  C   C9        1.0  0.53847  0.13625  0.09705  1.0000
  C   C10       1.0  0.13625  0.53847  0.59705  1.0000
  C   C11       1.0  0.46152  0.86375  0.90295  1.0000
  C   C12       1.0  0.86375  0.46153  0.40295  1.0000
  C   C13       1.0  0.33027  0.20216  0.09318  1.0000
  C   C14       1.0  0.20216  0.33027  0.59318  1.0000
  C   C15       1.0  0.66973  0.79784  0.90682  1.0000
  C   C16       1.0  0.79784  0.66973  0.40682  1.0000
  C   C17       1.0  0.25931  0.32004  0.99132  1.0000
  C   C18       1.0  0.32004  0.25931  0.49131  1.0000
  C   C19       1.0  0.74069  0.67996  0.00869  1.0000
  C   C20       1.0  0.67997  0.74069  0.50869  1.0000
  C   C21       1.0  0.19493  0.13392  0.19571  1.0000
  C   C22       1.0  0.13392  0.19493  0.69570  1.0000
  C   C23       1.0  0.80506  0.86608  0.80429  1.0000
  C   C24       1.0  0.86608  0.80507  0.30429  1.0000
  N   N1        1.0  0.67220  0.18232  0.00736  1.0000
  N   N2        1.0  0.18232  0.67220  0.50735  1.0000
  N   N3        1.0  0.32780  0.81769  0.99265  1.0000
  N   N4        1.0  0.81768  0.32780  0.49265  1.0000
  O   O1        1.0  0.26363  0.04124  0.28701  1.0000
  O   O2        1.0  0.04124  0.26364  0.78700  1.0000
  O   O3        1.0  0.73635  0.95876  0.71300  1.0000
  O   O4        1.0  0.95876  0.73636  0.21300  1.0000
  O   O5        1.0  0.00978  0.17844  0.17921  1.0000
  O   O6        1.0  0.17843  0.00978  0.67921  1.0000
  O   O7        1.0  0.99021  0.82157  0.82079  1.0000
  O   O8        1.0  0.82156  0.99021  0.32079  1.0000
