data_image0
_chemical_formula_structural       Cd4H56C60S8N16
_chemical_formula_sum              "Cd4 H56 C60 S8 N16"
_cell_length_a       9.63431
_cell_length_b       11.7522
_cell_length_c       17.7529
_cell_angle_alpha    105.201
_cell_angle_beta     90.0238
_cell_angle_gamma    114.177

_space_group_name_H-M_alt    "P 1"
_space_group_IT_number       1

loop_
  _space_group_symop_operation_xyz
  'x, y, z'

loop_
  _atom_site_type_symbol
  _atom_site_label
  _atom_site_symmetry_multiplicity
  _atom_site_fract_x
  _atom_site_fract_y
  _atom_site_fract_z
  _atom_site_occupancy
  Cd  Cd1       1.0  0.01428  0.24797  0.47996  1.0000
  Cd  Cd2       1.0  0.23360  0.24797  0.97998  1.0000
  Cd  Cd3       1.0  0.98572  0.75203  0.52004  1.0000
  Cd  Cd4       1.0  0.76640  0.75203  0.02002  1.0000
  H   H1        1.0  0.66571  0.18926  0.47797  1.0000
  H   H2        1.0  0.52323  0.18908  0.97782  1.0000
  H   H3        1.0  0.33430  0.81074  0.52202  1.0000
  H   H4        1.0  0.47677  0.81092  0.02218  1.0000
  H   H5        1.0  0.40394  0.01145  0.42564  1.0000
  H   H6        1.0  0.60725  0.01129  0.92549  1.0000
  H   H7        1.0  0.59607  0.98855  0.57436  1.0000
  H   H8        1.0  0.39274  0.98871  0.07451  1.0000
  H   H9        1.0  0.61895  0.80144  0.26956  1.0000
  H   H10       1.0  0.18211  0.80123  0.76947  1.0000
  H   H11       1.0  0.38105  0.19855  0.73044  1.0000
  H   H12       1.0  0.81789  0.19877  0.23053  1.0000
  H   H13       1.0  0.87160  0.98827  0.32872  1.0000
  H   H14       1.0  0.11613  0.98801  0.82869  1.0000
  H   H15       1.0  0.12840  0.01173  0.67128  1.0000
  H   H16       1.0  0.88387  0.01200  0.17132  1.0000
  H   H17       1.0  0.20987  0.51880  0.98818  1.0000
  H   H18       1.0  0.30921  0.51866  0.48819  1.0000
  H   H19       1.0  0.79013  0.48119  0.01182  1.0000
  H   H20       1.0  0.69079  0.48134  0.51180  1.0000
  H   H21       1.0  0.16568  0.69493  0.08333  1.0000
  H   H22       1.0  0.52972  0.69450  0.58334  1.0000
  H   H23       1.0  0.83431  0.30506  0.91667  1.0000
  H   H24       1.0  0.47028  0.30550  0.41666  1.0000
  H   H25       1.0  0.02927  0.44859  0.23769  1.0000
  H   H26       1.0  0.41887  0.44842  0.73789  1.0000
  H   H27       1.0  0.97072  0.55141  0.76231  1.0000
  H   H28       1.0  0.58114  0.55159  0.26211  1.0000
  H   H29       1.0  0.08213  0.28352  0.13631  1.0000
  H   H30       1.0  0.20068  0.28372  0.63654  1.0000
  H   H31       1.0  0.91787  0.71648  0.86370  1.0000
  H   H32       1.0  0.79933  0.71628  0.36346  1.0000
  H   H33       1.0  0.35038  0.69176  0.27843  1.0000
  H   H34       1.0  0.34120  0.69164  0.77817  1.0000
  H   H35       1.0  0.64963  0.30824  0.72157  1.0000
  H   H36       1.0  0.65880  0.30836  0.22183  1.0000
  H   H37       1.0  0.27404  0.75050  0.36281  1.0000
  H   H38       1.0  0.47601  0.75016  0.86266  1.0000
  H   H39       1.0  0.72596  0.24950  0.63719  1.0000
  H   H40       1.0  0.52399  0.24984  0.13734  1.0000
  H   H41       1.0  0.29626  0.84146  0.21433  1.0000
  H   H42       1.0  0.54525  0.84126  0.71427  1.0000
  H   H43       1.0  0.70375  0.15854  0.78567  1.0000
  H   H44       1.0  0.45475  0.15874  0.28573  1.0000
  H   H45       1.0  0.21863  0.89522  0.29880  1.0000
  H   H46       1.0  0.67639  0.89500  0.79888  1.0000
  H   H47       1.0  0.78138  0.10478  0.70120  1.0000
  H   H48       1.0  0.32362  0.10500  0.20112  1.0000
  H   H49       1.0  0.02402  0.66052  0.27973  1.0000
  H   H50       1.0  0.63643  0.66037  0.77994  1.0000
  H   H51       1.0  0.97598  0.33948  0.72027  1.0000
  H   H52       1.0  0.36358  0.33963  0.22006  1.0000
  H   H53       1.0  0.00505  0.72957  0.20516  1.0000
  H   H54       1.0  0.72448  0.72929  0.70535  1.0000
  H   H55       1.0  0.99495  0.27043  0.79484  1.0000
  H   H56       1.0  0.27552  0.27072  0.29464  1.0000
  C   C1        1.0  0.08084  0.51504  0.41348  1.0000
  C   C2        1.0  0.43425  0.51474  0.91333  1.0000
  C   C3        1.0  0.91916  0.48496  0.58652  1.0000
  C   C4        1.0  0.56575  0.48526  0.08667  1.0000
  C   C5        1.0  0.09520  0.97911  0.41878  1.0000
  C   C6        1.0  0.88378  0.97904  0.91880  1.0000
  C   C7        1.0  0.90480  0.02088  0.58121  1.0000
  C   C8        1.0  0.11622  0.02096  0.08120  1.0000
  C   C9        1.0  0.64925  0.10110  0.43169  1.0000
  C   C10       1.0  0.45148  0.10090  0.93158  1.0000
  C   C11       1.0  0.35076  0.89890  0.56830  1.0000
  C   C12       1.0  0.54852  0.89910  0.06843  1.0000
  C   C13       1.0  0.50444  0.00157  0.40242  1.0000
  C   C14       1.0  0.49681  0.00137  0.90229  1.0000
  C   C15       1.0  0.49556  0.99843  0.59758  1.0000
  C   C16       1.0  0.50319  0.99863  0.09772  1.0000
  C   C17       1.0  0.48933  0.88863  0.34437  1.0000
  C   C18       1.0  0.39897  0.88843  0.84424  1.0000
  C   C19       1.0  0.51067  0.11137  0.65563  1.0000
  C   C20       1.0  0.60103  0.11157  0.15576  1.0000
  C   C21       1.0  0.62376  0.88516  0.31630  1.0000
  C   C22       1.0  0.26100  0.88494  0.81622  1.0000
  C   C23       1.0  0.37624  0.11484  0.68370  1.0000
  C   C24       1.0  0.73900  0.11506  0.18379  1.0000
  C   C25       1.0  0.76463  0.98884  0.34855  1.0000
  C   C26       1.0  0.22372  0.98859  0.84851  1.0000
  C   C27       1.0  0.23537  0.01116  0.65144  1.0000
  C   C28       1.0  0.77628  0.01142  0.15150  1.0000
  C   C29       1.0  0.17078  0.50773  0.04453  1.0000
  C   C30       1.0  0.33706  0.50756  0.54458  1.0000
  C   C31       1.0  0.82921  0.49227  0.95547  1.0000
  C   C32       1.0  0.66294  0.49244  0.45542  1.0000
  C   C33       1.0  0.14551  0.60518  0.09781  1.0000
  C   C34       1.0  0.45991  0.60486  0.59785  1.0000
  C   C35       1.0  0.85448  0.39482  0.90220  1.0000
  C   C36       1.0  0.54010  0.39515  0.40215  1.0000
  C   C37       1.0  0.09507  0.58773  0.16980  1.0000
  C   C38       1.0  0.49268  0.58747  0.66992  1.0000
  C   C39       1.0  0.90492  0.41226  0.83020  1.0000
  C   C40       1.0  0.50733  0.41254  0.33008  1.0000
  C   C41       1.0  0.06856  0.46863  0.18298  1.0000
  C   C42       1.0  0.39977  0.46849  0.68315  1.0000
  C   C43       1.0  0.93143  0.53137  0.81702  1.0000
  C   C44       1.0  0.60023  0.53151  0.31685  1.0000
  C   C45       1.0  0.09782  0.37604  0.12704  1.0000
  C   C46       1.0  0.27779  0.37607  0.62722  1.0000
  C   C47       1.0  0.90217  0.62396  0.87297  1.0000
  C   C48       1.0  0.72221  0.62393  0.37278  1.0000
  C   C49       1.0  0.33537  0.77748  0.31331  1.0000
  C   C50       1.0  0.44183  0.77729  0.81316  1.0000
  C   C51       1.0  0.66463  0.22252  0.68669  1.0000
  C   C52       1.0  0.55817  0.22271  0.18683  1.0000
  C   C53       1.0  0.23609  0.81137  0.26336  1.0000
  C   C54       1.0  0.57516  0.81115  0.76335  1.0000
  C   C55       1.0  0.76391  0.18863  0.73664  1.0000
  C   C56       1.0  0.42484  0.18885  0.23665  1.0000
  C   C57       1.0  0.07940  0.69593  0.23109  1.0000
  C   C58       1.0  0.61650  0.69570  0.73123  1.0000
  C   C59       1.0  0.92060  0.30407  0.76891  1.0000
  C   C60       1.0  0.38350  0.30431  0.26876  1.0000
  S   S1        1.0  0.06333  0.37102  0.36315  1.0000
  S   S2        1.0  0.30758  0.37076  0.86308  1.0000
  S   S3        1.0  0.93667  0.62898  0.63685  1.0000
  S   S4        1.0  0.69241  0.62924  0.13692  1.0000
  S   S5        1.0  0.17212  0.11453  0.39453  1.0000
  S   S6        1.0  0.94209  0.11449  0.89461  1.0000
  S   S7        1.0  0.82788  0.88547  0.60547  1.0000
  S   S8        1.0  0.05791  0.88551  0.10539  1.0000
  N   N1        1.0  0.09853  0.62122  0.44953  1.0000
  N   N2        1.0  0.52288  0.62092  0.94935  1.0000
  N   N3        1.0  0.90147  0.37877  0.55047  1.0000
  N   N4        1.0  0.47712  0.37908  0.05066  1.0000
  N   N5        1.0  0.04003  0.87838  0.43354  1.0000
  N   N6        1.0  0.83834  0.87827  0.93351  1.0000
  N   N7        1.0  0.95997  0.12161  0.56646  1.0000
  N   N8        1.0  0.16166  0.12173  0.06650  1.0000
  N   N9        1.0  0.77808  0.09446  0.40622  1.0000
  N   N10       1.0  0.31593  0.09423  0.90615  1.0000
  N   N11       1.0  0.22193  0.90554  0.59378  1.0000
  N   N12       1.0  0.68407  0.90577  0.09385  1.0000
  N   N13       1.0  0.14962  0.39530  0.05904  1.0000
  N   N14       1.0  0.24544  0.39533  0.55917  1.0000
  N   N15       1.0  0.85037  0.60470  0.94096  1.0000
  N   N16       1.0  0.75457  0.60467  0.44083  1.0000
