data_image0
_chemical_formula_structural       Sr5H18C34O20
_chemical_formula_sum              "Sr5 H18 C34 O20"
_cell_length_a       7.03154
_cell_length_b       10.3048
_cell_length_c       12.4768
_cell_angle_alpha    91.1402
_cell_angle_beta     90.3816
_cell_angle_gamma    104.835

_space_group_name_H-M_alt    "P 1"
_space_group_IT_number       1

loop_
  _space_group_symop_operation_xyz
  'x, y, z'

loop_
  _atom_site_type_symbol
  _atom_site_label
  _atom_site_symmetry_multiplicity
  _atom_site_fract_x
  _atom_site_fract_y
  _atom_site_fract_z
  _atom_site_occupancy
  Sr  Sr1       1.0  0.00000  0.00000  0.00000  1.0000
  Sr  Sr2       1.0  0.86756  0.62157  0.88467  1.0000
  Sr  Sr3       1.0  0.13244  0.37843  0.11533  1.0000
  Sr  Sr4       1.0  0.56986  0.20971  0.94446  1.0000
  Sr  Sr5       1.0  0.43014  0.79029  0.05554  1.0000
  H   H1        1.0  0.79925  0.85049  0.62701  1.0000
  H   H2        1.0  0.20075  0.14951  0.37299  1.0000
  H   H3        1.0  0.60169  0.81827  0.45656  1.0000
  H   H4        1.0  0.39831  0.18173  0.54344  1.0000
  H   H5        1.0  0.25208  0.82726  0.46121  1.0000
  H   H6        1.0  0.74792  0.17274  0.53879  1.0000
  H   H7        1.0  0.10273  0.87315  0.63441  1.0000
  H   H8        1.0  0.89727  0.12685  0.36559  1.0000
  H   H9        1.0  0.00963  0.82355  0.33016  1.0000
  H   H10       1.0  0.99037  0.17645  0.66984  1.0000
  H   H11       1.0  0.90888  0.69815  0.50165  1.0000
  H   H12       1.0  0.09112  0.30185  0.49835  1.0000
  H   H13       1.0  0.69169  0.47015  0.49281  1.0000
  H   H14       1.0  0.30831  0.52985  0.50718  1.0000
  H   H15       1.0  0.57658  0.36018  0.31582  1.0000
  H   H16       1.0  0.42341  0.63982  0.68418  1.0000
  H   H17       1.0  0.64318  0.35068  0.64681  1.0000
  H   H18       1.0  0.35682  0.64932  0.35319  1.0000
  C   C1        1.0  0.68410  0.89803  0.82489  1.0000
  C   C2        1.0  0.31590  0.10197  0.17511  1.0000
  C   C3        1.0  0.56552  0.88441  0.72379  1.0000
  C   C4        1.0  0.43449  0.11559  0.27621  1.0000
  C   C5        1.0  0.64760  0.85774  0.62629  1.0000
  C   C6        1.0  0.35240  0.14227  0.37371  1.0000
  C   C7        1.0  0.53622  0.83802  0.53206  1.0000
  C   C8        1.0  0.46378  0.16198  0.46794  1.0000
  C   C9        1.0  0.33969  0.84319  0.53491  1.0000
  C   C10       1.0  0.66031  0.15681  0.46509  1.0000
  C   C11       1.0  0.25603  0.86931  0.63130  1.0000
  C   C12       1.0  0.74397  0.13069  0.36870  1.0000
  C   C13       1.0  0.36832  0.89053  0.72595  1.0000
  C   C14       1.0  0.63168  0.10947  0.27405  1.0000
  C   C15       1.0  0.27572  0.91839  0.82894  1.0000
  C   C16       1.0  0.72428  0.08161  0.17106  1.0000
  C   C17       1.0  0.91381  0.73892  0.13104  1.0000
  C   C18       1.0  0.08619  0.26108  0.86896  1.0000
  C   C19       1.0  0.85487  0.65930  0.22930  1.0000
  C   C20       1.0  0.14513  0.34070  0.77070  1.0000
  C   C21       1.0  0.91704  0.72085  0.32896  1.0000
  C   C22       1.0  0.08296  0.27915  0.67105  1.0000
  C   C23       1.0  0.85923  0.65251  0.42349  1.0000
  C   C24       1.0  0.14077  0.34749  0.57651  1.0000
  C   C25       1.0  0.73632  0.52270  0.41869  1.0000
  C   C26       1.0  0.26368  0.47730  0.58131  1.0000
  C   C27       1.0  0.67257  0.46123  0.31976  1.0000
  C   C28       1.0  0.32743  0.53877  0.68024  1.0000
  C   C29       1.0  0.73250  0.52758  0.22424  1.0000
  C   C30       1.0  0.26750  0.47242  0.77576  1.0000
  C   C31       1.0  0.67836  0.45101  0.11991  1.0000
  C   C32       1.0  0.32164  0.54899  0.88009  1.0000
  C   C33       1.0  0.70833  0.42327  0.71248  1.0000
  C   C34       1.0  0.29167  0.57673  0.28752  1.0000
  O   O1        1.0  0.62433  0.94846  0.90954  1.0000
  O   O2        1.0  0.37567  0.05155  0.09046  1.0000
  O   O3        1.0  0.84082  0.85839  0.82472  1.0000
  O   O4        1.0  0.15918  0.14161  0.17528  1.0000
  O   O5        1.0  0.27274  0.03888  0.84898  1.0000
  O   O6        1.0  0.72726  0.96111  0.15102  1.0000
  O   O7        1.0  0.19914  0.82036  0.88938  1.0000
  O   O8        1.0  0.80086  0.17963  0.11062  1.0000
  O   O9        1.0  0.78479  0.73253  0.05631  1.0000
  O   O10       1.0  0.21521  0.26747  0.94369  1.0000
  O   O11       1.0  0.08750  0.81357  0.12495  1.0000
  O   O12       1.0  0.91250  0.18643  0.87505  1.0000
  O   O13       1.0  0.50501  0.37873  0.10418  1.0000
  O   O14       1.0  0.49499  0.62127  0.89582  1.0000
  O   O15       1.0  0.81655  0.45536  0.05176  1.0000
  O   O16       1.0  0.18345  0.54464  0.94824  1.0000
  O   O17       1.0  0.67355  0.38301  0.80857  1.0000
  O   O18       1.0  0.32646  0.61699  0.19144  1.0000
  O   O19       1.0  0.80904  0.53844  0.68876  1.0000
  O   O20       1.0  0.19096  0.46156  0.31124  1.0000
