data_image0
_chemical_formula_structural       Cu4P4H40C40N8O16
_chemical_formula_sum              "Cu4 P4 H40 C40 N8 O16"
_cell_length_a       8.20639
_cell_length_b       8.7417
_cell_length_c       17.404
_cell_angle_alpha    90.0007
_cell_angle_beta     106.919
_cell_angle_gamma    90.0013

_space_group_name_H-M_alt    "P 1"
_space_group_IT_number       1

loop_
  _space_group_symop_operation_xyz
  'x, y, z'

loop_
  _atom_site_type_symbol
  _atom_site_label
  _atom_site_symmetry_multiplicity
  _atom_site_fract_x
  _atom_site_fract_y
  _atom_site_fract_z
  _atom_site_occupancy
  Cu  Cu1       1.0  0.72041  0.63356  0.01199  1.0000
  Cu  Cu2       1.0  0.22043  0.36643  0.51199  1.0000
  Cu  Cu3       1.0  0.27958  0.36644  0.98801  1.0000
  Cu  Cu4       1.0  0.77957  0.63357  0.48801  1.0000
  P   P1        1.0  0.76546  0.00482  0.02354  1.0000
  P   P2        1.0  0.26546  0.99518  0.52355  1.0000
  P   P3        1.0  0.23454  0.99518  0.97646  1.0000
  P   P4        1.0  0.73454  0.00483  0.47646  1.0000
  H   H1        1.0  0.54519  0.10627  0.05321  1.0000
  H   H2        1.0  0.04518  0.89373  0.55322  1.0000
  H   H3        1.0  0.45481  0.89373  0.94678  1.0000
  H   H4        1.0  0.95482  0.10627  0.44679  1.0000
  H   H5        1.0  0.03179  0.92256  0.06655  1.0000
  H   H6        1.0  0.53180  0.07745  0.56656  1.0000
  H   H7        1.0  0.96821  0.07744  0.93344  1.0000
  H   H8        1.0  0.46820  0.92256  0.43345  1.0000
  H   H9        1.0  0.64461  0.35751  0.08309  1.0000
  H   H10       1.0  0.14463  0.64249  0.58311  1.0000
  H   H11       1.0  0.35539  0.64249  0.91690  1.0000
  H   H12       1.0  0.85538  0.35752  0.41690  1.0000
  H   H13       1.0  0.54305  0.28712  0.19681  1.0000
  H   H14       1.0  0.04306  0.71287  0.69682  1.0000
  H   H15       1.0  0.45695  0.71288  0.80319  1.0000
  H   H16       1.0  0.95695  0.28713  0.30319  1.0000
  H   H17       1.0  0.60920  0.82264  0.12665  1.0000
  H   H18       1.0  0.10920  0.17735  0.62665  1.0000
  H   H19       1.0  0.39080  0.17736  0.87335  1.0000
  H   H20       1.0  0.89079  0.82265  0.37335  1.0000
  H   H21       1.0  0.51664  0.77130  0.24682  1.0000
  H   H22       1.0  0.01664  0.22868  0.74682  1.0000
  H   H23       1.0  0.48336  0.22870  0.75318  1.0000
  H   H24       1.0  0.98335  0.77132  0.25317  1.0000
  H   H25       1.0  0.40284  0.71999  0.33121  1.0000
  H   H26       1.0  0.90283  0.28000  0.83121  1.0000
  H   H27       1.0  0.59717  0.28002  0.66879  1.0000
  H   H28       1.0  0.09717  0.72000  0.16878  1.0000
  H   H29       1.0  0.29830  0.65059  0.44334  1.0000
  H   H30       1.0  0.79829  0.34939  0.94334  1.0000
  H   H31       1.0  0.70171  0.34941  0.55666  1.0000
  H   H32       1.0  0.20171  0.65061  0.05665  1.0000
  H   H33       1.0  0.38524  0.18689  0.41505  1.0000
  H   H34       1.0  0.88525  0.81310  0.91505  1.0000
  H   H35       1.0  0.61475  0.81312  0.58495  1.0000
  H   H36       1.0  0.11475  0.18690  0.08495  1.0000
  H   H37       1.0  0.50802  0.23893  0.30542  1.0000
  H   H38       1.0  0.00803  0.76106  0.80543  1.0000
  H   H39       1.0  0.49197  0.76107  0.69458  1.0000
  H   H40       1.0  0.99197  0.23894  0.19457  1.0000
  C   C1        1.0  0.61057  0.44661  0.11935  1.0000
  C   C2        1.0  0.11058  0.55338  0.61936  1.0000
  C   C3        1.0  0.38943  0.55339  0.88065  1.0000
  C   C4        1.0  0.88943  0.44662  0.38065  1.0000
  C   C5        1.0  0.55694  0.40806  0.18531  1.0000
  C   C6        1.0  0.05696  0.59193  0.68532  1.0000
  C   C7        1.0  0.44305  0.59193  0.81469  1.0000
  C   C8        1.0  0.94305  0.40807  0.31468  1.0000
  C   C9        1.0  0.59352  0.70566  0.14481  1.0000
  C   C10       1.0  0.09353  0.29433  0.64482  1.0000
  C   C11       1.0  0.40648  0.29434  0.85518  1.0000
  C   C12       1.0  0.90647  0.70567  0.35518  1.0000
  C   C13       1.0  0.54007  0.67489  0.21188  1.0000
  C   C14       1.0  0.04007  0.32509  0.71188  1.0000
  C   C15       1.0  0.45993  0.32511  0.78812  1.0000
  C   C16       1.0  0.95992  0.67491  0.28811  1.0000
  C   C17       1.0  0.52024  0.52291  0.23423  1.0000
  C   C18       1.0  0.02024  0.47707  0.73423  1.0000
  C   C19       1.0  0.47976  0.47709  0.76577  1.0000
  C   C20       1.0  0.97976  0.52293  0.26577  1.0000
  C   C21       1.0  0.46130  0.48568  0.30431  1.0000
  C   C22       1.0  0.96130  0.51430  0.80431  1.0000
  C   C23       1.0  0.53871  0.51432  0.69570  1.0000
  C   C24       1.0  0.03870  0.48570  0.19569  1.0000
  C   C25       1.0  0.40284  0.59953  0.34668  1.0000
  C   C26       1.0  0.90285  0.40045  0.84669  1.0000
  C   C27       1.0  0.59716  0.40048  0.65332  1.0000
  C   C28       1.0  0.09715  0.59955  0.15331  1.0000
  C   C29       1.0  0.34160  0.56082  0.41046  1.0000
  C   C30       1.0  0.84159  0.43917  0.91046  1.0000
  C   C31       1.0  0.65840  0.43919  0.58954  1.0000
  C   C32       1.0  0.15840  0.56083  0.08954  1.0000
  C   C33       1.0  0.39251  0.30359  0.39483  1.0000
  C   C34       1.0  0.89252  0.69639  0.89483  1.0000
  C   C35       1.0  0.60748  0.69641  0.60517  1.0000
  C   C36       1.0  0.10749  0.30361  0.10517  1.0000
  C   C37       1.0  0.45865  0.33465  0.33180  1.0000
  C   C38       1.0  0.95866  0.66533  0.83181  1.0000
  C   C39       1.0  0.54134  0.66535  0.66819  1.0000
  C   C40       1.0  0.04134  0.33466  0.16819  1.0000
  N   N1        1.0  0.63079  0.59371  0.09898  1.0000
  N   N2        1.0  0.13080  0.40629  0.59898  1.0000
  N   N3        1.0  0.36921  0.40629  0.90102  1.0000
  N   N4        1.0  0.86920  0.59372  0.40102  1.0000
  N   N5        1.0  0.33228  0.41424  0.43378  1.0000
  N   N6        1.0  0.83228  0.58574  0.93378  1.0000
  N   N7        1.0  0.66772  0.58576  0.56622  1.0000
  N   N8        1.0  0.16771  0.41425  0.06621  1.0000
  O   O1        1.0  0.81953  0.10554  0.96408  1.0000
  O   O2        1.0  0.31953  0.89445  0.46409  1.0000
  O   O3        1.0  0.18047  0.89446  0.03591  1.0000
  O   O4        1.0  0.68047  0.10555  0.53592  1.0000
  O   O5        1.0  0.67615  0.10068  0.07764  1.0000
  O   O6        1.0  0.17614  0.89932  0.57765  1.0000
  O   O7        1.0  0.32386  0.89932  0.92236  1.0000
  O   O8        1.0  0.82386  0.10069  0.42236  1.0000
  O   O9        1.0  0.64520  0.87334  0.98383  1.0000
  O   O10       1.0  0.14521  0.12665  0.48384  1.0000
  O   O11       1.0  0.35481  0.12665  0.01616  1.0000
  O   O12       1.0  0.85480  0.87335  0.51617  1.0000
  O   O13       1.0  0.92743  0.93754  0.08883  1.0000
  O   O14       1.0  0.42744  0.06246  0.58885  1.0000
  O   O15       1.0  0.07257  0.06246  0.91116  1.0000
  O   O16       1.0  0.57256  0.93754  0.41116  1.0000
