data_image0
_chemical_formula_structural       Li4H60C32O24
_chemical_formula_sum              "Li4 H60 C32 O24"
_cell_length_a       5.28007
_cell_length_b       12.1321
_cell_length_c       16.2216
_cell_angle_alpha    98.1596
_cell_angle_beta     90
_cell_angle_gamma    89.9998

_space_group_name_H-M_alt    "P 1"
_space_group_IT_number       1

loop_
  _space_group_symop_operation_xyz
  'x, y, z'

loop_
  _atom_site_type_symbol
  _atom_site_label
  _atom_site_symmetry_multiplicity
  _atom_site_fract_x
  _atom_site_fract_y
  _atom_site_fract_z
  _atom_site_occupancy
  Li  Li1       1.0  0.54021  0.63457  0.10378  1.0000
  Li  Li2       1.0  0.04021  0.86544  0.89623  1.0000
  Li  Li3       1.0  0.45979  0.36544  0.89622  1.0000
  Li  Li4       1.0  0.95978  0.13457  0.10378  1.0000
  H   H1        1.0  0.30240  0.55114  0.29706  1.0000
  H   H2        1.0  0.80241  0.94885  0.70294  1.0000
  H   H3        1.0  0.69760  0.44886  0.70293  1.0000
  H   H4        1.0  0.19759  0.05115  0.29706  1.0000
  H   H5        1.0  0.31752  0.72208  0.23818  1.0000
  H   H6        1.0  0.81753  0.77791  0.76183  1.0000
  H   H7        1.0  0.68249  0.27792  0.76182  1.0000
  H   H8        1.0  0.18246  0.22209  0.23817  1.0000
  H   H9        1.0  0.45196  0.82738  0.08398  1.0000
  H   H10       1.0  0.95194  0.67263  0.91602  1.0000
  H   H11       1.0  0.54805  0.17263  0.91602  1.0000
  H   H12       1.0  0.04804  0.32738  0.08398  1.0000
  H   H13       1.0  0.27698  0.75767  0.01597  1.0000
  H   H14       1.0  0.77696  0.74233  0.98403  1.0000
  H   H15       1.0  0.72303  0.24234  0.98403  1.0000
  H   H16       1.0  0.22303  0.25767  0.01597  1.0000
  H   H17       1.0  0.74167  0.51019  0.97197  1.0000
  H   H18       1.0  0.24167  0.98980  0.02803  1.0000
  H   H19       1.0  0.25835  0.48980  0.02802  1.0000
  H   H20       1.0  0.75834  0.01021  0.97197  1.0000
  H   H21       1.0  0.77735  0.89323  0.20563  1.0000
  H   H22       1.0  0.27735  0.60676  0.79437  1.0000
  H   H23       1.0  0.22264  0.10676  0.79437  1.0000
  H   H24       1.0  0.72266  0.39324  0.20563  1.0000
  H   H25       1.0  0.83981  0.48635  0.06021  1.0000
  H   H26       1.0  0.33982  0.01365  0.93980  1.0000
  H   H27       1.0  0.16017  0.51365  0.93979  1.0000
  H   H28       1.0  0.66018  0.98636  0.06021  1.0000
  H   H29       1.0  0.35639  0.73793  0.38771  1.0000
  H   H30       1.0  0.85640  0.76208  0.61229  1.0000
  H   H31       1.0  0.64361  0.26208  0.61229  1.0000
  H   H32       1.0  0.14359  0.23793  0.38771  1.0000
  H   H33       1.0  0.19264  0.85563  0.36191  1.0000
  H   H34       1.0  0.69266  0.64437  0.63810  1.0000
  H   H35       1.0  0.80737  0.14437  0.63808  1.0000
  H   H36       1.0  0.30735  0.35564  0.36191  1.0000
  H   H37       1.0  0.98622  0.78170  0.48230  1.0000
  H   H38       1.0  0.48623  0.71829  0.51771  1.0000
  H   H39       1.0  0.01378  0.21831  0.51770  1.0000
  H   H40       1.0  0.51375  0.28170  0.48229  1.0000
  H   H41       1.0  0.77969  0.77096  0.39611  1.0000
  H   H42       1.0  0.27970  0.72903  0.60389  1.0000
  H   H43       1.0  0.22032  0.22904  0.60389  1.0000
  H   H44       1.0  0.72029  0.27097  0.39611  1.0000
  H   H45       1.0  0.77710  0.59314  0.45754  1.0000
  H   H46       1.0  0.27709  0.90685  0.54247  1.0000
  H   H47       1.0  0.22289  0.40687  0.54246  1.0000
  H   H48       1.0  0.72289  0.09315  0.45753  1.0000
  H   H49       1.0  0.10940  0.58372  0.44809  1.0000
  H   H50       1.0  0.60940  0.91627  0.55192  1.0000
  H   H51       1.0  0.89060  0.41629  0.55191  1.0000
  H   H52       1.0  0.39060  0.08372  0.44809  1.0000
  H   H53       1.0  0.90856  0.45953  0.33284  1.0000
  H   H54       1.0  0.40855  0.04047  0.66716  1.0000
  H   H55       1.0  0.09145  0.54048  0.66715  1.0000
  H   H56       1.0  0.59143  0.95954  0.33284  1.0000
  H   H57       1.0  0.72519  0.56971  0.30460  1.0000
  H   H58       1.0  0.22520  0.93028  0.69541  1.0000
  H   H59       1.0  0.27482  0.43030  0.69539  1.0000
  H   H60       1.0  0.77481  0.06971  0.30460  1.0000
  C   C1        1.0  0.12065  0.57855  0.27283  1.0000
  C   C2        1.0  0.62065  0.92145  0.72717  1.0000
  C   C3        1.0  0.87936  0.42145  0.72716  1.0000
  C   C4        1.0  0.37935  0.07856  0.27282  1.0000
  C   C5        1.0  0.14655  0.70539  0.27321  1.0000
  C   C6        1.0  0.64655  0.79460  0.72680  1.0000
  C   C7        1.0  0.85347  0.29461  0.72679  1.0000
  C   C8        1.0  0.35345  0.20540  0.27320  1.0000
  C   C9        1.0  0.17667  0.76561  0.36286  1.0000
  C   C10       1.0  0.67669  0.73438  0.63714  1.0000
  C   C11       1.0  0.82333  0.23439  0.63713  1.0000
  C   C12       1.0  0.32331  0.26561  0.36286  1.0000
  C   C13       1.0  0.95861  0.73857  0.41861  1.0000
  C   C14       1.0  0.45862  0.76142  0.58140  1.0000
  C   C15       1.0  0.04140  0.26143  0.58139  1.0000
  C   C16       1.0  0.54138  0.23858  0.41861  1.0000
  C   C17       1.0  0.93764  0.61281  0.41882  1.0000
  C   C18       1.0  0.43764  0.88718  0.58119  1.0000
  C   C19       1.0  0.06237  0.38720  0.58118  1.0000
  C   C20       1.0  0.56235  0.11281  0.41881  1.0000
  C   C21       1.0  0.90905  0.54960  0.33064  1.0000
  C   C22       1.0  0.40905  0.95039  0.66937  1.0000
  C   C23       1.0  0.09095  0.45040  0.66936  1.0000
  C   C24       1.0  0.59094  0.04961  0.33063  1.0000
  C   C25       1.0  0.11207  0.51611  0.18400  1.0000
  C   C26       1.0  0.61211  0.98388  0.81601  1.0000
  C   C27       1.0  0.88789  0.48388  0.81600  1.0000
  C   C28       1.0  0.38792  0.01611  0.18400  1.0000
  C   C29       1.0  0.92705  0.75340  0.22919  1.0000
  C   C30       1.0  0.42710  0.74658  0.77081  1.0000
  C   C31       1.0  0.07295  0.24660  0.77080  1.0000
  C   C32       1.0  0.57291  0.25342  0.22919  1.0000
  O   O1        1.0  0.43910  0.75590  0.04574  1.0000
  O   O2        1.0  0.93909  0.74410  0.95426  1.0000
  O   O3        1.0  0.56091  0.24410  0.95426  1.0000
  O   O4        1.0  0.06091  0.25590  0.04574  1.0000
  O   O5        1.0  0.75082  0.54086  0.03194  1.0000
  O   O6        1.0  0.25083  0.95914  0.96806  1.0000
  O   O7        1.0  0.24917  0.45914  0.96806  1.0000
  O   O8        1.0  0.74916  0.04088  0.03194  1.0000
  O   O9        1.0  0.95646  0.43517  0.16403  1.0000
  O   O10       1.0  0.45646  0.06483  0.83598  1.0000
  O   O11       1.0  0.04355  0.56483  0.83597  1.0000
  O   O12       1.0  0.54354  0.93517  0.16403  1.0000
  O   O13       1.0  0.26842  0.54537  0.13242  1.0000
  O   O14       1.0  0.76841  0.95463  0.86757  1.0000
  O   O15       1.0  0.73161  0.45463  0.86757  1.0000
  O   O16       1.0  0.23158  0.04537  0.13242  1.0000
  O   O17       1.0  0.75377  0.69546  0.19476  1.0000
  O   O18       1.0  0.25379  0.80454  0.80526  1.0000
  O   O19       1.0  0.24622  0.30453  0.80523  1.0000
  O   O20       1.0  0.74621  0.19546  0.19475  1.0000
  O   O21       1.0  0.93820  0.86270  0.23168  1.0000
  O   O22       1.0  0.43820  0.63729  0.76832  1.0000
  O   O23       1.0  0.06179  0.13729  0.76832  1.0000
  O   O24       1.0  0.56179  0.36271  0.23168  1.0000
