data_image0
_chemical_formula_structural       Zn2H32C52N4O8
_chemical_formula_sum              "Zn2 H32 C52 N4 O8"
_cell_length_a       9.35085
_cell_length_b       9.87907
_cell_length_c       13.087
_cell_angle_alpha    71.4621
_cell_angle_beta     70.2193
_cell_angle_gamma    68.5965

_space_group_name_H-M_alt    "P 1"
_space_group_IT_number       1

loop_
  _space_group_symop_operation_xyz
  'x, y, z'

loop_
  _atom_site_type_symbol
  _atom_site_label
  _atom_site_symmetry_multiplicity
  _atom_site_fract_x
  _atom_site_fract_y
  _atom_site_fract_z
  _atom_site_occupancy
  Zn  Zn1       1.0  0.88710  0.04983  0.25454  1.0000
  Zn  Zn2       1.0  0.11290  0.95017  0.74546  1.0000
  H   H1        1.0  0.78569  0.35917  0.95230  1.0000
  H   H2        1.0  0.21430  0.64082  0.04769  1.0000
  H   H3        1.0  0.34168  0.45547  0.19659  1.0000
  H   H4        1.0  0.65832  0.54453  0.80341  1.0000
  H   H5        1.0  0.39713  0.21473  0.09088  1.0000
  H   H6        1.0  0.60287  0.78528  0.90912  1.0000
  H   H7        1.0  0.58122  0.87330  0.64230  1.0000
  H   H8        1.0  0.41878  0.12669  0.35770  1.0000
  H   H9        1.0  0.59364  0.72155  0.57032  1.0000
  H   H10       1.0  0.40636  0.27845  0.42968  1.0000
  H   H11       1.0  0.32459  0.84534  0.03054  1.0000
  H   H12       1.0  0.67541  0.15466  0.96945  1.0000
  H   H13       1.0  0.98593  0.23929  0.32126  1.0000
  H   H14       1.0  0.01408  0.76071  0.67874  1.0000
  H   H15       1.0  0.94882  0.87453  0.10385  1.0000
  H   H16       1.0  0.05117  0.12548  0.89615  1.0000
  H   H17       1.0  0.70674  0.25420  0.72026  1.0000
  H   H18       1.0  0.29326  0.74580  0.27975  1.0000
  H   H19       1.0  0.59177  0.55520  0.46460  1.0000
  H   H20       1.0  0.40823  0.44479  0.53540  1.0000
  H   H21       1.0  0.59421  0.05242  0.73218  1.0000
  H   H22       1.0  0.40579  0.94758  0.26782  1.0000
  H   H23       1.0  0.96199  0.70184  0.99661  1.0000
  H   H24       1.0  0.03800  0.29817  0.00338  1.0000
  H   H25       1.0  0.66790  0.47981  0.28247  1.0000
  H   H26       1.0  0.33211  0.52019  0.71753  1.0000
  H   H27       1.0  0.81898  0.50891  0.08376  1.0000
  H   H28       1.0  0.18101  0.49110  0.91624  1.0000
  H   H29       1.0  0.01712  0.41035  0.40984  1.0000
  H   H30       1.0  0.98288  0.58964  0.59017  1.0000
  H   H31       1.0  0.87765  0.41905  0.60880  1.0000
  H   H32       1.0  0.12236  0.58094  0.39120  1.0000
  C   C1        1.0  0.64476  0.28371  0.17374  1.0000
  C   C2        1.0  0.35524  0.71629  0.82626  1.0000
  C   C3        1.0  0.57126  0.39656  0.08363  1.0000
  C   C4        1.0  0.42875  0.60344  0.91637  1.0000
  C   C5        1.0  0.80116  0.77522  0.25559  1.0000
  C   C6        1.0  0.19885  0.22478  0.74441  1.0000
  C   C7        1.0  0.66063  0.42135  0.97263  1.0000
  C   C8        1.0  0.33937  0.57865  0.02736  1.0000
  C   C9        1.0  0.41013  0.47635  0.11019  1.0000
  C   C10       1.0  0.58987  0.52365  0.88980  1.0000
  C   C11       1.0  0.73008  0.95489  0.48183  1.0000
  C   C12       1.0  0.26992  0.04511  0.51818  1.0000
  C   C13       1.0  0.34600  0.03264  0.06838  1.0000
  C   C14       1.0  0.65400  0.96737  0.93162  1.0000
  C   C15       1.0  0.44406  0.12080  0.05077  1.0000
  C   C16       1.0  0.55594  0.87921  0.94923  1.0000
  C   C17       1.0  0.82867  0.14755  0.47062  1.0000
  C   C18       1.0  0.17133  0.85245  0.52938  1.0000
  C   C19       1.0  0.65008  0.95185  0.59531  1.0000
  C   C20       1.0  0.34992  0.04814  0.40469  1.0000
  C   C21       1.0  0.72453  0.85055  0.42412  1.0000
  C   C22       1.0  0.27547  0.14945  0.57588  1.0000
  C   C23       1.0  0.65048  0.73597  0.48148  1.0000
  C   C24       1.0  0.34953  0.26403  0.51852  1.0000
  C   C25       1.0  0.18148  0.06943  0.14201  1.0000
  C   C26       1.0  0.81851  0.93057  0.85799  1.0000
  C   C27       1.0  0.40255  0.91180  0.01706  1.0000
  C   C28       1.0  0.59745  0.08820  0.98293  1.0000
  C   C29       1.0  0.72344  0.66001  0.30741  1.0000
  C   C30       1.0  0.27657  0.33999  0.69260  1.0000
  C   C31       1.0  0.92447  0.24357  0.40810  1.0000
  C   C32       1.0  0.07554  0.75643  0.59190  1.0000
  C   C33       1.0  0.88710  0.78903  0.14239  1.0000
  C   C34       1.0  0.11290  0.21098  0.85761  1.0000
  C   C35       1.0  0.76686  0.25224  0.63316  1.0000
  C   C36       1.0  0.23314  0.74776  0.36684  1.0000
  C   C37       1.0  0.64867  0.64383  0.42241  1.0000
  C   C38       1.0  0.35133  0.35617  0.57759  1.0000
  C   C39       1.0  0.65792  0.05104  0.64549  1.0000
  C   C40       1.0  0.34208  0.94896  0.35452  1.0000
  C   C41       1.0  0.74930  0.15113  0.58508  1.0000
  C   C42       1.0  0.25071  0.84887  0.41492  1.0000
  C   C43       1.0  0.89458  0.69206  0.08338  1.0000
  C   C44       1.0  0.10542  0.30795  0.91661  1.0000
  C   C45       1.0  0.72910  0.56576  0.24321  1.0000
  C   C46       1.0  0.27090  0.43424  0.75679  1.0000
  C   C47       1.0  0.81365  0.58169  0.13316  1.0000
  C   C48       1.0  0.18634  0.41832  0.86685  1.0000
  C   C49       1.0  0.94182  0.33788  0.45847  1.0000
  C   C50       1.0  0.05818  0.66212  0.54153  1.0000
  C   C51       1.0  0.86280  0.34297  0.57103  1.0000
  C   C52       1.0  0.13721  0.65702  0.42898  1.0000
  N   N1        1.0  0.79545  0.86914  0.31519  1.0000
  N   N2        1.0  0.20455  0.13086  0.68481  1.0000
  N   N3        1.0  0.81413  0.05133  0.42156  1.0000
  N   N4        1.0  0.18587  0.94867  0.57844  1.0000
  O   O1        1.0  0.79039  0.20573  0.14040  1.0000
  O   O2        1.0  0.20961  0.79427  0.85959  1.0000
  O   O3        1.0  0.56607  0.26965  0.27349  1.0000
  O   O4        1.0  0.43392  0.73036  0.72650  1.0000
  O   O5        1.0  0.12496  0.18794  0.17623  1.0000
  O   O6        1.0  0.87504  0.81207  0.82376  1.0000
  O   O7        1.0  0.10455  0.97205  0.16728  1.0000
  O   O8        1.0  0.89545  0.02795  0.83272  1.0000
