data_image0
_chemical_formula_structural       Sr4H28C16O24
_chemical_formula_sum              "Sr4 H28 C16 O24"
_cell_length_a       7.89662
_cell_length_b       8.74887
_cell_length_c       10.0614
_cell_angle_alpha    96.201
_cell_angle_beta     90
_cell_angle_gamma    90.0001

_space_group_name_H-M_alt    "P 1"
_space_group_IT_number       1

loop_
  _space_group_symop_operation_xyz
  'x, y, z'

loop_
  _atom_site_type_symbol
  _atom_site_label
  _atom_site_symmetry_multiplicity
  _atom_site_fract_x
  _atom_site_fract_y
  _atom_site_fract_z
  _atom_site_occupancy
  Sr  Sr1       1.0  0.45720  0.21994  0.60816  1.0000
  Sr  Sr2       1.0  0.95721  0.28006  0.89184  1.0000
  Sr  Sr3       1.0  0.54280  0.78006  0.39184  1.0000
  Sr  Sr4       1.0  0.04280  0.71994  0.10816  1.0000
  H   H1        1.0  0.46047  0.89892  0.72565  1.0000
  H   H2        1.0  0.96047  0.60108  0.77435  1.0000
  H   H3        1.0  0.53953  0.10108  0.27435  1.0000
  H   H4        1.0  0.03953  0.39892  0.22565  1.0000
  H   H5        1.0  0.33125  0.01338  0.80580  1.0000
  H   H6        1.0  0.83126  0.48662  0.69420  1.0000
  H   H7        1.0  0.66875  0.98662  0.19420  1.0000
  H   H8        1.0  0.16875  0.51338  0.30580  1.0000
  H   H9        1.0  0.26521  0.46972  0.49511  1.0000
  H   H10       1.0  0.76521  0.03028  0.00489  1.0000
  H   H11       1.0  0.73479  0.53028  0.50489  1.0000
  H   H12       1.0  0.23479  0.96972  0.99511  1.0000
  H   H13       1.0  0.12141  0.44973  0.60799  1.0000
  H   H14       1.0  0.62141  0.05027  0.89201  1.0000
  H   H15       1.0  0.87859  0.55027  0.39201  1.0000
  H   H16       1.0  0.37859  0.94973  0.10799  1.0000
  H   H17       1.0  0.37709  0.30511  0.10404  1.0000
  H   H18       1.0  0.87709  0.19489  0.39596  1.0000
  H   H19       1.0  0.62292  0.69489  0.89596  1.0000
  H   H20       1.0  0.12291  0.80511  0.60404  1.0000
  H   H21       1.0  0.59722  0.28348  0.11565  1.0000
  H   H22       1.0  0.09722  0.21652  0.38435  1.0000
  H   H23       1.0  0.40278  0.71652  0.88435  1.0000
  H   H24       1.0  0.90278  0.78348  0.61565  1.0000
  H   H25       1.0  0.42816  0.60015  0.12084  1.0000
  H   H26       1.0  0.92816  0.89985  0.37916  1.0000
  H   H27       1.0  0.57184  0.39985  0.87915  1.0000
  H   H28       1.0  0.07184  0.10015  0.62084  1.0000
  C   C1        1.0  0.46879  0.38514  0.29408  1.0000
  C   C2        1.0  0.96879  0.11486  0.20592  1.0000
  C   C3        1.0  0.53121  0.61486  0.70592  1.0000
  C   C4        1.0  0.03121  0.88514  0.79408  1.0000
  C   C5        1.0  0.49339  0.36412  0.14290  1.0000
  C   C6        1.0  0.99338  0.13588  0.35710  1.0000
  C   C7        1.0  0.50662  0.63588  0.85710  1.0000
  C   C8        1.0  0.00661  0.86412  0.64290  1.0000
  C   C9        1.0  0.51674  0.51255  0.07591  1.0000
  C   C10       1.0  0.01674  0.98746  0.42409  1.0000
  C   C11       1.0  0.48326  0.48745  0.92408  1.0000
  C   C12       1.0  0.98326  0.01255  0.57592  1.0000
  C   C13       1.0  0.69569  0.57397  0.09819  1.0000
  C   C14       1.0  0.19569  0.92603  0.40181  1.0000
  C   C15       1.0  0.30431  0.42603  0.90181  1.0000
  C   C16       1.0  0.80431  0.07397  0.59819  1.0000
  O   O1        1.0  0.51132  0.27490  0.35987  1.0000
  O   O2        1.0  0.01132  0.22510  0.14013  1.0000
  O   O3        1.0  0.48869  0.72510  0.64013  1.0000
  O   O4        1.0  0.98868  0.77490  0.85987  1.0000
  O   O5        1.0  0.44905  0.00558  0.77306  1.0000
  O   O6        1.0  0.94905  0.49442  0.72694  1.0000
  O   O7        1.0  0.55095  0.99442  0.22694  1.0000
  O   O8        1.0  0.05095  0.50558  0.27306  1.0000
  O   O9        1.0  0.39826  0.50888  0.34715  1.0000
  O   O10       1.0  0.89826  0.99112  0.15285  1.0000
  O   O11       1.0  0.60174  0.49112  0.65284  1.0000
  O   O12       1.0  0.10174  0.00888  0.84715  1.0000
  O   O13       1.0  0.21735  0.40065  0.55639  1.0000
  O   O14       1.0  0.71735  0.09935  0.94361  1.0000
  O   O15       1.0  0.78265  0.59935  0.44361  1.0000
  O   O16       1.0  0.28266  0.90065  0.05639  1.0000
  O   O17       1.0  0.71976  0.69458  0.17891  1.0000
  O   O18       1.0  0.21975  0.80542  0.32110  1.0000
  O   O19       1.0  0.28024  0.30542  0.82109  1.0000
  O   O20       1.0  0.78024  0.19458  0.67891  1.0000
  O   O21       1.0  0.81580  0.50468  0.03210  1.0000
  O   O22       1.0  0.31580  0.99532  0.46790  1.0000
  O   O23       1.0  0.18420  0.49532  0.96790  1.0000
  O   O24       1.0  0.68420  0.00468  0.53210  1.0000
