data_image0
_chemical_formula_structural       Li2H10C12N4O10
_chemical_formula_sum              "Li2 H10 C12 N4 O10"
_cell_length_a       3.51483
_cell_length_b       8.4475
_cell_length_c       12.0647
_cell_angle_alpha    90.0005
_cell_angle_beta     90.0001
_cell_angle_gamma    100.128

_space_group_name_H-M_alt    "P 1"
_space_group_IT_number       1

loop_
  _space_group_symop_operation_xyz
  'x, y, z'

loop_
  _atom_site_type_symbol
  _atom_site_label
  _atom_site_symmetry_multiplicity
  _atom_site_fract_x
  _atom_site_fract_y
  _atom_site_fract_z
  _atom_site_occupancy
  Li  Li1       1.0  0.62352  0.99662  0.25000  1.0000
  Li  Li2       1.0  0.37648  0.00338  0.75000  1.0000
  H   H1        1.0  0.89554  0.47143  0.42107  1.0000
  H   H2        1.0  0.10445  0.52857  0.92107  1.0000
  H   H3        1.0  0.10447  0.52857  0.57893  1.0000
  H   H4        1.0  0.89552  0.47143  0.07892  1.0000
  H   H5        1.0  0.20958  0.18664  0.31633  1.0000
  H   H6        1.0  0.79042  0.81335  0.81633  1.0000
  H   H7        1.0  0.79043  0.81336  0.68366  1.0000
  H   H8        1.0  0.20957  0.18664  0.18366  1.0000
  H   H9        1.0  0.49998  1.00000  0.00000  1.0000
  H   H10       1.0  0.50002  0.00001  0.50000  1.0000
  C   C1        1.0  0.75386  0.68903  0.34547  1.0000
  C   C2        1.0  0.24615  0.31097  0.84547  1.0000
  C   C3        1.0  0.24615  0.31097  0.65453  1.0000
  C   C4        1.0  0.75385  0.68903  0.15452  1.0000
  C   C5        1.0  0.85326  0.53547  0.34512  1.0000
  C   C6        1.0  0.14675  0.46453  0.84512  1.0000
  C   C7        1.0  0.14675  0.46453  0.65489  1.0000
  C   C8        1.0  0.85324  0.53547  0.15488  1.0000
  C   C9        1.0  0.69558  0.78426  0.44812  1.0000
  C   C10       1.0  0.30442  0.21573  0.94812  1.0000
  C   C11       1.0  0.30445  0.21574  0.55189  1.0000
  C   C12       1.0  0.69555  0.78426  0.05188  1.0000
  N   N1        1.0  0.70453  0.76254  0.25000  1.0000
  N   N2        1.0  0.29546  0.23746  0.75000  1.0000
  N   N3        1.0  0.90249  0.45948  0.25000  1.0000
  N   N4        1.0  0.09752  0.54052  0.75000  1.0000
  O   O1        1.0  0.58597  0.91996  0.42444  1.0000
  O   O2        1.0  0.41403  0.08003  0.92444  1.0000
  O   O3        1.0  0.41406  0.08004  0.57556  1.0000
  O   O4        1.0  0.58595  0.91996  0.07556  1.0000
  O   O5        1.0  0.74974  0.73108  0.54185  1.0000
  O   O6        1.0  0.25025  0.26891  0.04185  1.0000
  O   O7        1.0  0.25031  0.26893  0.45815  1.0000
  O   O8        1.0  0.74969  0.73107  0.95815  1.0000
  O   O9        1.0  0.18196  0.11631  0.25000  1.0000
  O   O10       1.0  0.81804  0.88369  0.75000  1.0000
