data_image0
_chemical_formula_structural       La2H18C16N2O18
_chemical_formula_sum              "La2 H18 C16 N2 O18"
_cell_length_a       6.45203
_cell_length_b       6.54464
_cell_length_c       14.125
_cell_angle_alpha    88.6505
_cell_angle_beta     83.9539
_cell_angle_gamma    71.379

_space_group_name_H-M_alt    "P 1"
_space_group_IT_number       1

loop_
  _space_group_symop_operation_xyz
  'x, y, z'

loop_
  _atom_site_type_symbol
  _atom_site_label
  _atom_site_symmetry_multiplicity
  _atom_site_fract_x
  _atom_site_fract_y
  _atom_site_fract_z
  _atom_site_occupancy
  La  La1       1.0  0.34483  0.32534  0.80865  1.0000
  La  La2       1.0  0.65517  0.67466  0.19135  1.0000
  H   H1        1.0  0.50652  0.77808  0.60388  1.0000
  H   H2        1.0  0.49349  0.22191  0.39612  1.0000
  H   H3        1.0  0.95034  0.71185  0.48058  1.0000
  H   H4        1.0  0.04966  0.28815  0.51942  1.0000
  H   H5        1.0  0.68465  0.78268  0.43696  1.0000
  H   H6        1.0  0.31536  0.21732  0.56304  1.0000
  H   H7        1.0  0.85502  0.47206  0.85513  1.0000
  H   H8        1.0  0.14497  0.52794  0.14487  1.0000
  H   H9        1.0  0.89315  0.67294  0.90329  1.0000
  H   H10       1.0  0.10685  0.32705  0.09672  1.0000
  H   H11       1.0  0.70530  0.86165  0.74163  1.0000
  H   H12       1.0  0.29470  0.13835  0.25837  1.0000
  H   H13       1.0  0.51689  0.81993  0.81710  1.0000
  H   H14       1.0  0.48311  0.18007  0.18290  1.0000
  H   H15       1.0  0.21834  0.91769  0.90030  1.0000
  H   H16       1.0  0.78166  0.08230  0.09970  1.0000
  H   H17       1.0  0.99425  0.09477  0.88047  1.0000
  H   H18       1.0  0.00575  0.90524  0.11954  1.0000
  C   C1        1.0  0.22719  0.72490  0.38376  1.0000
  C   C2        1.0  0.77281  0.27510  0.61624  1.0000
  C   C3        1.0  0.42229  0.76312  0.54281  1.0000
  C   C4        1.0  0.57772  0.23688  0.45719  1.0000
  C   C5        1.0  0.21378  0.73998  0.55478  1.0000
  C   C6        1.0  0.78623  0.26003  0.44521  1.0000
  C   C7        1.0  0.11411  0.72584  0.47319  1.0000
  C   C8        1.0  0.88589  0.27416  0.52680  1.0000
  C   C9        1.0  0.52265  0.76424  0.45036  1.0000
  C   C10       1.0  0.47736  0.23576  0.54964  1.0000
  C   C11       1.0  0.09463  0.72682  0.65160  1.0000
  C   C12       1.0  0.90536  0.27318  0.34840  1.0000
  C   C13       1.0  0.12657  0.70475  0.29474  1.0000
  C   C14       1.0  0.87343  0.29525  0.70526  1.0000
  C   C15       1.0  0.53556  0.38164  0.01713  1.0000
  C   C16       1.0  0.46444  0.61835  0.98287  1.0000
  N   N1        1.0  0.43182  0.74025  0.37205  1.0000
  N   N2        1.0  0.56818  0.25975  0.62795  1.0000
  O   O1        1.0  0.21199  0.66304  0.72046  1.0000
  O   O2        1.0  0.78801  0.33697  0.27954  1.0000
  O   O3        1.0  0.88796  0.77795  0.65535  1.0000
  O   O4        1.0  0.11204  0.22205  0.34465  1.0000
  O   O5        1.0  0.92337  0.72930  0.30081  1.0000
  O   O6        1.0  0.07662  0.27070  0.69919  1.0000
  O   O7        1.0  0.25541  0.66377  0.21684  1.0000
  O   O8        1.0  0.74458  0.33624  0.78316  1.0000
  O   O9        1.0  0.50713  0.24099  0.96604  1.0000
  O   O10       1.0  0.49288  0.75901  0.03396  1.0000
  O   O11       1.0  0.61889  0.34880  0.09688  1.0000
  O   O12       1.0  0.38110  0.65119  0.90312  1.0000
  O   O13       1.0  0.95467  0.51776  0.89330  1.0000
  O   O14       1.0  0.04533  0.48223  0.10670  1.0000
  O   O15       1.0  0.57789  0.93137  0.79111  1.0000
  O   O16       1.0  0.42211  0.06863  0.20889  1.0000
  O   O17       1.0  0.14203  0.07576  0.89712  1.0000
  O   O18       1.0  0.85798  0.92424  0.10288  1.0000
