data_image0
_chemical_formula_structural       K8H24C24S8O36
_chemical_formula_sum              "K8 H24 C24 S8 O36"
_cell_length_a       7.31209
_cell_length_b       11.4923
_cell_length_c       14.7314
_cell_angle_alpha    89.9999
_cell_angle_beta     101.027
_cell_angle_gamma    90.0001

_space_group_name_H-M_alt    "P 1"
_space_group_IT_number       1

loop_
  _space_group_symop_operation_xyz
  'x, y, z'

loop_
  _atom_site_type_symbol
  _atom_site_label
  _atom_site_symmetry_multiplicity
  _atom_site_fract_x
  _atom_site_fract_y
  _atom_site_fract_z
  _atom_site_occupancy
  K   K1        1.0  0.65624  0.13298  0.49921  1.0000
  K   K2        1.0  0.34376  0.63299  0.00079  1.0000
  K   K3        1.0  0.34376  0.86702  0.50079  1.0000
  K   K4        1.0  0.65624  0.36702  0.99921  1.0000
  K   K5        1.0  0.92939  0.02555  0.27945  1.0000
  K   K6        1.0  0.07061  0.52555  0.22055  1.0000
  K   K7        1.0  0.07061  0.97445  0.72054  1.0000
  K   K8        1.0  0.92938  0.47445  0.77946  1.0000
  H   H1        1.0  0.03558  0.30456  0.37762  1.0000
  H   H2        1.0  0.96442  0.80456  0.12238  1.0000
  H   H3        1.0  0.96442  0.69544  0.62238  1.0000
  H   H4        1.0  0.03558  0.19544  0.87762  1.0000
  H   H5        1.0  0.48804  0.65946  0.65277  1.0000
  H   H6        1.0  0.51196  0.15946  0.84722  1.0000
  H   H7        1.0  0.51196  0.34054  0.34723  1.0000
  H   H8        1.0  0.48803  0.84054  0.15278  1.0000
  H   H9        1.0  0.75830  0.28474  0.20377  1.0000
  H   H10       1.0  0.24170  0.78474  0.29623  1.0000
  H   H11       1.0  0.24170  0.71526  0.79623  1.0000
  H   H12       1.0  0.75830  0.21526  0.70377  1.0000
  H   H13       1.0  0.92141  0.26271  0.15353  1.0000
  H   H14       1.0  0.07859  0.76271  0.34647  1.0000
  H   H15       1.0  0.07859  0.73729  0.84646  1.0000
  H   H16       1.0  0.92141  0.23729  0.65353  1.0000
  H   H17       1.0  0.23569  0.58350  0.43113  1.0000
  H   H18       1.0  0.76431  0.08350  0.06887  1.0000
  H   H19       1.0  0.76431  0.41650  0.56887  1.0000
  H   H20       1.0  0.23569  0.91650  0.93113  1.0000
  H   H21       1.0  0.31473  0.28507  0.68056  1.0000
  H   H22       1.0  0.68527  0.78507  0.81944  1.0000
  H   H23       1.0  0.68527  0.71493  0.31944  1.0000
  H   H24       1.0  0.31473  0.21493  0.18056  1.0000
  C   C1        1.0  0.20388  0.32132  0.53680  1.0000
  C   C2        1.0  0.79612  0.82132  0.96320  1.0000
  C   C3        1.0  0.79612  0.67868  0.46320  1.0000
  C   C4        1.0  0.20388  0.17868  0.03680  1.0000
  C   C5        1.0  0.17768  0.40683  0.46604  1.0000
  C   C6        1.0  0.82232  0.90682  0.03396  1.0000
  C   C7        1.0  0.82233  0.59317  0.53396  1.0000
  C   C8        1.0  0.17768  0.09317  0.96604  1.0000
  C   C9        1.0  0.24918  0.51843  0.48598  1.0000
  C   C10       1.0  0.75082  0.01843  0.01401  1.0000
  C   C11       1.0  0.75082  0.48157  0.51401  1.0000
  C   C12       1.0  0.24918  0.98157  0.98599  1.0000
  C   C13       1.0  0.34026  0.54783  0.57491  1.0000
  C   C14       1.0  0.65975  0.04783  0.92509  1.0000
  C   C15       1.0  0.65975  0.45217  0.42509  1.0000
  C   C16       1.0  0.34025  0.95217  0.07491  1.0000
  C   C17       1.0  0.35868  0.46384  0.64680  1.0000
  C   C18       1.0  0.64132  0.96385  0.85320  1.0000
  C   C19       1.0  0.64132  0.53616  0.35320  1.0000
  C   C20       1.0  0.35868  0.03615  0.14680  1.0000
  C   C21       1.0  0.29357  0.35121  0.62639  1.0000
  C   C22       1.0  0.70642  0.85120  0.87361  1.0000
  C   C23       1.0  0.70643  0.64879  0.37361  1.0000
  C   C24       1.0  0.29357  0.14879  0.12639  1.0000
  S   S1        1.0  0.45586  0.50499  0.76207  1.0000
  S   S2        1.0  0.54414  0.00497  0.73792  1.0000
  S   S3        1.0  0.54414  0.49502  0.23792  1.0000
  S   S4        1.0  0.45586  0.99502  0.26208  1.0000
  S   S5        1.0  0.13205  0.17577  0.51409  1.0000
  S   S6        1.0  0.86796  0.67577  0.98591  1.0000
  S   S7        1.0  0.86795  0.82423  0.48591  1.0000
  S   S8        1.0  0.13205  0.32423  0.01409  1.0000
  O   O1        1.0  0.99885  0.17923  0.42413  1.0000
  O   O2        1.0  0.00116  0.67923  0.07587  1.0000
  O   O3        1.0  0.00116  0.82077  0.57587  1.0000
  O   O4        1.0  0.99884  0.32077  0.92413  1.0000
  O   O5        1.0  0.03617  0.13928  0.58892  1.0000
  O   O6        1.0  0.96383  0.63928  0.91108  1.0000
  O   O7        1.0  0.96383  0.86072  0.41108  1.0000
  O   O8        1.0  0.03617  0.36072  0.08892  1.0000
  O   O9        1.0  0.29625  0.10453  0.51047  1.0000
  O   O10       1.0  0.70375  0.60453  0.98954  1.0000
  O   O11       1.0  0.70375  0.89547  0.48954  1.0000
  O   O12       1.0  0.29625  0.39547  0.01046  1.0000
  O   O13       1.0  0.58947  0.59912  0.75127  1.0000
  O   O14       1.0  0.41053  0.09912  0.74872  1.0000
  O   O15       1.0  0.41052  0.40088  0.24873  1.0000
  O   O16       1.0  0.58948  0.90088  0.25128  1.0000
  O   O17       1.0  0.54648  0.40287  0.81009  1.0000
  O   O18       1.0  0.45353  0.90288  0.68991  1.0000
  O   O19       1.0  0.45352  0.59712  0.18991  1.0000
  O   O20       1.0  0.54648  0.09712  0.31009  1.0000
  O   O21       1.0  0.30083  0.54998  0.80340  1.0000
  O   O22       1.0  0.69918  0.04999  0.69660  1.0000
  O   O23       1.0  0.69917  0.45001  0.19660  1.0000
  O   O24       1.0  0.30083  0.95001  0.30340  1.0000
  O   O25       1.0  0.08707  0.38558  0.37852  1.0000
  O   O26       1.0  0.91292  0.88558  0.12148  1.0000
  O   O27       1.0  0.91293  0.61442  0.62148  1.0000
  O   O28       1.0  0.08707  0.11442  0.87852  1.0000
  O   O29       1.0  0.40826  0.65725  0.58902  1.0000
  O   O30       1.0  0.59173  0.15725  0.91098  1.0000
  O   O31       1.0  0.59174  0.34275  0.41098  1.0000
  O   O32       1.0  0.40826  0.84275  0.08902  1.0000
  O   O33       1.0  0.83057  0.22117  0.18326  1.0000
  O   O34       1.0  0.16942  0.72117  0.31674  1.0000
  O   O35       1.0  0.16942  0.77883  0.81674  1.0000
  O   O36       1.0  0.83057  0.27883  0.68326  1.0000
