data_image0
_chemical_formula_structural       Zn2H50C44N6O8
_chemical_formula_sum              "Zn2 H50 C44 N6 O8"
_cell_length_a       8.03842
_cell_length_b       9.6867
_cell_length_c       14.6755
_cell_angle_alpha    88.0504
_cell_angle_beta     88.1707
_cell_angle_gamma    74.5335

_space_group_name_H-M_alt    "P 1"
_space_group_IT_number       1

loop_
  _space_group_symop_operation_xyz
  'x, y, z'

loop_
  _atom_site_type_symbol
  _atom_site_label
  _atom_site_symmetry_multiplicity
  _atom_site_fract_x
  _atom_site_fract_y
  _atom_site_fract_z
  _atom_site_occupancy
  Zn  Zn1       1.0  0.22594  0.62761  0.17093  1.0000
  Zn  Zn2       1.0  0.77406  0.37239  0.82907  1.0000
  H   H1        1.0  0.45493  0.36626  0.05844  1.0000
  H   H2        1.0  0.54507  0.63374  0.94156  1.0000
  H   H3        1.0  0.22457  0.61576  0.81600  1.0000
  H   H4        1.0  0.77543  0.38424  0.18400  1.0000
  H   H5        1.0  0.08197  0.50591  0.81827  1.0000
  H   H6        1.0  0.91804  0.49409  0.18173  1.0000
  H   H7        1.0  0.78251  0.04478  0.14705  1.0000
  H   H8        1.0  0.21749  0.95522  0.85296  1.0000
  H   H9        1.0  0.67007  0.12249  0.04701  1.0000
  H   H10       1.0  0.32993  0.87751  0.95299  1.0000
  H   H11       1.0  0.60110  0.61855  0.11835  1.0000
  H   H12       1.0  0.39890  0.38145  0.88165  1.0000
  H   H13       1.0  0.30437  0.12887  0.14935  1.0000
  H   H14       1.0  0.69563  0.87113  0.85065  1.0000
  H   H15       1.0  0.77733  0.79491  0.10437  1.0000
  H   H16       1.0  0.22268  0.20508  0.89563  1.0000
  H   H17       1.0  0.04577  0.54442  0.64115  1.0000
  H   H18       1.0  0.95423  0.45558  0.35885  1.0000
  H   H19       1.0  0.19824  0.64662  0.64263  1.0000
  H   H20       1.0  0.80176  0.35338  0.35737  1.0000
  H   H21       1.0  0.70829  0.02672  0.31708  1.0000
  H   H22       1.0  0.29171  0.97328  0.68292  1.0000
  H   H23       1.0  0.14930  0.93707  0.16701  1.0000
  H   H24       1.0  0.85070  0.06293  0.83299  1.0000
  H   H25       1.0  0.99103  0.79524  0.91235  1.0000
  H   H26       1.0  0.00897  0.20476  0.08765  1.0000
  H   H27       1.0  0.88758  0.65776  0.92907  1.0000
  H   H28       1.0  0.11242  0.34224  0.07093  1.0000
  H   H29       1.0  0.99781  0.81913  0.74808  1.0000
  H   H30       1.0  0.00219  0.18087  0.25192  1.0000
  H   H31       1.0  0.85288  0.71031  0.74847  1.0000
  H   H32       1.0  0.14712  0.28969  0.25153  1.0000
  H   H33       1.0  0.32230  0.51968  0.38136  1.0000
  H   H34       1.0  0.67770  0.48032  0.61864  1.0000
  H   H35       1.0  0.44887  0.35002  0.50930  1.0000
  H   H36       1.0  0.55113  0.64998  0.49070  1.0000
  H   H37       1.0  0.03538  0.59972  0.46506  1.0000
  H   H38       1.0  0.96462  0.40028  0.53494  1.0000
  H   H39       1.0  0.17121  0.71423  0.47276  1.0000
  H   H40       1.0  0.82879  0.28577  0.52724  1.0000
  H   H41       1.0  0.79789  0.80137  0.40582  1.0000
  H   H42       1.0  0.20211  0.19863  0.59418  1.0000
  H   H43       1.0  0.92154  0.92325  0.42000  1.0000
  H   H44       1.0  0.07846  0.07675  0.58000  1.0000
  H   H45       1.0  0.63369  0.10628  0.47829  1.0000
  H   H46       1.0  0.36631  0.89372  0.52171  1.0000
  H   H47       1.0  0.82588  0.75493  0.57767  1.0000
  H   H48       1.0  0.17412  0.24508  0.42234  1.0000
  H   H49       1.0  0.96954  0.86322  0.58547  1.0000
  H   H50       1.0  0.03046  0.13678  0.41453  1.0000
  C   C1        1.0  0.55298  0.22890  0.26250  1.0000
  C   C2        1.0  0.44701  0.77111  0.73750  1.0000
  C   C3        1.0  0.46841  0.34293  0.13111  1.0000
  C   C4        1.0  0.53159  0.65707  0.86889  1.0000
  C   C5        1.0  0.55393  0.97805  0.12510  1.0000
  C   C6        1.0  0.44607  0.02195  0.87490  1.0000
  C   C7        1.0  0.12823  0.62380  0.99505  1.0000
  C   C8        1.0  0.87177  0.37620  0.00495  1.0000
  C   C9        1.0  0.00014  0.78803  0.30672  1.0000
  C   C10       1.0  0.99986  0.21197  0.69328  1.0000
  C   C11       1.0  0.08732  0.61795  0.82183  1.0000
  C   C12       1.0  0.91268  0.38205  0.17817  1.0000
  C   C13       1.0  0.65392  0.09015  0.11864  1.0000
  C   C14       1.0  0.34608  0.90985  0.88136  1.0000
  C   C15       1.0  0.54081  0.73297  0.12566  1.0000
  C   C16       1.0  0.45919  0.26703  0.87433  1.0000
  C   C17       1.0  0.37553  0.01730  0.14154  1.0000
  C   C18       1.0  0.62447  0.98270  0.85846  1.0000
  C   C19       1.0  0.63774  0.83251  0.11613  1.0000
  C   C20       1.0  0.36226  0.16749  0.88387  1.0000
  C   C21       1.0  0.05923  0.65377  0.64881  1.0000
  C   C22       1.0  0.94077  0.34623  0.35119  1.0000
  C   C23       1.0  0.44519  0.36737  0.27908  1.0000
  C   C24       1.0  0.55481  0.63263  0.72091  1.0000
  C   C25       1.0  0.62283  0.13157  0.33243  1.0000
  C   C26       1.0  0.37717  0.86843  0.66757  1.0000
  C   C27       1.0  0.28766  0.91219  0.15093  1.0000
  C   C28       1.0  0.71235  0.08781  0.84907  1.0000
  C   C29       1.0  0.01440  0.67741  0.91378  1.0000
  C   C30       1.0  0.98560  0.32259  0.08622  1.0000
  C   C31       1.0  0.99096  0.70722  0.74284  1.0000
  C   C32       1.0  0.00904  0.29278  0.25716  1.0000
  C   C33       1.0  0.40699  0.41376  0.36854  1.0000
  C   C34       1.0  0.59301  0.58625  0.63146  1.0000
  C   C35       1.0  0.47691  0.31723  0.43878  1.0000
  C   C36       1.0  0.52309  0.68277  0.56122  1.0000
  C   C37       1.0  0.03520  0.71118  0.47760  1.0000
  C   C38       1.0  0.96480  0.28882  0.52240  1.0000
  C   C39       1.0  0.93199  0.81060  0.40467  1.0000
  C   C40       1.0  0.06801  0.18940  0.59533  1.0000
  C   C41       1.0  0.58202  0.17847  0.42117  1.0000
  C   C42       1.0  0.41797  0.82153  0.57883  1.0000
  C   C43       1.0  0.96373  0.75269  0.57322  1.0000
  C   C44       1.0  0.03627  0.24731  0.42678  1.0000
  N   N1        1.0  0.36915  0.77186  0.14387  1.0000
  N   N2        1.0  0.63085  0.22813  0.85613  1.0000
  N   N3        1.0  0.56637  0.21815  0.16786  1.0000
  N   N4        1.0  0.43362  0.78185  0.83214  1.0000
  N   N5        1.0  0.39375  0.43517  0.19500  1.0000
  N   N6        1.0  0.60625  0.56483  0.80500  1.0000
  O   O1        1.0  0.11857  0.66973  0.29285  1.0000
  O   O2        1.0  0.88143  0.33027  0.70716  1.0000
  O   O3        1.0  0.94093  0.88134  0.24633  1.0000
  O   O4        1.0  0.05907  0.11866  0.75367  1.0000
  O   O5        1.0  0.05412  0.65950  0.07410  1.0000
  O   O6        1.0  0.94588  0.34050  0.92590  1.0000
  O   O7        1.0  0.28345  0.55559  0.98517  1.0000
  O   O8        1.0  0.71656  0.44441  0.01483  1.0000
