data_image0
_chemical_formula_structural       ZnNiH32C24N12
_chemical_formula_sum              "Zn1 Ni1 H32 C24 N12"
_cell_length_a       8.67949
_cell_length_b       9.1609
_cell_length_c       11.1284
_cell_angle_alpha    110.944
_cell_angle_beta     110.135
_cell_angle_gamma    104.668

_space_group_name_H-M_alt    "P 1"
_space_group_IT_number       1

loop_
  _space_group_symop_operation_xyz
  'x, y, z'

loop_
  _atom_site_type_symbol
  _atom_site_label
  _atom_site_symmetry_multiplicity
  _atom_site_fract_x
  _atom_site_fract_y
  _atom_site_fract_z
  _atom_site_occupancy
  Zn  Zn1       1.0  1.00000  0.50000  1.00000  1.0000
  Ni  Ni1       1.0  0.49999  0.99998  0.50000  1.0000
  H   H1        1.0  0.00241  0.24969  0.68205  1.0000
  H   H2        1.0  0.99759  0.75031  0.31795  1.0000
  H   H3        1.0  0.25223  0.10615  0.70037  1.0000
  H   H4        1.0  0.74777  0.89386  0.29963  1.0000
  H   H5        1.0  0.35917  0.43816  0.12722  1.0000
  H   H6        1.0  0.64084  0.56185  0.87278  1.0000
  H   H7        1.0  0.43654  0.07296  0.94000  1.0000
  H   H8        1.0  0.56349  0.92706  0.06000  1.0000
  H   H9        1.0  0.59562  0.25093  0.95286  1.0000
  H   H10       1.0  0.40439  0.74910  0.04715  1.0000
  H   H11       1.0  0.69694  0.25738  0.19451  1.0000
  H   H12       1.0  0.30307  0.74264  0.80549  1.0000
  H   H13       1.0  0.49696  0.26410  0.19716  1.0000
  H   H14       1.0  0.50304  0.73590  0.80283  1.0000
  H   H15       1.0  0.65724  0.44123  0.20678  1.0000
  H   H16       1.0  0.34277  0.55878  0.79322  1.0000
  H   H17       1.0  0.86730  0.09864  0.94960  1.0000
  H   H18       1.0  0.13272  0.90136  0.05040  1.0000
  H   H19       1.0  0.96465  0.02777  0.18226  1.0000
  H   H20       1.0  0.03536  0.97223  0.81774  1.0000
  H   H21       1.0  0.15579  0.56799  0.35051  1.0000
  H   H22       1.0  0.84420  0.43200  0.64948  1.0000
  H   H23       1.0  0.05468  0.25683  0.46938  1.0000
  H   H24       1.0  0.94531  0.74318  0.53062  1.0000
  H   H25       1.0  0.20049  0.47137  0.53031  1.0000
  H   H26       1.0  0.79950  0.52863  0.46968  1.0000
  H   H27       1.0  0.38229  0.31768  0.61069  1.0000
  H   H28       1.0  0.61771  0.68233  0.38931  1.0000
  H   H29       1.0  0.43351  0.37139  0.48615  1.0000
  H   H30       1.0  0.56648  0.62861  0.51385  1.0000
  H   H31       1.0  0.28798  0.15589  0.42626  1.0000
  H   H32       1.0  0.71201  0.84411  0.57374  1.0000
  C   C1        1.0  0.34826  0.82894  0.30865  1.0000
  C   C2        1.0  0.65172  0.17102  0.69134  1.0000
  C   C3        1.0  0.35085  0.88836  0.55433  1.0000
  C   C4        1.0  0.64911  0.11159  0.44567  1.0000
  C   C5        1.0  0.11494  0.26990  0.77788  1.0000
  C   C6        1.0  0.88506  0.73010  0.22212  1.0000
  C   C7        1.0  0.23772  0.19883  0.78416  1.0000
  C   C8        1.0  0.76229  0.80118  0.21584  1.0000
  C   C9        1.0  0.29593  0.36956  0.00864  1.0000
  C   C10       1.0  0.70408  0.63045  0.99136  1.0000
  C   C11       1.0  0.49805  0.21482  0.99056  1.0000
  C   C12       1.0  0.50197  0.78520  0.00944  1.0000
  C   C13       1.0  0.59137  0.29979  0.15653  1.0000
  C   C14       1.0  0.40864  0.70022  0.84347  1.0000
  C   C15       1.0  0.94186  0.18595  0.06701  1.0000
  C   C16       1.0  0.05815  0.81404  0.93299  1.0000
  C   C17       1.0  0.98903  0.14861  0.18021  1.0000
  C   C18       1.0  0.01097  0.85139  0.81979  1.0000
  C   C19       1.0  0.08947  0.43168  0.26972  1.0000
  C   C20       1.0  0.91052  0.56832  0.73027  1.0000
  C   C21       1.0  0.16242  0.33497  0.45833  1.0000
  C   C22       1.0  0.83757  0.66504  0.54167  1.0000
  C   C23       1.0  0.32568  0.29286  0.49694  1.0000
  C   C24       1.0  0.67431  0.70714  0.50306  1.0000
  N   N1        1.0  0.24955  0.71676  0.18744  1.0000
  N   N2        1.0  0.75045  0.28323  0.81255  1.0000
  N   N3        1.0  0.25169  0.81439  0.58477  1.0000
  N   N4        1.0  0.74829  0.18558  0.41524  1.0000
  N   N5        1.0  0.15278  0.37621  0.91870  1.0000
  N   N6        1.0  0.84723  0.62379  0.08129  1.0000
  N   N7        1.0  0.35148  0.26311  0.93164  1.0000
  N   N8        1.0  0.64854  0.73690  0.06836  1.0000
  N   N9        1.0  0.00548  0.36296  0.12423  1.0000
  N   N10       1.0  0.99451  0.63703  0.87576  1.0000
  N   N11       1.0  0.08220  0.30608  0.30799  1.0000
  N   N12       1.0  0.91779  0.69392  0.69201  1.0000
