data_image0
_chemical_formula_structural       Zn2H52C68N12O8
_chemical_formula_sum              "Zn2 H52 C68 N12 O8"
_cell_length_a       9.58271
_cell_length_b       11.3463
_cell_length_c       14.3348
_cell_angle_alpha    82.3164
_cell_angle_beta     89.8002
_cell_angle_gamma    75.6969

_space_group_name_H-M_alt    "P 1"
_space_group_IT_number       1

loop_
  _space_group_symop_operation_xyz
  'x, y, z'

loop_
  _atom_site_type_symbol
  _atom_site_label
  _atom_site_symmetry_multiplicity
  _atom_site_fract_x
  _atom_site_fract_y
  _atom_site_fract_z
  _atom_site_occupancy
  Zn  Zn1       1.0  0.47038  0.11218  0.32167  1.0000
  Zn  Zn2       1.0  0.52962  0.88782  0.67833  1.0000
  H   H1        1.0  0.63115  0.39718  0.64989  1.0000
  H   H2        1.0  0.36885  0.60282  0.35011  1.0000
  H   H3        1.0  0.60009  0.27320  0.52344  1.0000
  H   H4        1.0  0.39991  0.72679  0.47656  1.0000
  H   H5        1.0  0.60788  0.84132  0.44265  1.0000
  H   H6        1.0  0.39212  0.15868  0.55735  1.0000
  H   H7        1.0  0.72628  0.16285  0.20292  1.0000
  H   H8        1.0  0.27372  0.83715  0.79708  1.0000
  H   H9        1.0  0.97275  0.12576  0.13627  1.0000
  H   H10       1.0  0.02725  0.87424  0.86373  1.0000
  H   H11       1.0  0.15823  0.93499  0.18838  1.0000
  H   H12       1.0  0.84177  0.06501  0.81162  1.0000
  H   H13       1.0  0.10875  0.77364  0.30976  1.0000
  H   H14       1.0  0.89125  0.22636  0.69024  1.0000
  H   H15       1.0  0.82798  0.67886  0.50355  1.0000
  H   H16       1.0  0.17202  0.32114  0.49645  1.0000
  H   H17       1.0  0.99877  0.69524  0.46592  1.0000
  H   H18       1.0  0.00123  0.30476  0.53408  1.0000
  H   H19       1.0  0.67295  0.61710  0.36091  1.0000
  H   H20       1.0  0.32705  0.38290  0.63909  1.0000
  H   H21       1.0  0.69866  0.44455  0.26685  1.0000
  H   H22       1.0  0.30134  0.55545  0.73315  1.0000
  H   H23       1.0  0.14463  0.35840  0.29467  1.0000
  H   H24       1.0  0.85537  0.64160  0.70533  1.0000
  H   H25       1.0  0.13788  0.52754  0.38865  1.0000
  H   H26       1.0  0.86212  0.47246  0.61135  1.0000
  H   H27       1.0  0.36479  0.32021  0.14011  1.0000
  H   H28       1.0  0.63521  0.67979  0.85989  1.0000
  H   H29       1.0  0.23715  0.04364  0.92043  1.0000
  H   H30       1.0  0.76285  0.95636  0.07957  1.0000
  H   H31       1.0  0.29507  0.81858  0.97462  1.0000
  H   H32       1.0  0.70493  0.18142  0.02538  1.0000
  H   H33       1.0  0.41185  0.73048  0.12899  1.0000
  H   H34       1.0  0.58815  0.26952  0.87101  1.0000
  H   H35       1.0  0.47395  0.86566  0.23982  1.0000
  H   H36       1.0  0.52606  0.13434  0.76018  1.0000
  H   H37       1.0  0.28376  0.26073  0.89863  1.0000
  H   H38       1.0  0.71624  0.73926  0.10137  1.0000
  H   H39       1.0  0.28411  0.37860  0.96831  1.0000
  H   H40       1.0  0.71589  0.62140  0.03169  1.0000
  H   H41       1.0  0.06282  0.31693  0.11806  1.0000
  H   H42       1.0  0.93718  0.68307  0.88194  1.0000
  H   H43       1.0  0.79899  0.38407  0.10929  1.0000
  H   H44       1.0  0.20101  0.61593  0.89071  1.0000
  H   H45       1.0  0.78694  0.42453  0.81740  1.0000
  H   H46       1.0  0.21306  0.57547  0.18260  1.0000
  H   H47       1.0  0.05488  0.35003  0.81375  1.0000
  H   H48       1.0  0.94512  0.64997  0.18625  1.0000
  H   H49       1.0  0.22428  0.83737  0.54708  1.0000
  H   H50       1.0  0.77572  0.16263  0.45292  1.0000
  H   H51       1.0  0.00776  0.17576  0.37784  1.0000
  H   H52       1.0  0.99224  0.82424  0.62216  1.0000
  C   C1        1.0  0.57475  0.44141  0.58348  1.0000
  C   C2        1.0  0.42525  0.55859  0.41652  1.0000
  C   C3        1.0  0.55755  0.37265  0.51277  1.0000
  C   C4        1.0  0.44245  0.62734  0.48723  1.0000
  C   C5        1.0  0.48257  0.43117  0.42847  1.0000
  C   C6        1.0  0.51743  0.56883  0.57153  1.0000
  C   C7        1.0  0.46267  0.35768  0.35177  1.0000
  C   C8        1.0  0.53733  0.64232  0.64823  1.0000
  C   C9        1.0  0.68389  0.87303  0.39552  1.0000
  C   C10       1.0  0.31611  0.12697  0.60448  1.0000
  C   C11       1.0  0.77827  0.98523  0.29007  1.0000
  C   C12       1.0  0.22173  0.01477  0.70993  1.0000
  C   C13       1.0  0.88633  0.87699  0.32043  1.0000
  C   C14       1.0  0.11368  0.12301  0.67957  1.0000
  C   C15       1.0  0.80776  0.07760  0.22404  1.0000
  C   C16       1.0  0.19224  0.92240  0.77596  1.0000
  C   C17       1.0  0.94558  0.05637  0.18823  1.0000
  C   C18       1.0  0.05442  0.94363  0.81177  1.0000
  C   C19       1.0  0.05178  0.94753  0.21790  1.0000
  C   C20       1.0  0.94822  0.05247  0.78210  1.0000
  C   C21       1.0  0.02485  0.85601  0.28525  1.0000
  C   C22       1.0  0.97515  0.14399  0.71475  1.0000
  C   C23       1.0  0.89216  0.69080  0.44105  1.0000
  C   C24       1.0  0.10784  0.30920  0.55895  1.0000
  C   C25       1.0  0.90401  0.58680  0.38326  1.0000
  C   C26       1.0  0.09599  0.41320  0.61674  1.0000
  C   C27       1.0  0.77992  0.56265  0.34717  1.0000
  C   C28       1.0  0.22008  0.43735  0.65283  1.0000
  C   C29       1.0  0.79450  0.46576  0.29457  1.0000
  C   C30       1.0  0.20550  0.53424  0.70543  1.0000
  C   C31       1.0  0.04089  0.41728  0.31002  1.0000
  C   C32       1.0  0.95911  0.58272  0.68998  1.0000
  C   C33       1.0  0.03715  0.51250  0.36350  1.0000
  C   C34       1.0  0.96285  0.48750  0.63650  1.0000
  C   C35       1.0  0.36568  0.22859  0.12463  1.0000
  C   C36       1.0  0.63432  0.77141  0.87537  1.0000
  C   C37       1.0  0.32845  0.07907  0.05001  1.0000
  C   C38       1.0  0.67155  0.92093  0.94999  1.0000
  C   C39       1.0  0.29070  0.00565  0.98860  1.0000
  C   C40       1.0  0.70930  0.99435  0.01140  1.0000
  C   C41       1.0  0.32372  0.87987  0.01936  1.0000
  C   C42       1.0  0.67629  0.12013  0.98064  1.0000
  C   C43       1.0  0.39134  0.82940  0.10801  1.0000
  C   C44       1.0  0.60867  0.17060  0.89199  1.0000
  C   C45       1.0  0.42775  0.90307  0.16956  1.0000
  C   C46       1.0  0.57225  0.09693  0.83044  1.0000
  C   C47       1.0  0.39515  0.02973  0.13938  1.0000
  C   C48       1.0  0.60485  0.97027  0.86062  1.0000
  C   C49       1.0  0.24538  0.29576  0.96440  1.0000
  C   C50       1.0  0.75462  0.70424  0.03560  1.0000
  C   C51       1.0  0.08255  0.32846  0.96541  1.0000
  C   C52       1.0  0.91745  0.67154  0.03459  1.0000
  C   C53       1.0  0.00793  0.33775  0.04913  1.0000
  C   C54       1.0  0.99207  0.66225  0.95087  1.0000
  C   C55       1.0  0.85798  0.37652  0.04409  1.0000
  C   C56       1.0  0.14202  0.62348  0.95591  1.0000
  C   C57       1.0  0.85197  0.39738  0.88288  1.0000
  C   C58       1.0  0.14803  0.60262  0.11712  1.0000
  C   C59       1.0  0.00179  0.35726  0.88089  1.0000
  C   C60       1.0  0.99821  0.64274  0.11911  1.0000
  C   C61       1.0  0.26908  0.01335  0.41242  1.0000
  C   C62       1.0  0.73092  0.98665  0.58758  1.0000
  C   C63       1.0  0.12995  0.00703  0.45764  1.0000
  C   C64       1.0  0.87005  0.99297  0.54236  1.0000
  C   C65       1.0  0.12514  0.90718  0.52568  1.0000
  C   C66       1.0  0.87486  0.09282  0.47432  1.0000
  C   C67       1.0  0.00420  0.09978  0.43225  1.0000
  C   C68       1.0  0.99580  0.90022  0.56775  1.0000
  N   N1        1.0  0.65323  0.97864  0.33809  1.0000
  N   N2        1.0  0.34677  0.02136  0.66191  1.0000
  N   N3        1.0  0.82248  0.80907  0.38789  1.0000
  N   N4        1.0  0.17752  0.19093  0.61211  1.0000
  N   N5        1.0  0.92226  0.39324  0.27575  1.0000
  N   N6        1.0  0.07774  0.60676  0.72425  1.0000
  N   N7        1.0  0.41563  0.12622  0.18400  1.0000
  N   N8        1.0  0.58437  0.87378  0.81600  1.0000
  N   N9        1.0  0.31292  0.20513  0.04294  1.0000
  N   N10       1.0  0.68708  0.79487  0.95706  1.0000
  N   N11       1.0  0.77936  0.40768  0.96304  1.0000
  N   N12       1.0  0.22064  0.59232  0.03696  1.0000
  O   O1        1.0  0.53890  0.24489  0.36497  1.0000
  O   O2        1.0  0.46110  0.75511  0.63503  1.0000
  O   O3        1.0  0.37785  0.40592  0.28309  1.0000
  O   O4        1.0  0.62215  0.59408  0.71691  1.0000
  O   O5        1.0  0.36266  0.91719  0.40245  1.0000
  O   O6        1.0  0.63734  0.08281  0.59755  1.0000
  O   O7        1.0  0.28543  0.12337  0.38551  1.0000
  O   O8        1.0  0.71458  0.87663  0.61449  1.0000
