data_image0
_chemical_formula_structural       Ni2H32C24N12
_chemical_formula_sum              "Ni2 H32 C24 N12"
_cell_length_a       8.73005
_cell_length_b       8.75956
_cell_length_c       10.9743
_cell_angle_alpha    106.652
_cell_angle_beta     110.219
_cell_angle_gamma    100.62

_space_group_name_H-M_alt    "P 1"
_space_group_IT_number       1

loop_
  _space_group_symop_operation_xyz
  'x, y, z'

loop_
  _atom_site_type_symbol
  _atom_site_label
  _atom_site_symmetry_multiplicity
  _atom_site_fract_x
  _atom_site_fract_y
  _atom_site_fract_z
  _atom_site_occupancy
  Ni  Ni1       1.0  0.00000  0.00001  1.00000  1.0000
  Ni  Ni2       1.0  1.00000  0.00000  0.50000  1.0000
  H   H1        1.0  0.29181  0.04241  0.79993  1.0000
  H   H2        1.0  0.70818  0.95759  0.20007  1.0000
  H   H3        1.0  0.54703  0.89572  0.79052  1.0000
  H   H4        1.0  0.45297  0.10429  0.20950  1.0000
  H   H5        1.0  0.21452  0.82570  0.37826  1.0000
  H   H6        1.0  0.78548  0.17429  0.62175  1.0000
  H   H7        1.0  0.52035  0.64370  0.56368  1.0000
  H   H8        1.0  0.47966  0.35630  0.43633  1.0000
  H   H9        1.0  0.63939  0.82063  0.55204  1.0000
  H   H10       1.0  0.36062  0.17938  0.44797  1.0000
  H   H11       1.0  0.50030  0.57587  0.32142  1.0000
  H   H12       1.0  0.49971  0.42414  0.67859  1.0000
  H   H13       1.0  0.41902  0.74299  0.30482  1.0000
  H   H14       1.0  0.58098  0.25701  0.69518  1.0000
  H   H15       1.0  0.29370  0.56516  0.31539  1.0000
  H   H16       1.0  0.70630  0.43484  0.68462  1.0000
  H   H17       1.0  0.09278  0.32723  0.44722  1.0000
  H   H18       1.0  0.90722  0.67276  0.55278  1.0000
  H   H19       1.0  0.24376  0.63691  0.67450  1.0000
  H   H20       1.0  0.75623  0.36309  0.32549  1.0000
  H   H21       1.0  0.17254  0.24643  0.82308  1.0000
  H   H22       1.0  0.82746  0.75357  0.17692  1.0000
  H   H23       1.0  0.42602  0.68298  0.95201  1.0000
  H   H24       1.0  0.57398  0.31702  0.04799  1.0000
  H   H25       1.0  0.33272  0.52675  0.00175  1.0000
  H   H26       1.0  0.66727  0.47326  0.99825  1.0000
  H   H27       1.0  0.23816  0.78114  0.06814  1.0000
  H   H28       1.0  0.76183  0.21886  0.93185  1.0000
  H   H29       1.0  0.05832  0.60487  0.94032  1.0000
  H   H30       1.0  0.94167  0.39512  0.05966  1.0000
  H   H31       1.0  0.15003  0.76238  0.89086  1.0000
  H   H32       1.0  0.84995  0.23761  0.10912  1.0000
  C   C1        1.0  0.19529  0.17149  0.04965  1.0000
  C   C2        1.0  0.80472  0.82852  0.95035  1.0000
  C   C3        1.0  0.05940  0.02451  0.18329  1.0000
  C   C4        1.0  0.94061  0.97550  0.81671  1.0000
  C   C5        1.0  0.31445  0.97791  0.71072  1.0000
  C   C6        1.0  0.68555  0.02209  0.28928  1.0000
  C   C7        1.0  0.44176  0.90637  0.70806  1.0000
  C   C8        1.0  0.55824  0.09363  0.29194  1.0000
  C   C9        1.0  0.26889  0.86391  0.49100  1.0000
  C   C10       1.0  0.73111  0.13610  0.50901  1.0000
  C   C11       1.0  0.50858  0.73627  0.51404  1.0000
  C   C12       1.0  0.49142  0.26374  0.48597  1.0000
  C   C13       1.0  0.42435  0.65102  0.35523  1.0000
  C   C14       1.0  0.57566  0.34898  0.64478  1.0000
  C   C15       1.0  0.13119  0.35699  0.55841  1.0000
  C   C16       1.0  0.86881  0.64300  0.44159  1.0000
  C   C17       1.0  0.20573  0.50948  0.66939  1.0000
  C   C18       1.0  0.79427  0.49050  0.33061  1.0000
  C   C19       1.0  0.17198  0.30665  0.74945  1.0000
  C   C20       1.0  0.82803  0.69335  0.25055  1.0000
  C   C21       1.0  0.30376  0.59773  0.93341  1.0000
  C   C22       1.0  0.69623  0.40227  0.06658  1.0000
  C   C23       1.0  0.18006  0.69114  0.95893  1.0000
  C   C24       1.0  0.81993  0.30886  0.04105  1.0000
  N   N1        1.0  0.31946  0.27913  0.07746  1.0000
  N   N2        1.0  0.68053  0.72087  0.92253  1.0000
  N   N3        1.0  0.09383  0.03762  0.30010  1.0000
  N   N4        1.0  0.90616  0.96236  0.69989  1.0000
  N   N5        1.0  0.20774  0.95045  0.57440  1.0000
  N   N6        1.0  0.79226  0.04955  0.42561  1.0000
  N   N7        1.0  0.41016  0.83434  0.56836  1.0000
  N   N8        1.0  0.58985  0.16567  0.43164  1.0000
  N   N9        1.0  0.11129  0.23174  0.61008  1.0000
  N   N10       1.0  0.88872  0.76826  0.38992  1.0000
  N   N11       1.0  0.23125  0.47512  0.78879  1.0000
  N   N12       1.0  0.76875  0.52488  0.21120  1.0000
