data_image0
_chemical_formula_structural       Ag4H32C36N12O8
_chemical_formula_sum              "Ag4 H32 C36 N12 O8"
_cell_length_a       7.01386
_cell_length_b       9.69961
_cell_length_c       14.1566
_cell_angle_alpha    94.8859
_cell_angle_beta     90.0017
_cell_angle_gamma    90.0007

_space_group_name_H-M_alt    "P 1"
_space_group_IT_number       1

loop_
  _space_group_symop_operation_xyz
  'x, y, z'

loop_
  _atom_site_type_symbol
  _atom_site_label
  _atom_site_symmetry_multiplicity
  _atom_site_fract_x
  _atom_site_fract_y
  _atom_site_fract_z
  _atom_site_occupancy
  Ag  Ag1       1.0  0.55450  0.31787  0.97373  1.0000
  Ag  Ag2       1.0  0.05450  0.68212  0.52627  1.0000
  Ag  Ag3       1.0  0.44551  0.68214  0.02627  1.0000
  Ag  Ag4       1.0  0.94550  0.31788  0.47373  1.0000
  H   H1        1.0  0.23052  0.74699  0.84630  1.0000
  H   H2        1.0  0.73054  0.25300  0.65370  1.0000
  H   H3        1.0  0.76948  0.25302  0.15370  1.0000
  H   H4        1.0  0.26945  0.74699  0.34630  1.0000
  H   H5        1.0  0.43483  0.54091  0.80129  1.0000
  H   H6        1.0  0.93488  0.45907  0.69871  1.0000
  H   H7        1.0  0.56518  0.45910  0.19871  1.0000
  H   H8        1.0  0.06513  0.54091  0.30129  1.0000
  H   H9        1.0  0.31839  0.30275  0.81012  1.0000
  H   H10       1.0  0.81846  0.69724  0.68988  1.0000
  H   H11       1.0  0.68161  0.69726  0.18988  1.0000
  H   H12       1.0  0.18156  0.30275  0.31012  1.0000
  H   H13       1.0  0.98544  0.25801  0.86654  1.0000
  H   H14       1.0  0.48550  0.74198  0.63347  1.0000
  H   H15       1.0  0.01457  0.74199  0.13346  1.0000
  H   H16       1.0  0.51452  0.25801  0.36654  1.0000
  H   H17       1.0  0.98117  0.88775  0.94205  1.0000
  H   H18       1.0  0.48117  0.11225  0.55795  1.0000
  H   H19       1.0  0.01882  0.11226  0.05794  1.0000
  H   H20       1.0  0.51881  0.88774  0.44205  1.0000
  H   H21       1.0  0.76397  0.86995  0.00299  1.0000
  H   H22       1.0  0.26397  0.13006  0.49701  1.0000
  H   H23       1.0  0.23603  0.13006  0.99701  1.0000
  H   H24       1.0  0.73602  0.86994  0.50300  1.0000
  H   H25       1.0  0.59473  0.85095  0.83757  1.0000
  H   H26       1.0  0.09474  0.14903  0.66241  1.0000
  H   H27       1.0  0.40525  0.14904  0.16242  1.0000
  H   H28       1.0  0.90525  0.85097  0.33759  1.0000
  H   H29       1.0  0.80863  0.91577  0.79136  1.0000
  H   H30       1.0  0.30863  0.08422  0.70863  1.0000
  H   H31       1.0  0.19136  0.08423  0.20863  1.0000
  H   H32       1.0  0.69136  0.91578  0.29137  1.0000
  C   C1        1.0  0.99499  0.61511  0.88384  1.0000
  C   C2        1.0  0.49501  0.38489  0.61617  1.0000
  C   C3        1.0  0.00502  0.38490  0.11616  1.0000
  C   C4        1.0  0.50499  0.61510  0.38383  1.0000
  C   C5        1.0  0.17888  0.64194  0.85102  1.0000
  C   C6        1.0  0.67890  0.35805  0.64898  1.0000
  C   C7        1.0  0.82114  0.35806  0.14898  1.0000
  C   C8        1.0  0.32110  0.64194  0.35102  1.0000
  C   C9        1.0  0.28978  0.52613  0.82533  1.0000
  C   C10       1.0  0.78982  0.47386  0.67466  1.0000
  C   C11       1.0  0.71024  0.47388  0.17467  1.0000
  C   C12       1.0  0.21019  0.52612  0.32534  1.0000
  C   C13       1.0  0.22259  0.38889  0.83014  1.0000
  C   C14       1.0  0.72263  0.61110  0.66987  1.0000
  C   C15       1.0  0.77742  0.61111  0.16987  1.0000
  C   C16       1.0  0.27736  0.38889  0.33013  1.0000
  C   C17       1.0  0.03998  0.36236  0.86134  1.0000
  C   C18       1.0  0.54001  0.63763  0.63866  1.0000
  C   C19       1.0  0.96003  0.63764  0.13867  1.0000
  C   C20       1.0  0.45999  0.36236  0.36134  1.0000
  C   C21       1.0  0.92648  0.47836  0.88846  1.0000
  C   C22       1.0  0.42651  0.52163  0.61154  1.0000
  C   C23       1.0  0.07353  0.52165  0.11154  1.0000
  C   C24       1.0  0.57350  0.47836  0.38846  1.0000
  C   C25       1.0  0.83504  0.84835  0.93414  1.0000
  C   C26       1.0  0.33505  0.15166  0.56586  1.0000
  C   C27       1.0  0.16495  0.15166  0.06586  1.0000
  C   C28       1.0  0.66495  0.84834  0.43414  1.0000
  C   C29       1.0  0.72266  0.91275  0.85635  1.0000
  C   C30       1.0  0.22267  0.08725  0.64364  1.0000
  C   C31       1.0  0.27732  0.08726  0.14365  1.0000
  C   C32       1.0  0.77732  0.91275  0.35636  1.0000
  C   C33       1.0  0.65824  0.05946  0.88860  1.0000
  C   C34       1.0  0.15826  0.94054  0.61138  1.0000
  C   C35       1.0  0.34174  0.94054  0.11139  1.0000
  C   C36       1.0  0.84174  0.05946  0.38862  1.0000
  N   N1        1.0  0.84826  0.69788  0.91753  1.0000
  N   N2        1.0  0.34828  0.30212  0.58247  1.0000
  N   N3        1.0  0.15174  0.30213  0.08247  1.0000
  N   N4        1.0  0.65173  0.69788  0.41753  1.0000
  N   N5        1.0  0.69998  0.61848  0.94039  1.0000
  N   N6        1.0  0.20000  0.38153  0.55961  1.0000
  N   N7        1.0  0.30002  0.38153  0.05961  1.0000
  N   N8        1.0  0.80001  0.61847  0.44039  1.0000
  N   N9        1.0  0.74397  0.48707  0.92289  1.0000
  N   N10       1.0  0.24400  0.51294  0.57712  1.0000
  N   N11       1.0  0.25604  0.51294  0.07711  1.0000
  N   N12       1.0  0.75600  0.48707  0.42289  1.0000
  O   O1        1.0  0.52740  0.11431  0.84296  1.0000
  O   O2        1.0  0.02742  0.88568  0.65701  1.0000
  O   O3        1.0  0.47258  0.88568  0.15703  1.0000
  O   O4        1.0  0.97258  0.11432  0.34299  1.0000
  O   O5        1.0  0.74168  0.11928  0.96164  1.0000
  O   O6        1.0  0.24169  0.88071  0.53835  1.0000
  O   O7        1.0  0.25830  0.88072  0.03834  1.0000
  O   O8        1.0  0.75831  0.11929  0.46166  1.0000
