data_image0
_chemical_formula_structural       Zn2H40C60N8Cl4O8
_chemical_formula_sum              "Zn2 H40 C60 N8 Cl4 O8"
_cell_length_a       8.50446
_cell_length_b       9.33202
_cell_length_c       18.3078
_cell_angle_alpha    94.5272
_cell_angle_beta     89.9861
_cell_angle_gamma    117.114

_space_group_name_H-M_alt    "P 1"
_space_group_IT_number       1

loop_
  _space_group_symop_operation_xyz
  'x, y, z'

loop_
  _atom_site_type_symbol
  _atom_site_label
  _atom_site_symmetry_multiplicity
  _atom_site_fract_x
  _atom_site_fract_y
  _atom_site_fract_z
  _atom_site_occupancy
  Zn  Zn1       1.0  0.10376  0.99984  0.75006  1.0000
  Zn  Zn2       1.0  0.89624  0.00016  0.24994  1.0000
  H   H1        1.0  0.78871  0.01791  0.96554  1.0000
  H   H2        1.0  0.77093  0.98254  0.53450  1.0000
  H   H3        1.0  0.21129  0.98209  0.03446  1.0000
  H   H4        1.0  0.22907  0.01746  0.46550  1.0000
  H   H5        1.0  0.85464  0.72753  0.62473  1.0000
  H   H6        1.0  0.12709  0.27249  0.87536  1.0000
  H   H7        1.0  0.14536  0.27247  0.37527  1.0000
  H   H8        1.0  0.87290  0.72751  0.12464  1.0000
  H   H9        1.0  0.89300  0.87900  0.89496  1.0000
  H   H10       1.0  0.01465  0.12070  0.60514  1.0000
  H   H11       1.0  0.10699  0.12100  0.10504  1.0000
  H   H12       1.0  0.98535  0.87929  0.39486  1.0000
  H   H13       1.0  0.67769  0.68836  0.97538  1.0000
  H   H14       1.0  0.98974  0.31114  0.52465  1.0000
  H   H15       1.0  0.32231  0.31164  0.02462  1.0000
  H   H16       1.0  0.01026  0.68886  0.47536  1.0000
  H   H17       1.0  0.33281  0.65874  0.49627  1.0000
  H   H18       1.0  0.67397  0.34166  0.00378  1.0000
  H   H19       1.0  0.66719  0.34126  0.50373  1.0000
  H   H20       1.0  0.32604  0.65835  0.99622  1.0000
  H   H21       1.0  0.45680  0.32948  0.66404  1.0000
  H   H22       1.0  0.12724  0.67039  0.83594  1.0000
  H   H23       1.0  0.54320  0.67052  0.33596  1.0000
  H   H24       1.0  0.87277  0.32962  0.16406  1.0000
  H   H25       1.0  0.66094  0.34937  0.63162  1.0000
  H   H26       1.0  0.31157  0.65070  0.86834  1.0000
  H   H27       1.0  0.33906  0.65062  0.36838  1.0000
  H   H28       1.0  0.68844  0.34930  0.13166  1.0000
  H   H29       1.0  0.43699  0.32498  0.79223  1.0000
  H   H30       1.0  0.11161  0.67453  0.70773  1.0000
  H   H31       1.0  0.56301  0.67501  0.20777  1.0000
  H   H32       1.0  0.88839  0.32547  0.29227  1.0000
  H   H33       1.0  0.45157  0.41398  0.92481  1.0000
  H   H34       1.0  0.03731  0.58532  0.57518  1.0000
  H   H35       1.0  0.54843  0.58602  0.07519  1.0000
  H   H36       1.0  0.96269  0.41468  0.42482  1.0000
  H   H37       1.0  0.40601  0.59080  0.61542  1.0000
  H   H38       1.0  0.81522  0.40960  0.88461  1.0000
  H   H39       1.0  0.59399  0.40920  0.38458  1.0000
  H   H40       1.0  0.18479  0.59041  0.11539  1.0000
  C   C1        1.0  0.66107  0.00933  0.98048  1.0000
  C   C2        1.0  0.65187  0.99104  0.51954  1.0000
  C   C3        1.0  0.33893  0.99067  0.01952  1.0000
  C   C4        1.0  0.34813  0.00896  0.48046  1.0000
  C   C5        1.0  0.38659  0.01261  0.94650  1.0000
  C   C6        1.0  0.37381  0.98711  0.55349  1.0000
  C   C7        1.0  0.61341  0.98739  0.05350  1.0000
  C   C8        1.0  0.62619  0.01289  0.44651  1.0000
  C   C9        1.0  0.55102  0.02156  0.92754  1.0000
  C   C10       1.0  0.52946  0.97857  0.57247  1.0000
  C   C11       1.0  0.44898  0.97844  0.07246  1.0000
  C   C12       1.0  0.47054  0.02143  0.42753  1.0000
  C   C13       1.0  0.77952  0.71259  0.79770  1.0000
  C   C14       1.0  0.06735  0.28723  0.70235  1.0000
  C   C15       1.0  0.22048  0.28741  0.20230  1.0000
  C   C16       1.0  0.93266  0.71277  0.29765  1.0000
  C   C17       1.0  0.25873  0.03121  0.89544  1.0000
  C   C18       1.0  0.22723  0.96835  0.60453  1.0000
  C   C19       1.0  0.74127  0.96879  0.10456  1.0000
  C   C20       1.0  0.77276  0.03165  0.39547  1.0000
  C   C21       1.0  0.80672  0.69593  0.67910  1.0000
  C   C22       1.0  0.11087  0.30399  0.82097  1.0000
  C   C23       1.0  0.19328  0.30407  0.32090  1.0000
  C   C24       1.0  0.88913  0.69601  0.17903  1.0000
  C   C25       1.0  0.65016  0.55768  0.76903  1.0000
  C   C26       1.0  0.09258  0.44206  0.73098  1.0000
  C   C27       1.0  0.34984  0.44232  0.23097  1.0000
  C   C28       1.0  0.90742  0.55794  0.26902  1.0000
  C   C29       1.0  0.79192  0.76074  0.87256  1.0000
  C   C30       1.0  0.03178  0.23899  0.62750  1.0000
  C   C31       1.0  0.20808  0.23926  0.12744  1.0000
  C   C32       1.0  0.96822  0.76101  0.37251  1.0000
  C   C33       1.0  0.54084  0.46049  0.56769  1.0000
  C   C34       1.0  0.08040  0.53948  0.93231  1.0000
  C   C35       1.0  0.45916  0.53951  0.43231  1.0000
  C   C36       1.0  0.91961  0.46053  0.06769  1.0000
  C   C37       1.0  0.67018  0.65180  0.91696  1.0000
  C   C38       1.0  0.01873  0.34774  0.58306  1.0000
  C   C39       1.0  0.32982  0.34820  0.08304  1.0000
  C   C40       1.0  0.98127  0.65225  0.41694  1.0000
  C   C41       1.0  0.40712  0.58968  0.49787  1.0000
  C   C42       1.0  0.81736  0.41058  0.00216  1.0000
  C   C43       1.0  0.59288  0.41032  0.50213  1.0000
  C   C44       1.0  0.18265  0.58942  0.99784  1.0000
  C   C45       1.0  0.57969  0.41291  0.63982  1.0000
  C   C46       1.0  0.16677  0.58702  0.86016  1.0000
  C   C47       1.0  0.42031  0.58709  0.36018  1.0000
  C   C48       1.0  0.83324  0.41298  0.13984  1.0000
  C   C49       1.0  0.53195  0.44612  0.81386  1.0000
  C   C50       1.0  0.08558  0.55340  0.68612  1.0000
  C   C51       1.0  0.46804  0.55388  0.18614  1.0000
  C   C52       1.0  0.91442  0.44659  0.31388  1.0000
  C   C53       1.0  0.54273  0.49732  0.88819  1.0000
  C   C54       1.0  0.04529  0.50208  0.61180  1.0000
  C   C55       1.0  0.45727  0.50268  0.11181  1.0000
  C   C56       1.0  0.95471  0.49792  0.38820  1.0000
  C   C57       1.0  0.44816  0.55120  0.56493  1.0000
  C   C58       1.0  0.89695  0.44902  0.93509  1.0000
  C   C59       1.0  0.55184  0.44880  0.43507  1.0000
  C   C60       1.0  0.10305  0.55099  0.06491  1.0000
  N   N1        1.0  0.87593  0.79511  0.73975  1.0000
  N   N2        1.0  0.08112  0.20479  0.76033  1.0000
  N   N3        1.0  0.12407  0.20489  0.26025  1.0000
  N   N4        1.0  0.91888  0.79521  0.23967  1.0000
  N   N5        1.0  0.67193  0.55242  0.69369  1.0000
  N   N6        1.0  0.11952  0.44743  0.80633  1.0000
  N   N7        1.0  0.32807  0.44758  0.30631  1.0000
  N   N8        1.0  0.88048  0.55257  0.19367  1.0000
  Cl  Cl1       1.0  0.62769  0.05443  0.83981  1.0000
  Cl  Cl2       1.0  0.57324  0.94574  0.66020  1.0000
  Cl  Cl3       1.0  0.37231  0.94557  0.16019  1.0000
  Cl  Cl4       1.0  0.42676  0.05426  0.33980  1.0000
  O   O1        1.0  0.24123  0.96632  0.82907  1.0000
  O   O2        1.0  0.27446  0.03323  0.67090  1.0000
  O   O3        1.0  0.75877  0.03368  0.17093  1.0000
  O   O4        1.0  0.72554  0.96677  0.32910  1.0000
  O   O5        1.0  0.17734  0.10553  0.92135  1.0000
  O   O6        1.0  0.07155  0.89403  0.57860  1.0000
  O   O7        1.0  0.82266  0.89446  0.07865  1.0000
  O   O8        1.0  0.92844  0.10596  0.42140  1.0000
