data_image0
_chemical_formula_structural       Cd2H40C36N12O12
_chemical_formula_sum              "Cd2 H40 C36 N12 O12"
_cell_length_a       8.98014
_cell_length_b       9.21953
_cell_length_c       12.8205
_cell_angle_alpha    90
_cell_angle_beta     90.0001
_cell_angle_gamma    107.088

_space_group_name_H-M_alt    "P 1"
_space_group_IT_number       1

loop_
  _space_group_symop_operation_xyz
  'x, y, z'

loop_
  _atom_site_type_symbol
  _atom_site_label
  _atom_site_symmetry_multiplicity
  _atom_site_fract_x
  _atom_site_fract_y
  _atom_site_fract_z
  _atom_site_occupancy
  Cd  Cd1       1.0  1.00000  0.00000  0.00000  1.0000
  Cd  Cd2       1.0  0.50000  0.00000  0.50000  1.0000
  H   H1        1.0  0.37100  0.44947  0.16304  1.0000
  H   H2        1.0  0.12900  0.55052  0.66304  1.0000
  H   H3        1.0  0.62900  0.55052  0.83696  1.0000
  H   H4        1.0  0.87100  0.44948  0.33696  1.0000
  H   H5        1.0  0.53227  0.27448  0.17837  1.0000
  H   H6        1.0  0.96774  0.72553  0.67837  1.0000
  H   H7        1.0  0.46773  0.72552  0.82163  1.0000
  H   H8        1.0  0.03227  0.27448  0.32163  1.0000
  H   H9        1.0  0.81331  0.35413  0.13382  1.0000
  H   H10       1.0  0.68669  0.64587  0.63382  1.0000
  H   H11       1.0  0.18669  0.64587  0.86618  1.0000
  H   H12       1.0  0.31331  0.35413  0.36618  1.0000
  H   H13       1.0  0.94440  0.61753  0.06816  1.0000
  H   H14       1.0  0.55559  0.38247  0.56816  1.0000
  H   H15       1.0  0.05560  0.38247  0.93185  1.0000
  H   H16       1.0  0.44441  0.61753  0.43184  1.0000
  H   H17       1.0  0.28502  0.67216  0.11711  1.0000
  H   H18       1.0  0.21498  0.32783  0.61711  1.0000
  H   H19       1.0  0.71498  0.32784  0.88289  1.0000
  H   H20       1.0  0.78502  0.67216  0.38289  1.0000
  H   H21       1.0  0.33388  0.81769  0.02181  1.0000
  H   H22       1.0  0.16612  0.18231  0.52181  1.0000
  H   H23       1.0  0.66612  0.18231  0.97819  1.0000
  H   H24       1.0  0.83388  0.81769  0.47819  1.0000
  H   H25       1.0  0.48085  0.99817  0.16645  1.0000
  H   H26       1.0  0.01914  0.00182  0.66645  1.0000
  H   H27       1.0  0.51914  0.00183  0.83355  1.0000
  H   H28       1.0  0.98086  0.99818  0.33355  1.0000
  H   H29       1.0  0.38788  0.86040  0.25811  1.0000
  H   H30       1.0  0.11211  0.13959  0.75812  1.0000
  H   H31       1.0  0.61212  0.13960  0.74189  1.0000
  H   H32       1.0  0.88788  0.86040  0.24189  1.0000
  H   H33       1.0  0.89487  0.13309  0.18687  1.0000
  H   H34       1.0  0.60513  0.86691  0.68687  1.0000
  H   H35       1.0  0.10513  0.86691  0.81313  1.0000
  H   H36       1.0  0.39487  0.13309  0.31313  1.0000
  H   H37       1.0  0.07601  0.14634  0.17898  1.0000
  H   H38       1.0  0.42399  0.85366  0.67898  1.0000
  H   H39       1.0  0.92399  0.85366  0.82102  1.0000
  H   H40       1.0  0.57601  0.14634  0.32102  1.0000
  C   C1        1.0  0.56918  0.63278  0.10574  1.0000
  C   C2        1.0  0.93082  0.36722  0.60574  1.0000
  C   C3        1.0  0.43082  0.36722  0.89426  1.0000
  C   C4        1.0  0.06918  0.63278  0.39426  1.0000
  C   C5        1.0  0.49422  0.48649  0.14280  1.0000
  C   C6        1.0  0.00578  0.51351  0.64280  1.0000
  C   C7        1.0  0.50578  0.51351  0.85720  1.0000
  C   C8        1.0  0.99422  0.48649  0.35720  1.0000
  C   C9        1.0  0.58624  0.38963  0.15109  1.0000
  C   C10       1.0  0.91376  0.61037  0.65109  1.0000
  C   C11       1.0  0.41376  0.61037  0.84891  1.0000
  C   C12       1.0  0.08624  0.38963  0.34891  1.0000
  C   C13       1.0  0.74688  0.43518  0.12496  1.0000
  C   C14       1.0  0.75313  0.56482  0.62496  1.0000
  C   C15       1.0  0.25313  0.56482  0.87504  1.0000
  C   C16       1.0  0.24687  0.43518  0.37504  1.0000
  C   C17       1.0  0.82105  0.57982  0.08809  1.0000
  C   C18       1.0  0.67895  0.42018  0.58809  1.0000
  C   C19       1.0  0.17895  0.42018  0.91191  1.0000
  C   C20       1.0  0.32105  0.57982  0.41191  1.0000
  C   C21       1.0  0.72883  0.67852  0.07807  1.0000
  C   C22       1.0  0.77117  0.32149  0.57807  1.0000
  C   C23       1.0  0.27117  0.32148  0.92193  1.0000
  C   C24       1.0  0.22883  0.67852  0.42193  1.0000
  C   C25       1.0  0.36848  0.78151  0.09712  1.0000
  C   C26       1.0  0.13152  0.21849  0.59712  1.0000
  C   C27       1.0  0.63152  0.21849  0.90288  1.0000
  C   C28       1.0  0.86848  0.78151  0.40288  1.0000
  C   C29       1.0  0.37567  0.90264  0.17936  1.0000
  C   C30       1.0  0.12433  0.09735  0.67936  1.0000
  C   C31       1.0  0.62433  0.09736  0.82064  1.0000
  C   C32       1.0  0.87567  0.90264  0.32064  1.0000
  C   C33       1.0  0.23454  0.96149  0.17423  1.0000
  C   C34       1.0  0.26546  0.03851  0.67423  1.0000
  C   C35       1.0  0.76546  0.03852  0.82577  1.0000
  C   C36       1.0  0.73454  0.96149  0.32577  1.0000
  N   N1        1.0  0.52065  0.75711  0.08400  1.0000
  N   N2        1.0  0.97935  0.24288  0.58400  1.0000
  N   N3        1.0  0.47935  0.24289  0.91600  1.0000
  N   N4        1.0  0.02065  0.75712  0.41600  1.0000
  N   N5        1.0  0.63840  0.87083  0.04594  1.0000
  N   N6        1.0  0.86160  0.12917  0.54594  1.0000
  N   N7        1.0  0.36160  0.12917  0.95406  1.0000
  N   N8        1.0  0.13840  0.87083  0.45406  1.0000
  N   N9        1.0  0.76351  0.82532  0.04229  1.0000
  N   N10       1.0  0.73649  0.17468  0.54229  1.0000
  N   N11       1.0  0.23649  0.17468  0.95771  1.0000
  N   N12       1.0  0.26351  0.82532  0.45771  1.0000
  O   O1        1.0  0.12082  0.88555  0.11847  1.0000
  O   O2        1.0  0.37918  0.11445  0.61847  1.0000
  O   O3        1.0  0.87918  0.11446  0.88153  1.0000
  O   O4        1.0  0.62082  0.88555  0.38153  1.0000
  O   O5        1.0  0.23924  0.08252  0.22416  1.0000
  O   O6        1.0  0.26076  0.91748  0.72416  1.0000
  O   O7        1.0  0.76076  0.91748  0.77584  1.0000
  O   O8        1.0  0.73924  0.08252  0.27585  1.0000
  O   O9        1.0  0.98793  0.16627  0.13992  1.0000
  O   O10       1.0  0.51207  0.83373  0.63992  1.0000
  O   O11       1.0  0.01207  0.83373  0.86008  1.0000
  O   O12       1.0  0.48793  0.16627  0.36008  1.0000
