data_image0
_chemical_formula_structural       Hg4H32C36N12Cl4O8
_chemical_formula_sum              "Hg4 H32 C36 N12 Cl4 O8"
_cell_length_a       7.09466
_cell_length_b       10.0833
_cell_length_c       14.9832
_cell_angle_alpha    89.9999
_cell_angle_beta     90
_cell_angle_gamma    90

_space_group_name_H-M_alt    "P 1"
_space_group_IT_number       1

loop_
  _space_group_symop_operation_xyz
  'x, y, z'

loop_
  _atom_site_type_symbol
  _atom_site_label
  _atom_site_symmetry_multiplicity
  _atom_site_fract_x
  _atom_site_fract_y
  _atom_site_fract_z
  _atom_site_occupancy
  Hg  Hg1       1.0  0.44647  0.75361  0.05851  1.0000
  Hg  Hg2       1.0  0.05353  0.24639  0.55851  1.0000
  Hg  Hg3       1.0  0.94647  0.74640  0.94149  1.0000
  Hg  Hg4       1.0  0.55353  0.25361  0.44149  1.0000
  H   H1        1.0  0.59471  0.84349  0.62502  1.0000
  H   H2        1.0  0.90529  0.15651  0.12502  1.0000
  H   H3        1.0  0.09470  0.65651  0.37498  1.0000
  H   H4        1.0  0.40529  0.34349  0.87498  1.0000
  H   H5        1.0  0.57532  0.94073  0.47241  1.0000
  H   H6        1.0  0.92468  0.05927  0.97241  1.0000
  H   H7        1.0  0.07532  0.55926  0.52759  1.0000
  H   H8        1.0  0.42468  0.44073  0.02759  1.0000
  H   H9        1.0  0.54813  0.79896  0.33875  1.0000
  H   H10       1.0  0.95187  0.20104  0.83875  1.0000
  H   H11       1.0  0.04814  0.70103  0.66125  1.0000
  H   H12       1.0  0.45187  0.29896  0.16125  1.0000
  H   H13       1.0  0.53811  0.55255  0.35121  1.0000
  H   H14       1.0  0.96189  0.44745  0.85121  1.0000
  H   H15       1.0  0.03811  0.94745  0.64879  1.0000
  H   H16       1.0  0.46189  0.05255  0.14879  1.0000
  H   H17       1.0  0.70287  0.66622  0.74523  1.0000
  H   H18       1.0  0.79714  0.33378  0.24523  1.0000
  H   H19       1.0  0.20286  0.83378  0.25477  1.0000
  H   H20       1.0  0.29713  0.16622  0.75477  1.0000
  H   H21       1.0  0.67696  0.49438  0.76632  1.0000
  H   H22       1.0  0.82304  0.50562  0.26632  1.0000
  H   H23       1.0  0.17696  0.00562  0.23368  1.0000
  H   H24       1.0  0.32304  0.99438  0.73368  1.0000
  H   H25       1.0  0.31883  0.52598  0.76828  1.0000
  H   H26       1.0  0.18117  0.47402  0.26828  1.0000
  H   H27       1.0  0.81883  0.97402  0.23172  1.0000
  H   H28       1.0  0.68117  0.02598  0.73172  1.0000
  H   H29       1.0  0.35099  0.69754  0.75389  1.0000
  H   H30       1.0  0.14901  0.30246  0.25389  1.0000
  H   H31       1.0  0.85099  0.80246  0.24611  1.0000
  H   H32       1.0  0.64901  0.19754  0.74611  1.0000
  C   C1        1.0  0.57760  0.64219  0.57225  1.0000
  C   C2        1.0  0.92240  0.35780  0.07225  1.0000
  C   C3        1.0  0.07760  0.85780  0.42775  1.0000
  C   C4        1.0  0.42240  0.14220  0.92775  1.0000
  C   C5        1.0  0.58178  0.78077  0.56627  1.0000
  C   C6        1.0  0.91822  0.21923  0.06627  1.0000
  C   C7        1.0  0.08178  0.71923  0.43373  1.0000
  C   C8        1.0  0.41822  0.28077  0.93373  1.0000
  C   C9        1.0  0.57163  0.83358  0.48096  1.0000
  C   C10       1.0  0.92837  0.16642  0.98096  1.0000
  C   C11       1.0  0.07163  0.66642  0.51904  1.0000
  C   C12       1.0  0.42837  0.33358  0.01904  1.0000
  C   C13       1.0  0.55700  0.75209  0.40418  1.0000
  C   C14       1.0  0.94300  0.24791  0.90418  1.0000
  C   C15       1.0  0.05699  0.74791  0.59582  1.0000
  C   C16       1.0  0.44300  0.25209  0.09582  1.0000
  C   C17       1.0  0.55176  0.61508  0.41006  1.0000
  C   C18       1.0  0.94824  0.38492  0.91006  1.0000
  C   C19       1.0  0.05175  0.88491  0.58994  1.0000
  C   C20       1.0  0.44824  0.11509  0.08994  1.0000
  C   C21       1.0  0.56216  0.56094  0.49595  1.0000
  C   C22       1.0  0.93784  0.43906  0.99596  1.0000
  C   C23       1.0  0.06216  0.93905  0.50404  1.0000
  C   C24       1.0  0.43784  0.06094  0.00404  1.0000
  C   C25       1.0  0.60757  0.58128  0.73721  1.0000
  C   C26       1.0  0.89243  0.41872  0.23721  1.0000
  C   C27       1.0  0.10757  0.91872  0.26279  1.0000
  C   C28       1.0  0.39243  0.08128  0.76279  1.0000
  C   C29       1.0  0.41754  0.60778  0.78142  1.0000
  C   C30       1.0  0.08247  0.39222  0.28142  1.0000
  C   C31       1.0  0.91753  0.89222  0.21858  1.0000
  C   C32       1.0  0.58247  0.10778  0.71858  1.0000
  C   C33       1.0  0.43463  0.62988  0.88144  1.0000
  C   C34       1.0  0.06538  0.37012  0.38144  1.0000
  C   C35       1.0  0.93463  0.87012  0.11856  1.0000
  C   C36       1.0  0.56537  0.12988  0.61856  1.0000
  N   N1        1.0  0.58864  0.55427  0.64202  1.0000
  N   N2        1.0  0.91136  0.44573  0.14202  1.0000
  N   N3        1.0  0.08864  0.94573  0.35798  1.0000
  N   N4        1.0  0.41136  0.05427  0.85798  1.0000
  N   N5        1.0  0.57882  0.42875  0.61313  1.0000
  N   N6        1.0  0.92118  0.57125  0.11313  1.0000
  N   N7        1.0  0.07882  0.07124  0.38687  1.0000
  N   N8        1.0  0.42118  0.92876  0.88687  1.0000
  N   N9        1.0  0.56305  0.43232  0.52600  1.0000
  N   N10       1.0  0.93695  0.56769  0.02600  1.0000
  N   N11       1.0  0.06305  0.06768  0.47400  1.0000
  N   N12       1.0  0.43695  0.93232  0.97400  1.0000
  Cl  Cl1       1.0  0.44235  0.61411  0.18472  1.0000
  Cl  Cl2       1.0  0.05765  0.38589  0.68472  1.0000
  Cl  Cl3       1.0  0.94235  0.88589  0.81528  1.0000
  Cl  Cl4       1.0  0.55765  0.11411  0.31528  1.0000
  O   O1        1.0  0.59695  0.63926  0.91648  1.0000
  O   O2        1.0  0.90305  0.36074  0.41648  1.0000
  O   O3        1.0  0.09695  0.86075  0.08352  1.0000
  O   O4        1.0  0.40305  0.13926  0.58351  1.0000
  O   O5        1.0  0.28253  0.63889  0.92645  1.0000
  O   O6        1.0  0.21747  0.36111  0.42645  1.0000
  O   O7        1.0  0.78253  0.86111  0.07355  1.0000
  O   O8        1.0  0.71747  0.13889  0.57355  1.0000
