data_image0
_chemical_formula_structural       Zn2H56C68N8Cl4O8
_chemical_formula_sum              "Zn2 H56 C68 N8 Cl4 O8"
_cell_length_a       8.75868
_cell_length_b       11.6303
_cell_length_c       15.3544
_cell_angle_alpha    79.3488
_cell_angle_beta     89.6615
_cell_angle_gamma    76.4656

_space_group_name_H-M_alt    "P 1"
_space_group_IT_number       1

loop_
  _space_group_symop_operation_xyz
  'x, y, z'

loop_
  _atom_site_type_symbol
  _atom_site_label
  _atom_site_symmetry_multiplicity
  _atom_site_fract_x
  _atom_site_fract_y
  _atom_site_fract_z
  _atom_site_occupancy
  Zn  Zn1       1.0  0.40281  0.64200  0.73746  1.0000
  Zn  Zn2       1.0  0.59720  0.35800  0.26254  1.0000
  H   H1        1.0  0.44959  0.36724  0.75159  1.0000
  H   H2        1.0  0.55040  0.63276  0.24841  1.0000
  H   H3        1.0  0.74892  0.69416  0.70639  1.0000
  H   H4        1.0  0.25108  0.30584  0.29361  1.0000
  H   H5        1.0  0.67955  0.96821  0.73017  1.0000
  H   H6        1.0  0.32045  0.03179  0.26982  1.0000
  H   H7        1.0  0.82116  0.29101  0.50288  1.0000
  H   H8        1.0  0.17885  0.70899  0.49713  1.0000
  H   H9        1.0  0.96959  0.83308  0.61714  1.0000
  H   H10       1.0  0.03041  0.16692  0.38287  1.0000
  H   H11       1.0  0.59977  0.71264  0.55274  1.0000
  H   H12       1.0  0.40023  0.28736  0.44726  1.0000
  H   H13       1.0  0.99327  0.74309  0.76172  1.0000
  H   H14       1.0  0.00674  0.25691  0.23828  1.0000
  H   H15       1.0  0.00301  0.75724  0.87302  1.0000
  H   H16       1.0  0.99699  0.24277  0.12698  1.0000
  H   H17       1.0  0.31557  0.73218  0.92141  1.0000
  H   H18       1.0  0.68443  0.26783  0.07859  1.0000
  H   H19       1.0  0.62343  0.18120  0.58749  1.0000
  H   H20       1.0  0.37657  0.81880  0.41250  1.0000
  H   H21       1.0  0.52498  0.17815  0.68781  1.0000
  H   H22       1.0  0.47502  0.82186  0.31219  1.0000
  H   H23       1.0  0.81007  0.85654  0.98443  1.0000
  H   H24       1.0  0.18992  0.14347  0.01557  1.0000
  H   H25       1.0  0.15840  0.91258  0.82460  1.0000
  H   H26       1.0  0.84159  0.08742  0.17540  1.0000
  H   H27       1.0  0.74521  0.44584  0.98691  1.0000
  H   H28       1.0  0.25479  0.55416  0.01308  1.0000
  H   H29       1.0  0.90545  0.26375  0.69112  1.0000
  H   H30       1.0  0.09455  0.73626  0.30888  1.0000
  H   H31       1.0  0.71951  0.79035  0.42245  1.0000
  H   H32       1.0  0.28049  0.20965  0.57755  1.0000
  H   H33       1.0  0.77159  0.69811  0.34053  1.0000
  H   H34       1.0  0.22841  0.30189  0.65947  1.0000
  H   H35       1.0  0.91383  0.70309  0.41938  1.0000
  H   H36       1.0  0.08617  0.29691  0.58062  1.0000
  H   H37       1.0  0.02204  0.49736  0.38844  1.0000
  H   H38       1.0  0.97796  0.50264  0.61156  1.0000
  H   H39       1.0  0.85879  0.50555  0.31881  1.0000
  H   H40       1.0  0.14121  0.49445  0.68119  1.0000
  H   H41       1.0  0.95899  0.36409  0.38190  1.0000
  H   H42       1.0  0.04101  0.63590  0.61810  1.0000
  H   H43       1.0  0.14623  0.12948  0.76804  1.0000
  H   H44       1.0  0.85376  0.87052  0.23197  1.0000
  H   H45       1.0  0.20455  0.79477  0.04923  1.0000
  H   H46       1.0  0.79545  0.20523  0.95077  1.0000
  H   H47       1.0  0.26844  0.91273  0.08607  1.0000
  H   H48       1.0  0.73156  0.08727  0.91393  1.0000
  H   H49       1.0  0.34196  0.76221  0.13946  1.0000
  H   H50       1.0  0.65804  0.23779  0.86054  1.0000
  H   H51       1.0  0.62267  0.81298  0.16946  1.0000
  H   H52       1.0  0.37733  0.18702  0.83054  1.0000
  H   H53       1.0  0.49286  0.95439  0.12480  1.0000
  H   H54       1.0  0.50714  0.04561  0.87520  1.0000
  H   H55       1.0  0.69764  0.93126  0.10798  1.0000
  H   H56       1.0  0.30236  0.06874  0.89202  1.0000
  C   C1        1.0  0.13405  0.92604  0.55248  1.0000
  C   C2        1.0  0.86596  0.07397  0.44753  1.0000
  C   C3        1.0  0.67367  0.40526  0.58272  1.0000
  C   C4        1.0  0.32633  0.59474  0.41728  1.0000
  C   C5        1.0  0.61395  0.52296  0.59859  1.0000
  C   C6        1.0  0.38605  0.47704  0.40141  1.0000
  C   C7        1.0  0.51986  0.39987  0.69791  1.0000
  C   C8        1.0  0.48013  0.60013  0.30209  1.0000
  C   C9        1.0  0.70061  0.71786  0.76773  1.0000
  C   C10       1.0  0.29939  0.28214  0.23227  1.0000
  C   C11       1.0  0.78285  0.00289  0.73874  1.0000
  C   C12       1.0  0.21715  0.99711  0.26125  1.0000
  C   C13       1.0  0.77356  0.38231  0.51372  1.0000
  C   C14       1.0  0.22644  0.61769  0.48628  1.0000
  C   C15       1.0  0.98305  0.90688  0.56533  1.0000
  C   C16       1.0  0.01696  0.09313  0.43468  1.0000
  C   C17       1.0  0.65021  0.62138  0.54247  1.0000
  C   C18       1.0  0.34979  0.37862  0.45753  1.0000
  C   C19       1.0  0.91929  0.92597  0.78128  1.0000
  C   C20       1.0  0.08070  0.07404  0.21872  1.0000
  C   C21       1.0  0.54468  0.74937  0.87656  1.0000
  C   C22       1.0  0.45532  0.25063  0.12344  1.0000
  C   C23       1.0  0.85109  0.97776  0.51522  1.0000
  C   C24       1.0  0.14891  0.02225  0.48478  1.0000
  C   C25       1.0  0.26766  0.84039  0.60998  1.0000
  C   C26       1.0  0.73235  0.15961  0.39002  1.0000
  C   C27       1.0  0.74796  0.59995  0.47213  1.0000
  C   C28       1.0  0.25205  0.40005  0.52787  1.0000
  C   C29       1.0  0.77691  0.12425  0.70480  1.0000
  C   C30       1.0  0.22308  0.87575  0.29520  1.0000
  C   C31       1.0  0.93138  0.79249  0.81115  1.0000
  C   C32       1.0  0.06862  0.20751  0.18885  1.0000
  C   C33       1.0  0.68298  0.78444  0.89464  1.0000
  C   C34       1.0  0.31702  0.21556  0.10536  1.0000
  C   C35       1.0  0.10554  0.49444  0.92931  1.0000
  C   C36       1.0  0.89446  0.50556  0.07069  1.0000
  C   C37       1.0  0.42152  0.76073  0.93501  1.0000
  C   C38       1.0  0.57847  0.23927  0.06499  1.0000
  C   C39       1.0  0.81149  0.48028  0.45825  1.0000
  C   C40       1.0  0.18851  0.51971  0.54175  1.0000
  C   C41       1.0  0.62853  0.20079  0.65483  1.0000
  C   C42       1.0  0.37147  0.79921  0.34516  1.0000
  C   C43       1.0  0.22334  0.48952  0.85685  1.0000
  C   C44       1.0  0.77666  0.51047  0.14315  1.0000
  C   C45       1.0  0.70253  0.83016  0.97053  1.0000
  C   C46       1.0  0.29747  0.16984  0.02947  1.0000
  C   C47       1.0  0.96053  0.46370  0.92342  1.0000
  C   C48       1.0  0.03947  0.53629  0.07657  1.0000
  C   C49       1.0  0.05083  0.97203  0.79185  1.0000
  C   C50       1.0  0.94916  0.02797  0.20815  1.0000
  C   C51       1.0  0.85762  0.46917  0.99300  1.0000
  C   C52       1.0  0.14239  0.53083  0.00699  1.0000
  C   C53       1.0  0.90843  0.16923  0.71587  1.0000
  C   C54       1.0  0.09157  0.83078  0.28413  1.0000
  C   C55       1.0  0.43861  0.80703  0.01101  1.0000
  C   C56       1.0  0.56139  0.19297  0.98899  1.0000
  C   C57       1.0  0.57965  0.84139  0.02910  1.0000
  C   C58       1.0  0.42035  0.15861  0.97089  1.0000
  C   C59       1.0  0.78902  0.70373  0.41041  1.0000
  C   C60       1.0  0.21098  0.29627  0.58959  1.0000
  C   C61       1.0  0.91864  0.46032  0.38304  1.0000
  C   C62       1.0  0.08136  0.53968  0.61696  1.0000
  C   C63       1.0  0.04458  0.09319  0.75951  1.0000
  C   C64       1.0  0.95542  0.90682  0.24050  1.0000
  C   C65       1.0  0.30670  0.82005  0.07420  1.0000
  C   C66       1.0  0.69330  0.17995  0.92580  1.0000
  C   C67       1.0  0.59847  0.88814  0.11228  1.0000
  C   C68       1.0  0.40153  0.11186  0.88772  1.0000
  N   N1        1.0  0.61050  0.32993  0.64657  1.0000
  N   N2        1.0  0.38949  0.67007  0.35342  1.0000
  N   N3        1.0  0.55996  0.70775  0.79661  1.0000
  N   N4        1.0  0.44004  0.29225  0.20339  1.0000
  N   N5        1.0  0.51856  0.51590  0.67187  1.0000
  N   N6        1.0  0.48143  0.48410  0.32813  1.0000
  N   N7        1.0  0.77974  0.76258  0.82437  1.0000
  N   N8        1.0  0.22026  0.23742  0.17563  1.0000
  Cl  Cl1       1.0  0.67531  0.94043  0.54207  1.0000
  Cl  Cl2       1.0  0.32470  0.05957  0.45793  1.0000
  Cl  Cl3       1.0  0.90036  0.42183  0.82897  1.0000
  Cl  Cl4       1.0  0.09964  0.57817  0.17102  1.0000
  O   O1        1.0  0.22436  0.76333  0.67204  1.0000
  O   O2        1.0  0.77564  0.23667  0.32796  1.0000
  O   O3        1.0  0.28211  0.58315  0.84019  1.0000
  O   O4        1.0  0.71790  0.41685  0.15980  1.0000
  O   O5        1.0  0.25465  0.39978  0.82062  1.0000
  O   O6        1.0  0.74535  0.60022  0.17937  1.0000
  O   O7        1.0  0.40723  0.84315  0.59607  1.0000
  O   O8        1.0  0.59278  0.15685  0.40393  1.0000
