data_image0
_chemical_formula_structural       Zn2H40C36N12O12
_chemical_formula_sum              "Zn2 H40 C36 N12 O12"
_cell_length_a       9.21828
_cell_length_b       8.83946
_cell_length_c       12.5302
_cell_angle_alpha    90.0003
_cell_angle_beta     89.9993
_cell_angle_gamma    108.917

_space_group_name_H-M_alt    "P 1"
_space_group_IT_number       1

loop_
  _space_group_symop_operation_xyz
  'x, y, z'

loop_
  _atom_site_type_symbol
  _atom_site_label
  _atom_site_symmetry_multiplicity
  _atom_site_fract_x
  _atom_site_fract_y
  _atom_site_fract_z
  _atom_site_occupancy
  Zn  Zn1       1.0  1.00000  0.50000  1.00000  1.0000
  Zn  Zn2       1.0  0.00000  1.00000  0.50000  1.0000
  H   H1        1.0  0.54487  0.14051  0.84074  1.0000
  H   H2        1.0  0.45514  0.35950  0.34074  1.0000
  H   H3        1.0  0.45514  0.85949  0.15926  1.0000
  H   H4        1.0  0.54486  0.64051  0.65925  1.0000
  H   H5        1.0  0.71892  0.98173  0.81355  1.0000
  H   H6        1.0  0.28110  0.51828  0.31355  1.0000
  H   H7        1.0  0.28109  0.01827  0.18646  1.0000
  H   H8        1.0  0.71891  0.48173  0.68644  1.0000
  H   H9        1.0  0.63741  0.69150  0.85347  1.0000
  H   H10       1.0  0.36260  0.80851  0.35347  1.0000
  H   H11       1.0  0.36258  0.30849  0.14655  1.0000
  H   H12       1.0  0.63741  0.19150  0.64654  1.0000
  H   H13       1.0  0.37252  0.54770  0.92319  1.0000
  H   H14       1.0  0.62749  0.95231  0.42319  1.0000
  H   H15       1.0  0.62747  0.45230  0.07682  1.0000
  H   H16       1.0  0.37252  0.04769  0.57681  1.0000
  H   H17       1.0  0.17401  0.16126  0.99050  1.0000
  H   H18       1.0  0.82599  0.33875  0.49050  1.0000
  H   H19       1.0  0.82598  0.83875  0.00950  1.0000
  H   H20       1.0  0.17400  0.66125  0.50950  1.0000
  H   H21       1.0  0.32665  0.22110  0.89724  1.0000
  H   H22       1.0  0.67335  0.27890  0.39724  1.0000
  H   H23       1.0  0.67334  0.77891  0.10275  1.0000
  H   H24       1.0  0.32665  0.72110  0.60275  1.0000
  H   H25       1.0  0.99880  0.01776  0.83651  1.0000
  H   H26       1.0  0.00122  0.48223  0.33651  1.0000
  H   H27       1.0  0.00120  0.98224  0.16348  1.0000
  H   H28       1.0  0.99879  0.51776  0.66349  1.0000
  H   H29       1.0  0.14340  0.11935  0.74702  1.0000
  H   H30       1.0  0.85662  0.38065  0.24702  1.0000
  H   H31       1.0  0.85660  0.88065  0.25297  1.0000
  H   H32       1.0  0.14339  0.61934  0.75298  1.0000
  H   H33       1.0  0.87756  0.60613  0.82228  1.0000
  H   H34       1.0  0.12243  0.89386  0.32227  1.0000
  H   H35       1.0  0.12244  0.39387  0.17772  1.0000
  H   H36       1.0  0.87756  0.10612  0.67772  1.0000
  H   H37       1.0  0.86252  0.42145  0.82605  1.0000
  H   H38       1.0  0.13748  0.07854  0.32605  1.0000
  H   H39       1.0  0.13748  0.57855  0.17395  1.0000
  H   H40       1.0  0.86252  0.92144  0.67395  1.0000
  C   C1        1.0  0.36021  0.93073  0.89634  1.0000
  C   C2        1.0  0.63979  0.56928  0.39634  1.0000
  C   C3        1.0  0.63978  0.06928  0.10366  1.0000
  C   C4        1.0  0.36021  0.43072  0.60365  1.0000
  C   C5        1.0  0.50719  0.01284  0.85750  1.0000
  C   C6        1.0  0.49281  0.48717  0.35749  1.0000
  C   C7        1.0  0.49281  0.98716  0.14251  1.0000
  C   C8        1.0  0.50719  0.51284  0.64250  1.0000
  C   C9        1.0  0.60348  0.92223  0.84307  1.0000
  C   C10       1.0  0.39653  0.57778  0.34307  1.0000
  C   C11       1.0  0.39652  0.07777  0.15693  1.0000
  C   C12       1.0  0.60348  0.42223  0.65692  1.0000
  C   C13       1.0  0.55644  0.75631  0.86631  1.0000
  C   C14       1.0  0.44357  0.74370  0.36632  1.0000
  C   C15       1.0  0.44355  0.24369  0.13370  1.0000
  C   C16       1.0  0.55644  0.25630  0.63368  1.0000
  C   C17       1.0  0.41116  0.67508  0.90542  1.0000
  C   C18       1.0  0.58884  0.82492  0.40542  1.0000
  C   C19       1.0  0.58882  0.32492  0.09458  1.0000
  C   C20       1.0  0.41116  0.17508  0.59457  1.0000
  C   C21       1.0  0.31229  0.76544  0.92042  1.0000
  C   C22       1.0  0.68772  0.73457  0.42042  1.0000
  C   C23       1.0  0.68770  0.23457  0.07958  1.0000
  C   C24       1.0  0.31229  0.26543  0.57957  1.0000
  C   C25       1.0  0.21449  0.13231  0.91335  1.0000
  C   C26       1.0  0.78551  0.36769  0.41335  1.0000
  C   C27       1.0  0.78550  0.86770  0.08665  1.0000
  C   C28       1.0  0.21449  0.63230  0.58665  1.0000
  C   C29       1.0  0.09712  0.12748  0.82685  1.0000
  C   C30       1.0  0.90288  0.37252  0.32685  1.0000
  C   C31       1.0  0.90287  0.87253  0.17315  1.0000
  C   C32       1.0  0.09712  0.62747  0.67315  1.0000
  C   C33       1.0  0.03803  0.26874  0.83258  1.0000
  C   C34       1.0  0.96197  0.23125  0.33258  1.0000
  C   C35       1.0  0.96197  0.73126  0.16742  1.0000
  C   C36       1.0  0.03803  0.76875  0.66742  1.0000
  N   N1        1.0  0.23678  0.97689  0.92272  1.0000
  N   N2        1.0  0.76323  0.52312  0.42271  1.0000
  N   N3        1.0  0.76322  0.02312  0.07729  1.0000
  N   N4        1.0  0.23678  0.47688  0.57728  1.0000
  N   N5        1.0  0.12113  0.85254  0.95951  1.0000
  N   N6        1.0  0.87888  0.64746  0.45950  1.0000
  N   N7        1.0  0.87887  0.14747  0.04050  1.0000
  N   N8        1.0  0.12112  0.35253  0.54049  1.0000
  N   N9        1.0  0.16433  0.72506  0.95847  1.0000
  N   N10       1.0  0.83568  0.77495  0.45847  1.0000
  N   N11       1.0  0.83566  0.27495  0.04153  1.0000
  N   N12       1.0  0.16433  0.22505  0.54153  1.0000
  O   O1        1.0  0.10788  0.38235  0.89538  1.0000
  O   O2        1.0  0.89212  0.11765  0.39538  1.0000
  O   O3        1.0  0.89211  0.61765  0.10462  1.0000
  O   O4        1.0  0.10789  0.88234  0.60463  1.0000
  O   O5        1.0  0.92140  0.26337  0.77587  1.0000
  O   O6        1.0  0.07860  0.23662  0.27587  1.0000
  O   O7        1.0  0.07860  0.73663  0.22413  1.0000
  O   O8        1.0  0.92140  0.76337  0.72414  1.0000
  O   O9        1.0  0.84592  0.50970  0.86921  1.0000
  O   O10       1.0  0.15408  0.99029  0.36921  1.0000
  O   O11       1.0  0.15408  0.49030  0.13079  1.0000
  O   O12       1.0  0.84591  0.00970  0.63079  1.0000
