data_image0
_chemical_formula_structural       CoH24C28N2O10
_chemical_formula_sum              "Co1 H24 C28 N2 O10"
_cell_length_a       7.25395
_cell_length_b       8.00137
_cell_length_c       10.6741
_cell_angle_alpha    89.6362
_cell_angle_beta     78.5176
_cell_angle_gamma    86.3205

_space_group_name_H-M_alt    "P 1"
_space_group_IT_number       1

loop_
  _space_group_symop_operation_xyz
  'x, y, z'

loop_
  _atom_site_type_symbol
  _atom_site_label
  _atom_site_symmetry_multiplicity
  _atom_site_fract_x
  _atom_site_fract_y
  _atom_site_fract_z
  _atom_site_occupancy
  Co  Co1       1.0  0.50000  0.00000  1.00000  1.0000
  H   H1        1.0  0.83155  0.21793  0.98182  1.0000
  H   H2        1.0  0.16843  0.78207  0.01817  1.0000
  H   H3        1.0  0.92610  0.41878  0.95328  1.0000
  H   H4        1.0  0.07388  0.58122  0.04672  1.0000
  H   H5        1.0  0.94234  0.00086  0.83720  1.0000
  H   H6        1.0  0.05766  0.99914  0.16280  1.0000
  H   H7        1.0  0.08014  0.91651  0.60852  1.0000
  H   H8        1.0  0.91988  0.08349  0.39147  1.0000
  H   H9        1.0  0.23418  0.12834  0.45868  1.0000
  H   H10       1.0  0.76584  0.87166  0.54132  1.0000
  H   H11       1.0  0.07962  0.49026  0.76905  1.0000
  H   H12       1.0  0.92037  0.50974  0.23095  1.0000
  H   H13       1.0  0.22023  0.33553  0.33731  1.0000
  H   H14       1.0  0.77977  0.66448  0.66269  1.0000
  H   H15       1.0  0.34336  0.56045  0.19289  1.0000
  H   H16       1.0  0.65664  0.43954  0.80711  1.0000
  H   H17       1.0  0.40902  0.85539  0.51449  1.0000
  H   H18       1.0  0.59100  0.14461  0.48550  1.0000
  H   H19       1.0  0.29282  0.63009  0.66053  1.0000
  H   H20       1.0  0.70719  0.36991  0.33947  1.0000
  H   H21       1.0  0.62587  0.74891  0.88417  1.0000
  H   H22       1.0  0.37413  0.25109  0.11583  1.0000
  H   H23       1.0  0.50331  0.86521  0.80268  1.0000
  H   H24       1.0  0.49668  0.13480  0.19731  1.0000
  C   C1        1.0  0.11760  0.22172  0.01347  1.0000
  C   C2        1.0  0.88239  0.77827  0.98652  1.0000
  C   C3        1.0  0.95892  0.28352  0.94331  1.0000
  C   C4        1.0  0.04107  0.71648  0.05669  1.0000
  C   C5        1.0  0.00975  0.08655  0.76603  1.0000
  C   C6        1.0  0.99025  0.91345  0.23396  1.0000
  C   C7        1.0  0.08366  0.04505  0.63985  1.0000
  C   C8        1.0  0.91635  0.95496  0.36014  1.0000
  C   C9        1.0  0.16581  0.16525  0.55592  1.0000
  C   C10       1.0  0.83420  0.83475  0.44408  1.0000
  C   C11       1.0  0.16661  0.33166  0.59772  1.0000
  C   C12       1.0  0.83340  0.66835  0.40229  1.0000
  C   C13       1.0  0.09048  0.36593  0.72630  1.0000
  C   C14       1.0  0.90952  0.63407  0.27370  1.0000
  C   C15       1.0  0.24177  0.46610  0.51118  1.0000
  C   C16       1.0  0.75824  0.53390  0.48883  1.0000
  C   C17       1.0  0.26217  0.44820  0.37798  1.0000
  C   C18       1.0  0.73783  0.55180  0.62202  1.0000
  C   C19       1.0  0.32980  0.57558  0.29569  1.0000
  C   C20       1.0  0.67021  0.42442  0.70431  1.0000
  C   C21       1.0  0.37652  0.72649  0.34407  1.0000
  C   C22       1.0  0.62349  0.27351  0.65592  1.0000
  C   C23       1.0  0.36369  0.74240  0.47638  1.0000
  C   C24       1.0  0.63632  0.25760  0.52362  1.0000
  C   C25       1.0  0.29653  0.61488  0.55862  1.0000
  C   C26       1.0  0.70348  0.38512  0.44139  1.0000
  C   C27       1.0  0.43093  0.87184  0.25863  1.0000
  C   C28       1.0  0.56907  0.12816  0.74137  1.0000
  N   N1        1.0  0.01778  0.24506  0.80669  1.0000
  N   N2        1.0  0.98221  0.75494  0.19331  1.0000
  O   O1        1.0  0.20499  0.08391  0.97519  1.0000
  O   O2        1.0  0.79499  0.91609  0.02482  1.0000
  O   O3        1.0  0.14255  0.31253  0.10523  1.0000
  O   O4        1.0  0.85744  0.68749  0.89477  1.0000
  O   O5        1.0  0.47196  0.00547  0.30784  1.0000
  O   O6        1.0  0.52804  0.99453  0.69216  1.0000
  O   O7        1.0  0.42469  0.85096  0.13990  1.0000
  O   O8        1.0  0.57530  0.14904  0.86010  1.0000
  O   O9        1.0  0.49725  0.80550  0.88850  1.0000
  O   O10       1.0  0.50275  0.19451  0.11150  1.0000
