data_image0
_chemical_formula_structural       Cd2H36C42N12O16
_chemical_formula_sum              "Cd2 H36 C42 N12 O16"
_cell_length_a       10.4381
_cell_length_b       11.2344
_cell_length_c       13.6142
_cell_angle_alpha    108.767
_cell_angle_beta     105.939
_cell_angle_gamma    100.294

_space_group_name_H-M_alt    "P 1"
_space_group_IT_number       1

loop_
  _space_group_symop_operation_xyz
  'x, y, z'

loop_
  _atom_site_type_symbol
  _atom_site_label
  _atom_site_symmetry_multiplicity
  _atom_site_fract_x
  _atom_site_fract_y
  _atom_site_fract_z
  _atom_site_occupancy
  Cd  Cd1       1.0  0.11358  0.28530  0.00325  1.0000
  Cd  Cd2       1.0  0.88642  0.71469  0.99676  1.0000
  H   H1        1.0  0.52251  0.62797  0.70723  1.0000
  H   H2        1.0  0.47751  0.37204  0.29276  1.0000
  H   H3        1.0  0.25453  0.22726  0.18945  1.0000
  H   H4        1.0  0.74552  0.77273  0.81055  1.0000
  H   H5        1.0  0.10048  0.14010  0.15340  1.0000
  H   H6        1.0  0.89957  0.85988  0.84661  1.0000
  H   H7        1.0  0.23451  0.37944  0.89251  1.0000
  H   H8        1.0  0.76547  0.62055  0.10749  1.0000
  H   H9        1.0  0.15681  0.49041  0.91062  1.0000
  H   H10       1.0  0.84318  0.50960  0.08939  1.0000
  H   H11       1.0  0.17928  0.94265  0.23993  1.0000
  H   H12       1.0  0.82072  0.05735  0.76007  1.0000
  H   H13       1.0  0.17794  0.95268  0.36597  1.0000
  H   H14       1.0  0.82205  0.04733  0.63403  1.0000
  H   H15       1.0  0.68939  0.32465  0.50794  1.0000
  H   H16       1.0  0.31062  0.67535  0.49205  1.0000
  H   H17       1.0  0.70438  0.54801  0.63895  1.0000
  H   H18       1.0  0.29565  0.45198  0.36102  1.0000
  H   H19       1.0  0.29155  0.42734  0.60699  1.0000
  H   H20       1.0  0.70849  0.57268  0.39301  1.0000
  H   H21       1.0  0.25976  0.19739  0.47826  1.0000
  H   H22       1.0  0.74026  0.80262  0.52174  1.0000
  H   H23       1.0  0.15291  0.74757  0.28495  1.0000
  H   H24       1.0  0.84706  0.25243  0.71505  1.0000
  H   H25       1.0  0.05609  0.51014  0.17100  1.0000
  H   H26       1.0  0.94388  0.48985  0.82900  1.0000
  H   H27       1.0  0.41703  0.48845  0.10362  1.0000
  H   H28       1.0  0.58294  0.51154  0.89638  1.0000
  H   H29       1.0  0.53461  0.72669  0.22051  1.0000
  H   H30       1.0  0.46535  0.27329  0.77948  1.0000
  H   H31       1.0  0.60901  0.30218  0.00391  1.0000
  H   H32       1.0  0.39099  0.69782  0.99611  1.0000
  H   H33       1.0  0.28791  0.93026  0.82921  1.0000
  H   H34       1.0  0.71209  0.06974  0.17080  1.0000
  H   H35       1.0  0.71519  0.94984  0.86700  1.0000
  H   H36       1.0  0.28482  0.05017  0.13302  1.0000
  C   C1        1.0  0.59962  0.34408  0.52870  1.0000
  C   C2        1.0  0.40040  0.65592  0.47127  1.0000
  C   C3        1.0  0.60771  0.46730  0.60044  1.0000
  C   C4        1.0  0.39232  0.53271  0.39954  1.0000
  C   C5        1.0  0.37659  0.39910  0.58267  1.0000
  C   C6        1.0  0.62344  0.60092  0.41732  1.0000
  C   C7        1.0  0.35942  0.27218  0.51111  1.0000
  C   C8        1.0  0.64061  0.72783  0.48888  1.0000
  C   C9        1.0  0.47398  0.24236  0.48445  1.0000
  C   C10       1.0  0.52604  0.75765  0.51553  1.0000
  C   C11       1.0  0.47624  0.11066  0.42244  1.0000
  C   C12       1.0  0.52376  0.88934  0.57755  1.0000
  C   C13       1.0  0.42467  0.89871  0.32696  1.0000
  C   C14       1.0  0.57531  0.10128  0.67305  1.0000
  C   C15       1.0  0.35384  0.75945  0.26188  1.0000
  C   C16       1.0  0.64614  0.24054  0.73812  1.0000
  C   C17       1.0  0.21731  0.69637  0.24766  1.0000
  C   C18       1.0  0.78267  0.30363  0.75235  1.0000
  C   C19       1.0  0.16134  0.56254  0.18370  1.0000
  C   C20       1.0  0.83863  0.43746  0.81631  1.0000
  C   C21       1.0  0.36427  0.54982  0.14768  1.0000
  C   C22       1.0  0.63570  0.45017  0.85232  1.0000
  C   C23       1.0  0.42858  0.68234  0.21193  1.0000
  C   C24       1.0  0.57139  0.31764  0.78807  1.0000
  C   C25       1.0  0.67817  0.13349  0.93938  1.0000
  C   C26       1.0  0.32183  0.86652  0.06063  1.0000
  C   C27       1.0  0.57851  0.19609  0.95925  1.0000
  C   C28       1.0  0.42148  0.80392  0.04075  1.0000
  C   C29       1.0  0.43793  0.12369  0.91858  1.0000
  C   C30       1.0  0.56207  0.87631  0.08141  1.0000
  C   C31       1.0  0.39716  0.98719  0.86102  1.0000
  C   C32       1.0  0.60284  0.01282  0.13898  1.0000
  C   C33       1.0  0.49699  0.92331  0.84208  1.0000
  C   C34       1.0  0.50301  0.07669  0.15793  1.0000
  C   C35       1.0  0.63652  0.99720  0.88139  1.0000
  C   C36       1.0  0.36348  0.00281  0.11862  1.0000
  C   C37       1.0  0.82549  0.21080  0.96971  1.0000
  C   C38       1.0  0.17451  0.78921  0.03030  1.0000
  C   C39       1.0  0.33381  0.19742  0.93393  1.0000
  C   C40       1.0  0.66619  0.80258  0.06607  1.0000
  C   C41       1.0  0.45293  0.77839  0.77616  1.0000
  C   C42       1.0  0.54708  0.22162  0.22385  1.0000
  N   N1        1.0  0.49875  0.49415  0.62771  1.0000
  N   N2        1.0  0.50128  0.50586  0.37226  1.0000
  N   N3        1.0  0.59532  0.07931  0.43008  1.0000
  N   N4        1.0  0.40467  0.92067  0.56991  1.0000
  N   N5        1.0  0.56321  0.94817  0.36985  1.0000
  N   N6        1.0  0.43678  0.05181  0.63014  1.0000
  N   N7        1.0  0.36598  0.99893  0.35819  1.0000
  N   N8        1.0  0.63401  0.00107  0.64181  1.0000
  N   N9        1.0  0.22557  0.99634  0.32471  1.0000
  N   N10       1.0  0.77442  0.00367  0.67529  1.0000
  N   N11       1.0  0.23211  0.49073  0.13304  1.0000
  N   N12       1.0  0.76786  0.50926  0.86697  1.0000
  O   O1        1.0  0.87298  0.33058  0.03377  1.0000
  O   O2        1.0  0.12702  0.66943  0.96625  1.0000
  O   O3        1.0  0.89933  0.14660  0.92273  1.0000
  O   O4        1.0  0.10067  0.85343  0.07729  1.0000
  O   O5        1.0  0.55979  0.73016  0.76539  1.0000
  O   O6        1.0  0.44020  0.26984  0.23460  1.0000
  O   O7        1.0  0.33102  0.70927  0.73388  1.0000
  O   O8        1.0  0.66899  0.29073  0.26615  1.0000
  O   O9        1.0  0.21961  0.13657  0.93702  1.0000
  O   O10       1.0  0.78038  0.86343  0.06298  1.0000
  O   O11       1.0  0.36621  0.31629  0.94373  1.0000
  O   O12       1.0  0.63376  0.68370  0.05626  1.0000
  O   O13       1.0  0.15579  0.22748  0.16750  1.0000
  O   O14       1.0  0.84425  0.77250  0.83250  1.0000
  O   O15       1.0  0.14100  0.39486  0.87618  1.0000
  O   O16       1.0  0.85899  0.60514  0.12383  1.0000
