data_image0
_chemical_formula_structural       Ag2P2H50C56N2O4F6
_chemical_formula_sum              "Ag2 P2 H50 C56 N2 O4 F6"
_cell_length_a       9.7696
_cell_length_b       10.6175
_cell_length_c       13.5396
_cell_angle_alpha    68.6772
_cell_angle_beta     74.2686
_cell_angle_gamma    81.7194

_space_group_name_H-M_alt    "P 1"
_space_group_IT_number       1

loop_
  _space_group_symop_operation_xyz
  'x, y, z'

loop_
  _atom_site_type_symbol
  _atom_site_label
  _atom_site_symmetry_multiplicity
  _atom_site_fract_x
  _atom_site_fract_y
  _atom_site_fract_z
  _atom_site_occupancy
  Ag  Ag1       1.0  0.25256  0.44920  0.15469  1.0000
  Ag  Ag2       1.0  0.74745  0.55080  0.84531  1.0000
  P   P1        1.0  0.14785  0.26564  0.30250  1.0000
  P   P2        1.0  0.85215  0.73436  0.69750  1.0000
  H   H1        1.0  0.33547  0.73343  0.98008  1.0000
  H   H2        1.0  0.66453  0.26657  0.01992  1.0000
  H   H3        1.0  0.24230  0.97033  0.91038  1.0000
  H   H4        1.0  0.75770  0.02967  0.08962  1.0000
  H   H5        1.0  0.84328  0.84476  0.14416  1.0000
  H   H6        1.0  0.15672  0.15524  0.85584  1.0000
  H   H7        1.0  0.95395  0.61514  0.20354  1.0000
  H   H8        1.0  0.04605  0.38486  0.79646  1.0000
  H   H9        1.0  0.15049  0.56419  0.44331  1.0000
  H   H10       1.0  0.84951  0.43581  0.55670  1.0000
  H   H11       1.0  0.05527  0.50117  0.37787  1.0000
  H   H12       1.0  0.94473  0.49883  0.62213  1.0000
  H   H13       1.0  0.23758  0.53558  0.31939  1.0000
  H   H14       1.0  0.76242  0.46442  0.68061  1.0000
  H   H15       1.0  0.25580  0.41862  0.57873  1.0000
  H   H16       1.0  0.74420  0.58138  0.42127  1.0000
  H   H17       1.0  0.33863  0.19014  0.68542  1.0000
  H   H18       1.0  0.66137  0.80986  0.31458  1.0000
  H   H19       1.0  0.32739  0.99105  0.62993  1.0000
  H   H20       1.0  0.67261  0.00895  0.37007  1.0000
  H   H21       1.0  0.23972  0.02596  0.46702  1.0000
  H   H22       1.0  0.76028  0.97404  0.53298  1.0000
  H   H23       1.0  0.99625  0.25259  0.12211  1.0000
  H   H24       1.0  0.00375  0.74741  0.87789  1.0000
  H   H25       1.0  0.03175  0.41635  0.10865  1.0000
  H   H26       1.0  0.96825  0.58364  0.89135  1.0000
  H   H27       1.0  0.86827  0.38865  0.08688  1.0000
  H   H28       1.0  0.13173  0.61135  0.91312  1.0000
  H   H29       1.0  0.66659  0.35718  0.22442  1.0000
  H   H30       1.0  0.33341  0.64282  0.77558  1.0000
  H   H31       1.0  0.53767  0.31017  0.41844  1.0000
  H   H32       1.0  0.46232  0.68983  0.58156  1.0000
  H   H33       1.0  0.67599  0.24050  0.56263  1.0000
  H   H34       1.0  0.32401  0.75950  0.43737  1.0000
  H   H35       1.0  0.93818  0.22000  0.51060  1.0000
  H   H36       1.0  0.06182  0.78000  0.48940  1.0000
  H   H37       1.0  0.56273  0.10269  0.20217  1.0000
  H   H38       1.0  0.43727  0.89731  0.79783  1.0000
  H   H39       1.0  0.45947  0.16506  0.30604  1.0000
  H   H40       1.0  0.54053  0.83494  0.69396  1.0000
  H   H41       1.0  0.45132  0.25302  0.16960  1.0000
  H   H42       1.0  0.54868  0.74698  0.83040  1.0000
  H   H43       1.0  0.48177  0.91595  0.19195  1.0000
  H   H44       1.0  0.51823  0.08405  0.80805  1.0000
  H   H45       1.0  0.29394  0.76764  0.21719  1.0000
  H   H46       1.0  0.70606  0.23236  0.78282  1.0000
  H   H47       1.0  0.03744  0.83326  0.28666  1.0000
  H   H48       1.0  0.96256  0.16673  0.71335  1.0000
  H   H49       1.0  0.97733  0.04754  0.32476  1.0000
  H   H50       1.0  0.02267  0.95246  0.67524  1.0000
  C   C1        1.0  0.43568  0.42440  0.90961  1.0000
  C   C2        1.0  0.56431  0.57560  0.09039  1.0000
  C   C3        1.0  0.36819  0.28997  0.92924  1.0000
  C   C4        1.0  0.63181  0.71003  0.07076  1.0000
  C   C5        1.0  0.22701  0.76360  0.01425  1.0000
  C   C6        1.0  0.77299  0.23640  0.98575  1.0000
  C   C7        1.0  0.17284  0.89577  0.97517  1.0000
  C   C8        1.0  0.82716  0.10423  0.02483  1.0000
  C   C9        1.0  0.03163  0.93061  0.01982  1.0000
  C   C10       1.0  0.96838  0.06939  0.98018  1.0000
  C   C11       1.0  0.95296  0.82689  0.10444  1.0000
  C   C12       1.0  0.04704  0.17311  0.89556  1.0000
  C   C13       1.0  0.01482  0.69710  0.13871  1.0000
  C   C14       1.0  0.98518  0.30290  0.86129  1.0000
  C   C15       1.0  0.19942  0.24201  0.42883  1.0000
  C   C16       1.0  0.80058  0.75799  0.57118  1.0000
  C   C17       1.0  0.20270  0.35462  0.46070  1.0000
  C   C18       1.0  0.79730  0.64538  0.53930  1.0000
  C   C19       1.0  0.15854  0.49615  0.39725  1.0000
  C   C20       1.0  0.84146  0.50385  0.60276  1.0000
  C   C21       1.0  0.25176  0.33209  0.55429  1.0000
  C   C22       1.0  0.74824  0.66790  0.44571  1.0000
  C   C23       1.0  0.29763  0.20318  0.61482  1.0000
  C   C24       1.0  0.70237  0.79682  0.38518  1.0000
  C   C25       1.0  0.29284  0.09263  0.58355  1.0000
  C   C26       1.0  0.70716  0.90737  0.41645  1.0000
  C   C27       1.0  0.24340  0.11251  0.49125  1.0000
  C   C28       1.0  0.75660  0.88749  0.50875  1.0000
  C   C29       1.0  0.95291  0.27867  0.33780  1.0000
  C   C30       1.0  0.04709  0.72133  0.66220  1.0000
  C   C31       1.0  0.87544  0.31779  0.25556  1.0000
  C   C32       1.0  0.12456  0.68221  0.74444  1.0000
  C   C33       1.0  0.94581  0.34550  0.13714  1.0000
  C   C34       1.0  0.05419  0.65450  0.86286  1.0000
  C   C35       1.0  0.72624  0.32776  0.28745  1.0000
  C   C36       1.0  0.27376  0.67223  0.71255  1.0000
  C   C37       1.0  0.65372  0.30106  0.39646  1.0000
  C   C38       1.0  0.34628  0.69894  0.60354  1.0000
  C   C39       1.0  0.73053  0.26279  0.47689  1.0000
  C   C40       1.0  0.26947  0.73721  0.52311  1.0000
  C   C41       1.0  0.87895  0.25163  0.44731  1.0000
  C   C42       1.0  0.12106  0.74837  0.55269  1.0000
  C   C43       1.0  0.19509  0.10366  0.28080  1.0000
  C   C44       1.0  0.80491  0.89634  0.71920  1.0000
  C   C45       1.0  0.33999  0.06615  0.24404  1.0000
  C   C46       1.0  0.66001  0.93385  0.75596  1.0000
  C   C47       1.0  0.45939  0.15055  0.22968  1.0000
  C   C48       1.0  0.54061  0.84945  0.77031  1.0000
  C   C49       1.0  0.37095  0.94514  0.22153  1.0000
  C   C50       1.0  0.62905  0.05486  0.77847  1.0000
  C   C51       1.0  0.26450  0.86128  0.23536  1.0000
  C   C52       1.0  0.73550  0.13872  0.76465  1.0000
  C   C53       1.0  0.12237  0.89820  0.27316  1.0000
  C   C54       1.0  0.87764  0.10180  0.72684  1.0000
  C   C55       1.0  0.08836  0.01909  0.29499  1.0000
  C   C56       1.0  0.91164  0.98091  0.70501  1.0000
  N   N1        1.0  0.14972  0.66494  0.09466  1.0000
  N   N2        1.0  0.85028  0.33507  0.90534  1.0000
  O   O1        1.0  0.36681  0.49969  0.96123  1.0000
  O   O2        1.0  0.63318  0.50031  0.03877  1.0000
  O   O3        1.0  0.55329  0.43995  0.84046  1.0000
  O   O4        1.0  0.44671  0.56005  0.15953  1.0000
  F   F1        1.0  0.23733  0.27264  0.99884  1.0000
  F   F2        1.0  0.76267  0.72736  0.00116  1.0000
  F   F3        1.0  0.45242  0.17880  0.97034  1.0000
  F   F4        1.0  0.54758  0.82120  0.02966  1.0000
  F   F5        1.0  0.35305  0.28561  0.83220  1.0000
  F   F6        1.0  0.64695  0.71438  0.16780  1.0000
