data_image0
_chemical_formula_structural       V2H8C16O10
_chemical_formula_sum              "V2 H8 C16 O10"
_cell_length_a       6.79845
_cell_length_b       11.1941
_cell_length_c       11.1947
_cell_angle_alpha    74.3494
_cell_angle_beta     72.7019
_cell_angle_gamma    72.7063

_space_group_name_H-M_alt    "P 1"
_space_group_IT_number       1

loop_
  _space_group_symop_operation_xyz
  'x, y, z'

loop_
  _atom_site_type_symbol
  _atom_site_label
  _atom_site_symmetry_multiplicity
  _atom_site_fract_x
  _atom_site_fract_y
  _atom_site_fract_z
  _atom_site_occupancy
  V   V1        1.0  0.53072  0.51225  0.98910  1.0000
  V   V2        1.0  0.03073  0.48917  0.01220  1.0000
  H   H1        1.0  0.33529  0.87447  0.05852  1.0000
  H   H2        1.0  0.15417  0.44527  0.62685  1.0000
  H   H3        1.0  0.27792  0.44029  0.39288  1.0000
  H   H4        1.0  0.20978  0.10741  0.06583  1.0000
  H   H5        1.0  0.65416  0.12686  0.94526  1.0000
  H   H6        1.0  0.83529  0.55856  0.37438  1.0000
  H   H7        1.0  0.70980  0.56586  0.60733  1.0000
  H   H8        1.0  0.77792  0.89288  0.94032  1.0000
  C   C1        1.0  0.18688  0.93068  0.03360  1.0000
  C   C2        1.0  0.30221  0.47066  0.57044  1.0000
  C   C3        1.0  0.37098  0.46755  0.44098  1.0000
  C   C4        1.0  0.11745  0.05966  0.03761  1.0000
  C   C5        1.0  0.80222  0.07044  0.97064  1.0000
  C   C6        1.0  0.68687  0.53362  0.43062  1.0000
  C   C7        1.0  0.61749  0.53763  0.55957  1.0000
  C   C8        1.0  0.87100  0.94097  0.96756  1.0000
  C   C9        1.0  0.06419  0.87064  0.99845  1.0000
  C   C10       1.0  0.14084  0.73273  0.99437  1.0000
  C   C11       1.0  0.42524  0.50555  0.63041  1.0000
  C   C12       1.0  0.35605  0.50729  0.76888  1.0000
  C   C13       1.0  0.56414  0.49846  0.37057  1.0000
  C   C14       1.0  0.64083  0.49441  0.23264  1.0000
  C   C15       1.0  0.92525  0.13049  0.00551  1.0000
  C   C16       1.0  0.85603  0.26895  0.00722  1.0000
  O   O1        1.0  0.33454  0.68134  0.99744  1.0000
  O   O2        1.0  0.16979  0.49233  0.82850  1.0000
  O   O3        1.0  0.50853  0.48894  0.17449  1.0000
  O   O4        1.0  0.98957  0.31975  0.02294  1.0000
  O   O5        1.0  0.66985  0.32854  0.99223  1.0000
  O   O6        1.0  0.83454  0.49749  0.18128  1.0000
  O   O7        1.0  0.48956  0.52301  0.81969  1.0000
  O   O8        1.0  0.00856  0.67452  0.98892  1.0000
  O   O9        1.0  0.75562  0.55738  0.94515  1.0000
  O   O10       1.0  0.25564  0.44523  0.05729  1.0000
