data_image0
_chemical_formula_structural       Mn8H40C32N8O32
_chemical_formula_sum              "Mn8 H40 C32 N8 O32"
_cell_length_a       8.31827
_cell_length_b       9.46898
_cell_length_c       15.0909
_cell_angle_alpha    89.9998
_cell_angle_beta     89.9998
_cell_angle_gamma    90.0001

_space_group_name_H-M_alt    "P 1"
_space_group_IT_number       1

loop_
  _space_group_symop_operation_xyz
  'x, y, z'

loop_
  _atom_site_type_symbol
  _atom_site_label
  _atom_site_symmetry_multiplicity
  _atom_site_fract_x
  _atom_site_fract_y
  _atom_site_fract_z
  _atom_site_occupancy
  Mn  Mn1       1.0  0.10089  0.44747  0.39917  1.0000
  Mn  Mn2       1.0  0.39912  0.55252  0.89916  1.0000
  Mn  Mn3       1.0  0.89912  0.94747  0.10084  1.0000
  Mn  Mn4       1.0  0.60088  0.05252  0.60084  1.0000
  Mn  Mn5       1.0  0.89911  0.55253  0.60083  1.0000
  Mn  Mn6       1.0  0.60088  0.44748  0.10084  1.0000
  Mn  Mn7       1.0  0.10088  0.05253  0.89916  1.0000
  Mn  Mn8       1.0  0.39912  0.94748  0.39916  1.0000
  H   H1        1.0  0.02735  0.19738  0.30546  1.0000
  H   H2        1.0  0.47265  0.80262  0.80546  1.0000
  H   H3        1.0  0.97265  0.69738  0.19454  1.0000
  H   H4        1.0  0.52735  0.30262  0.69454  1.0000
  H   H5        1.0  0.97265  0.80262  0.69454  1.0000
  H   H6        1.0  0.52735  0.19738  0.19454  1.0000
  H   H7        1.0  0.02735  0.30262  0.80546  1.0000
  H   H8        1.0  0.47265  0.69738  0.30546  1.0000
  H   H9        1.0  0.71145  0.31969  0.31422  1.0000
  H   H10       1.0  0.78856  0.68031  0.81421  1.0000
  H   H11       1.0  0.28855  0.81968  0.18578  1.0000
  H   H12       1.0  0.21144  0.18031  0.68579  1.0000
  H   H13       1.0  0.28855  0.68031  0.68578  1.0000
  H   H14       1.0  0.21144  0.31969  0.18579  1.0000
  H   H15       1.0  0.71145  0.18031  0.81421  1.0000
  H   H16       1.0  0.78855  0.81969  0.31421  1.0000
  H   H17       1.0  0.81440  0.24927  0.22190  1.0000
  H   H18       1.0  0.68560  0.75073  0.72190  1.0000
  H   H19       1.0  0.18560  0.74927  0.27810  1.0000
  H   H20       1.0  0.31440  0.25073  0.77810  1.0000
  H   H21       1.0  0.18560  0.75073  0.77810  1.0000
  H   H22       1.0  0.31440  0.24927  0.27810  1.0000
  H   H23       1.0  0.81440  0.25073  0.72190  1.0000
  H   H24       1.0  0.68560  0.74927  0.22190  1.0000
  H   H25       1.0  0.98389  0.10689  0.43741  1.0000
  H   H26       1.0  0.51611  0.89311  0.93741  1.0000
  H   H27       1.0  0.01611  0.60689  0.06259  1.0000
  H   H28       1.0  0.48389  0.39311  0.56259  1.0000
  H   H29       1.0  0.01611  0.89311  0.56259  1.0000
  H   H30       1.0  0.48389  0.10689  0.06259  1.0000
  H   H31       1.0  0.98389  0.39311  0.93741  1.0000
  H   H32       1.0  0.51611  0.60689  0.43741  1.0000
  H   H33       1.0  0.78420  0.11272  0.39569  1.0000
  H   H34       1.0  0.71580  0.88728  0.89569  1.0000
  H   H35       1.0  0.21580  0.61272  0.10431  1.0000
  H   H36       1.0  0.28420  0.38728  0.60431  1.0000
  H   H37       1.0  0.21580  0.88728  0.60431  1.0000
  H   H38       1.0  0.28420  0.11272  0.10431  1.0000
  H   H39       1.0  0.78420  0.38728  0.89569  1.0000
  H   H40       1.0  0.71580  0.61272  0.39569  1.0000
  C   C1        1.0  0.86392  0.46803  0.25060  1.0000
  C   C2        1.0  0.63608  0.53196  0.75060  1.0000
  C   C3        1.0  0.13608  0.96803  0.24940  1.0000
  C   C4        1.0  0.36392  0.03196  0.74940  1.0000
  C   C5        1.0  0.13608  0.53197  0.74940  1.0000
  C   C6        1.0  0.36392  0.46804  0.24940  1.0000
  C   C7        1.0  0.86392  0.03197  0.75060  1.0000
  C   C8        1.0  0.63608  0.96804  0.25060  1.0000
  C   C9        1.0  0.82897  0.31731  0.28044  1.0000
  C   C10       1.0  0.67103  0.68269  0.78043  1.0000
  C   C11       1.0  0.17103  0.81731  0.21956  1.0000
  C   C12       1.0  0.32897  0.18269  0.71957  1.0000
  C   C13       1.0  0.17103  0.68269  0.71956  1.0000
  C   C14       1.0  0.32897  0.31731  0.21957  1.0000
  C   C15       1.0  0.82897  0.18269  0.78044  1.0000
  C   C16       1.0  0.67103  0.81731  0.28043  1.0000
  C   C17       1.0  0.88798  0.17840  0.41465  1.0000
  C   C18       1.0  0.61202  0.82160  0.91465  1.0000
  C   C19       1.0  0.11202  0.67840  0.08535  1.0000
  C   C20       1.0  0.38798  0.32160  0.58535  1.0000
  C   C21       1.0  0.11201  0.82160  0.58535  1.0000
  C   C22       1.0  0.38798  0.17840  0.08535  1.0000
  C   C23       1.0  0.88798  0.32160  0.91465  1.0000
  C   C24       1.0  0.61202  0.67840  0.41465  1.0000
  C   C25       1.0  0.83994  0.26897  0.49372  1.0000
  C   C26       1.0  0.66005  0.73102  0.99372  1.0000
  C   C27       1.0  0.16006  0.76898  0.00627  1.0000
  C   C28       1.0  0.33995  0.23102  0.50628  1.0000
  C   C29       1.0  0.16006  0.73102  0.50628  1.0000
  C   C30       1.0  0.33995  0.26898  0.00628  1.0000
  C   C31       1.0  0.83994  0.23102  0.99372  1.0000
  C   C32       1.0  0.66005  0.76898  0.49372  1.0000
  N   N1        1.0  0.95230  0.26216  0.34106  1.0000
  N   N2        1.0  0.54770  0.73784  0.84106  1.0000
  N   N3        1.0  0.04770  0.76216  0.15894  1.0000
  N   N4        1.0  0.45229  0.23784  0.65894  1.0000
  N   N5        1.0  0.04770  0.73784  0.65894  1.0000
  N   N6        1.0  0.45230  0.26216  0.15894  1.0000
  N   N7        1.0  0.95230  0.23784  0.84106  1.0000
  N   N8        1.0  0.54770  0.76216  0.34106  1.0000
  O   O1        1.0  0.95454  0.54545  0.29849  1.0000
  O   O2        1.0  0.54546  0.45455  0.79849  1.0000
  O   O3        1.0  0.04546  0.04545  0.20151  1.0000
  O   O4        1.0  0.45454  0.95455  0.70151  1.0000
  O   O5        1.0  0.04546  0.45455  0.70151  1.0000
  O   O6        1.0  0.45454  0.54545  0.20151  1.0000
  O   O7        1.0  0.95454  0.95455  0.79849  1.0000
  O   O8        1.0  0.54546  0.04545  0.29848  1.0000
  O   O9        1.0  0.79950  0.51287  0.17977  1.0000
  O   O10       1.0  0.70050  0.48713  0.67977  1.0000
  O   O11       1.0  0.20050  0.01287  0.32023  1.0000
  O   O12       1.0  0.29950  0.98713  0.82023  1.0000
  O   O13       1.0  0.20050  0.48713  0.82023  1.0000
  O   O14       1.0  0.29950  0.51287  0.32023  1.0000
  O   O15       1.0  0.79950  0.98713  0.67977  1.0000
  O   O16       1.0  0.70050  0.01287  0.17977  1.0000
  O   O17       1.0  0.74825  0.21889  0.55177  1.0000
  O   O18       1.0  0.75175  0.78111  0.05177  1.0000
  O   O19       1.0  0.25175  0.71889  0.94823  1.0000
  O   O20       1.0  0.24825  0.28111  0.44823  1.0000
  O   O21       1.0  0.25175  0.78111  0.44823  1.0000
  O   O22       1.0  0.24825  0.21889  0.94823  1.0000
  O   O23       1.0  0.74825  0.28111  0.05177  1.0000
  O   O24       1.0  0.75175  0.71889  0.55177  1.0000
  O   O25       1.0  0.90021  0.39392  0.49776  1.0000
  O   O26       1.0  0.59978  0.60608  0.99775  1.0000
  O   O27       1.0  0.09979  0.89392  0.00224  1.0000
  O   O28       1.0  0.40022  0.10608  0.50225  1.0000
  O   O29       1.0  0.09978  0.60608  0.50225  1.0000
  O   O30       1.0  0.40022  0.39392  0.00225  1.0000
  O   O31       1.0  0.90021  0.10608  0.99776  1.0000
  O   O32       1.0  0.59978  0.89392  0.49775  1.0000
