data_image0
_chemical_formula_structural       Mn2H24C36N20
_chemical_formula_sum              "Mn2 H24 C36 N20"
_cell_length_a       9.21117
_cell_length_b       9.94476
_cell_length_c       9.83644
_cell_angle_alpha    89.9998
_cell_angle_beta     106.643
_cell_angle_gamma    90.0003

_space_group_name_H-M_alt    "P 1"
_space_group_IT_number       1

loop_
  _space_group_symop_operation_xyz
  'x, y, z'

loop_
  _atom_site_type_symbol
  _atom_site_label
  _atom_site_symmetry_multiplicity
  _atom_site_fract_x
  _atom_site_fract_y
  _atom_site_fract_z
  _atom_site_occupancy
  Mn  Mn1       1.0  0.00000  0.50000  0.50000  1.0000
  Mn  Mn2       1.0  0.50000  1.00000  1.00000  1.0000
  H   H1        1.0  0.58527  0.45537  0.77731  1.0000
  H   H2        1.0  0.91474  0.95538  0.72269  1.0000
  H   H3        1.0  0.41473  0.54463  0.22269  1.0000
  H   H4        1.0  0.08526  0.04462  0.27731  1.0000
  H   H5        1.0  0.76275  0.76963  0.40759  1.0000
  H   H6        1.0  0.73725  0.26963  0.09241  1.0000
  H   H7        1.0  0.23725  0.23037  0.59240  1.0000
  H   H8        1.0  0.26275  0.73037  0.90759  1.0000
  H   H9        1.0  0.53184  0.90943  0.36839  1.0000
  H   H10       1.0  0.96817  0.40944  0.13162  1.0000
  H   H11       1.0  0.46816  0.09056  0.63161  1.0000
  H   H12       1.0  0.03183  0.59056  0.86838  1.0000
  H   H13       1.0  0.34113  0.86297  0.49510  1.0000
  H   H14       1.0  0.15888  0.36298  0.00490  1.0000
  H   H15       1.0  0.65887  0.13703  0.50489  1.0000
  H   H16       1.0  0.84112  0.63702  0.99510  1.0000
  H   H17       1.0  0.37513  0.67289  0.66759  1.0000
  H   H18       1.0  0.12489  0.17291  0.83241  1.0000
  H   H19       1.0  0.62487  0.32711  0.33241  1.0000
  H   H20       1.0  0.87512  0.82709  0.16759  1.0000
  H   H21       1.0  0.83609  0.37490  0.73913  1.0000
  H   H22       1.0  0.66392  0.87490  0.76087  1.0000
  H   H23       1.0  0.16390  0.62510  0.26087  1.0000
  H   H24       1.0  0.33608  0.12510  0.23913  1.0000
  C   C1        1.0  0.69945  0.64063  0.55963  1.0000
  C   C2        1.0  0.80056  0.14064  0.94037  1.0000
  C   C3        1.0  0.30055  0.35937  0.44037  1.0000
  C   C4        1.0  0.19944  0.85936  0.05963  1.0000
  C   C5        1.0  0.67995  0.74854  0.46446  1.0000
  C   C6        1.0  0.82006  0.24855  0.03554  1.0000
  C   C7        1.0  0.32005  0.25146  0.53554  1.0000
  C   C8        1.0  0.17994  0.75145  0.96446  1.0000
  C   C9        1.0  0.54997  0.82663  0.44368  1.0000
  C   C10       1.0  0.95004  0.32663  0.05633  1.0000
  C   C11       1.0  0.45003  0.17337  0.55632  1.0000
  C   C12       1.0  0.04996  0.67337  0.94367  1.0000
  C   C13       1.0  0.44160  0.79965  0.51604  1.0000
  C   C14       1.0  0.05841  0.29966  0.98397  1.0000
  C   C15       1.0  0.55840  0.20035  0.48396  1.0000
  C   C16       1.0  0.94159  0.70034  0.01603  1.0000
  C   C17       1.0  0.45949  0.69403  0.61248  1.0000
  C   C18       1.0  0.04052  0.19405  0.88752  1.0000
  C   C19       1.0  0.54051  0.30597  0.38752  1.0000
  C   C20       1.0  0.95948  0.80595  0.11248  1.0000
  C   C21       1.0  0.58970  0.61548  0.63262  1.0000
  C   C22       1.0  0.91031  0.11549  0.86738  1.0000
  C   C23       1.0  0.41030  0.38452  0.36738  1.0000
  C   C24       1.0  0.08969  0.88451  0.13262  1.0000
  C   C25       1.0  0.77285  0.46288  0.68976  1.0000
  C   C26       1.0  0.72716  0.96289  0.81024  1.0000
  C   C27       1.0  0.22715  0.53712  0.31024  1.0000
  C   C28       1.0  0.27284  0.03711  0.18976  1.0000
  C   C29       1.0  0.93129  0.19192  0.44479  1.0000
  C   C30       1.0  0.56869  0.69190  0.05517  1.0000
  C   C31       1.0  0.06871  0.80808  0.55520  1.0000
  C   C32       1.0  0.43131  0.30810  0.94483  1.0000
  C   C33       1.0  0.78243  0.04731  0.28178  1.0000
  C   C34       1.0  0.71756  0.54734  0.21822  1.0000
  C   C35       1.0  0.21757  0.95269  0.71821  1.0000
  C   C36       1.0  0.28244  0.45266  0.78179  1.0000
  N   N1        1.0  0.81247  0.54281  0.59803  1.0000
  N   N2        1.0  0.68753  0.04282  0.90197  1.0000
  N   N3        1.0  0.18752  0.45719  0.40197  1.0000
  N   N4        1.0  0.31247  0.95719  0.09803  1.0000
  N   N5        1.0  0.64189  0.50292  0.71521  1.0000
  N   N6        1.0  0.85812  0.00293  0.78479  1.0000
  N   N7        1.0  0.35811  0.49708  0.28479  1.0000
  N   N8        1.0  0.14188  0.99707  0.21521  1.0000
  N   N9        1.0  0.91295  0.08940  0.36008  1.0000
  N   N10       1.0  0.58704  0.58942  0.13992  1.0000
  N   N11       1.0  0.08705  0.91059  0.63992  1.0000
  N   N12       1.0  0.41296  0.41058  0.86009  1.0000
  N   N13       1.0  0.96126  0.28361  0.52423  1.0000
  N   N14       1.0  0.53872  0.78358  0.97570  1.0000
  N   N15       1.0  0.03874  0.71639  0.47576  1.0000
  N   N16       1.0  0.46128  0.21642  0.02430  1.0000
  N   N17       1.0  0.67128  0.99944  0.20628  1.0000
  N   N18       1.0  0.82872  0.49950  0.29372  1.0000
  N   N19       1.0  0.32872  0.00055  0.79372  1.0000
  N   N20       1.0  0.17128  0.50050  0.70628  1.0000
