data_image0
_chemical_formula_structural       Cd6H52C40S16N24
_chemical_formula_sum              "Cd6 H52 C40 S16 N24"
_cell_length_a       9.66016
_cell_length_b       12.1061
_cell_length_c       14.5101
_cell_angle_alpha    90.0002
_cell_angle_beta     98.8343
_cell_angle_gamma    90.0002

_space_group_name_H-M_alt    "P 1"
_space_group_IT_number       1

loop_
  _space_group_symop_operation_xyz
  'x, y, z'

loop_
  _atom_site_type_symbol
  _atom_site_label
  _atom_site_symmetry_multiplicity
  _atom_site_fract_x
  _atom_site_fract_y
  _atom_site_fract_z
  _atom_site_occupancy
  Cd  Cd1       1.0  0.36913  0.63299  0.86844  1.0000
  Cd  Cd2       1.0  0.13087  0.13298  0.63156  1.0000
  Cd  Cd3       1.0  0.63086  0.36702  0.13156  1.0000
  Cd  Cd4       1.0  0.86913  0.86702  0.36844  1.0000
  Cd  Cd5       1.0  0.50000  0.50000  0.50000  1.0000
  Cd  Cd6       1.0  1.00000  0.00000  0.00000  1.0000
  H   H1        1.0  0.16590  0.66047  0.66722  1.0000
  H   H2        1.0  0.33410  0.16047  0.83278  1.0000
  H   H3        1.0  0.83410  0.33954  0.33278  1.0000
  H   H4        1.0  0.66590  0.83953  0.16722  1.0000
  H   H5        1.0  0.11076  0.75969  0.74346  1.0000
  H   H6        1.0  0.38925  0.25968  0.75653  1.0000
  H   H7        1.0  0.88924  0.24031  0.25654  1.0000
  H   H8        1.0  0.61075  0.74031  0.24346  1.0000
  H   H9        1.0  0.87224  0.72948  0.68089  1.0000
  H   H10       1.0  0.62776  0.22948  0.81911  1.0000
  H   H11       1.0  0.12776  0.27052  0.31911  1.0000
  H   H12       1.0  0.37224  0.77052  0.18089  1.0000
  H   H13       1.0  0.93214  0.64478  0.59474  1.0000
  H   H14       1.0  0.56786  0.14478  0.90526  1.0000
  H   H15       1.0  0.06786  0.35522  0.40526  1.0000
  H   H16       1.0  0.43214  0.85522  0.09474  1.0000
  H   H17       1.0  0.13756  0.42723  0.82173  1.0000
  H   H18       1.0  0.36244  0.92723  0.67827  1.0000
  H   H19       1.0  0.86244  0.57277  0.17827  1.0000
  H   H20       1.0  0.63756  0.07277  0.32173  1.0000
  H   H21       1.0  0.20255  0.46841  0.71982  1.0000
  H   H22       1.0  0.29745  0.96840  0.78018  1.0000
  H   H23       1.0  0.79745  0.53160  0.28018  1.0000
  H   H24       1.0  0.70255  0.03159  0.21982  1.0000
  H   H25       1.0  0.97924  0.45235  0.62810  1.0000
  H   H26       1.0  0.52075  0.95235  0.87190  1.0000
  H   H27       1.0  0.02075  0.54765  0.37190  1.0000
  H   H28       1.0  0.47925  0.04765  0.12810  1.0000
  H   H29       1.0  0.92156  0.38868  0.72608  1.0000
  H   H30       1.0  0.57844  0.88868  0.77392  1.0000
  H   H31       1.0  0.07844  0.61132  0.27392  1.0000
  H   H32       1.0  0.42156  0.11132  0.22608  1.0000
  H   H33       1.0  0.03039  0.69837  0.88420  1.0000
  H   H34       1.0  0.46961  0.19837  0.61580  1.0000
  H   H35       1.0  0.96961  0.30163  0.11580  1.0000
  H   H36       1.0  0.53039  0.80163  0.38420  1.0000
  H   H37       1.0  0.06068  0.56007  0.92282  1.0000
  H   H38       1.0  0.43932  0.06007  0.57718  1.0000
  H   H39       1.0  0.93932  0.43993  0.07718  1.0000
  H   H40       1.0  0.56068  0.93993  0.42282  1.0000
  H   H41       1.0  0.83820  0.50454  0.84228  1.0000
  H   H42       1.0  0.66180  0.00454  0.65772  1.0000
  H   H43       1.0  0.16180  0.49546  0.15772  1.0000
  H   H44       1.0  0.33820  0.99546  0.34227  1.0000
  H   H45       1.0  0.80174  0.64703  0.81840  1.0000
  H   H46       1.0  0.69826  0.14703  0.68160  1.0000
  H   H47       1.0  0.19826  0.35297  0.18160  1.0000
  H   H48       1.0  0.30174  0.85297  0.31840  1.0000
  H   H49       1.0  0.78305  0.54156  0.67902  1.0000
  H   H50       1.0  0.71694  0.04156  0.82098  1.0000
  H   H51       1.0  0.21695  0.45844  0.32098  1.0000
  H   H52       1.0  0.28305  0.95844  0.17902  1.0000
  C   C1        1.0  0.27534  0.89309  0.93702  1.0000
  C   C2        1.0  0.22466  0.39308  0.56298  1.0000
  C   C3        1.0  0.72466  0.10691  0.06298  1.0000
  C   C4        1.0  0.77534  0.60691  0.43702  1.0000
  C   C5        1.0  0.48048  0.70657  0.66456  1.0000
  C   C6        1.0  0.01952  0.20657  0.83544  1.0000
  C   C7        1.0  0.51952  0.29343  0.33544  1.0000
  C   C8        1.0  0.98048  0.79343  0.16456  1.0000
  C   C9        1.0  0.66225  0.57260  0.99307  1.0000
  C   C10       1.0  0.83775  0.07260  0.50693  1.0000
  C   C11       1.0  0.33775  0.42740  0.00693  1.0000
  C   C12       1.0  0.16225  0.92741  0.49307  1.0000
  C   C13       1.0  0.52238  0.44381  0.74339  1.0000
  C   C14       1.0  0.97762  0.94381  0.75661  1.0000
  C   C15       1.0  0.47762  0.55619  0.25661  1.0000
  C   C16       1.0  0.02238  0.05619  0.24339  1.0000
  C   C17       1.0  0.09333  0.67541  0.71688  1.0000
  C   C18       1.0  0.40667  0.17541  0.78311  1.0000
  C   C19       1.0  0.90667  0.32459  0.28311  1.0000
  C   C20       1.0  0.59333  0.82459  0.21689  1.0000
  C   C21       1.0  0.94036  0.65990  0.66977  1.0000
  C   C22       1.0  0.55965  0.15990  0.83023  1.0000
  C   C23       1.0  0.05964  0.34009  0.33023  1.0000
  C   C24       1.0  0.44036  0.84009  0.16977  1.0000
  C   C25       1.0  0.11889  0.48250  0.76133  1.0000
  C   C26       1.0  0.38111  0.98250  0.73867  1.0000
  C   C27       1.0  0.88111  0.51750  0.23867  1.0000
  C   C28       1.0  0.61889  0.01750  0.26133  1.0000
  C   C29       1.0  0.97452  0.46111  0.70272  1.0000
  C   C30       1.0  0.52548  0.96111  0.79728  1.0000
  C   C31       1.0  0.02548  0.53889  0.29728  1.0000
  C   C32       1.0  0.47452  0.03889  0.20272  1.0000
  C   C33       1.0  0.02678  0.61194  0.86162  1.0000
  C   C34       1.0  0.47322  0.11193  0.63838  1.0000
  C   C35       1.0  0.97322  0.38807  0.13838  1.0000
  C   C36       1.0  0.52678  0.88807  0.36162  1.0000
  C   C37       1.0  0.87752  0.58048  0.81409  1.0000
  C   C38       1.0  0.62248  0.08048  0.68591  1.0000
  C   C39       1.0  0.12248  0.41952  0.18591  1.0000
  C   C40       1.0  0.37752  0.91952  0.31409  1.0000
  S   S1        1.0  0.26537  0.02208  0.96898  1.0000
  S   S2        1.0  0.23463  0.52207  0.53102  1.0000
  S   S3        1.0  0.73463  0.97792  0.03102  1.0000
  S   S4        1.0  0.76537  0.47792  0.46898  1.0000
  S   S5        1.0  0.57190  0.70551  0.57838  1.0000
  S   S6        1.0  0.92811  0.20551  0.92162  1.0000
  S   S7        1.0  0.42810  0.29449  0.42162  1.0000
  S   S8        1.0  0.07189  0.79449  0.07838  1.0000
  S   S9        1.0  0.62015  0.69869  0.96006  1.0000
  S   S10       1.0  0.87986  0.19869  0.53994  1.0000
  S   S11       1.0  0.37986  0.30131  0.03994  1.0000
  S   S12       1.0  0.12015  0.80131  0.46006  1.0000
  S   S13       1.0  0.61207  0.39447  0.66530  1.0000
  S   S14       1.0  0.88792  0.89448  0.83470  1.0000
  S   S15       1.0  0.38792  0.60552  0.33469  1.0000
  S   S16       1.0  0.11208  0.10552  0.16531  1.0000
  N   N1        1.0  0.28269  0.80047  0.91297  1.0000
  N   N2        1.0  0.21732  0.30046  0.58703  1.0000
  N   N3        1.0  0.71731  0.19953  0.08703  1.0000
  N   N4        1.0  0.78269  0.69953  0.41297  1.0000
  N   N5        1.0  0.41616  0.71222  0.72748  1.0000
  N   N6        1.0  0.08385  0.21222  0.77252  1.0000
  N   N7        1.0  0.58384  0.28778  0.27252  1.0000
  N   N8        1.0  0.91615  0.78778  0.22748  1.0000
  N   N9        1.0  0.69300  0.48066  0.01562  1.0000
  N   N10       1.0  0.80701  0.98066  0.48438  1.0000
  N   N11       1.0  0.30701  0.51934  0.98438  1.0000
  N   N12       1.0  0.19299  0.01934  0.51562  1.0000
  N   N13       1.0  0.45777  0.47590  0.80074  1.0000
  N   N14       1.0  0.04223  0.97590  0.69926  1.0000
  N   N15       1.0  0.54223  0.52410  0.19926  1.0000
  N   N16       1.0  0.95777  0.02410  0.30074  1.0000
  N   N17       1.0  0.12822  0.59761  0.79578  1.0000
  N   N18       1.0  0.37178  0.09761  0.70422  1.0000
  N   N19       1.0  0.87178  0.40239  0.20422  1.0000
  N   N20       1.0  0.62822  0.90239  0.29578  1.0000
  N   N21       1.0  0.88349  0.55986  0.71257  1.0000
  N   N22       1.0  0.61651  0.05986  0.78743  1.0000
  N   N23       1.0  0.11651  0.44014  0.28743  1.0000
  N   N24       1.0  0.38349  0.94014  0.21257  1.0000
