data_image0
_chemical_formula_structural       ZnH20C20N2O8
_chemical_formula_sum              "Zn1 H20 C20 N2 O8"
_cell_length_a       5.61937
_cell_length_b       7.95042
_cell_length_c       11.0228
_cell_angle_alpha    107.379
_cell_angle_beta     97.0879
_cell_angle_gamma    98.2638

_space_group_name_H-M_alt    "P 1"
_space_group_IT_number       1

loop_
  _space_group_symop_operation_xyz
  'x, y, z'

loop_
  _atom_site_type_symbol
  _atom_site_label
  _atom_site_symmetry_multiplicity
  _atom_site_fract_x
  _atom_site_fract_y
  _atom_site_fract_z
  _atom_site_occupancy
  Zn  Zn1       1.0  0.50001  0.49998  0.99999  1.0000
  H   H1        1.0  0.95495  0.62223  0.93762  1.0000
  H   H2        1.0  0.04503  0.37775  0.06234  1.0000
  H   H3        1.0  0.74743  0.74403  0.94655  1.0000
  H   H4        1.0  0.25257  0.25597  0.05346  1.0000
  H   H5        1.0  0.17963  0.99450  0.33533  1.0000
  H   H6        1.0  0.82037  0.00546  0.66463  1.0000
  H   H7        1.0  0.18997  0.77720  0.12592  1.0000
  H   H8        1.0  0.81003  0.22275  0.87404  1.0000
  H   H9        1.0  0.82362  0.63902  0.26957  1.0000
  H   H10       1.0  0.17638  0.36095  0.73040  1.0000
  H   H11       1.0  0.83649  0.84461  0.48816  1.0000
  H   H12       1.0  0.16352  0.15538  0.51180  1.0000
  H   H13       1.0  0.75421  0.05627  0.23738  1.0000
  H   H14       1.0  0.24582  0.94377  0.76265  1.0000
  H   H15       1.0  0.90995  0.05131  0.10574  1.0000
  H   H16       1.0  0.09009  0.94873  0.89430  1.0000
  H   H17       1.0  0.37632  0.52791  0.40612  1.0000
  H   H18       1.0  0.62367  0.47214  0.59391  1.0000
  H   H19       1.0  0.63739  0.26336  0.37881  1.0000
  H   H20       1.0  0.36259  0.73669  0.62123  1.0000
  C   C1        1.0  0.32460  0.91693  0.32827  1.0000
  C   C2        1.0  0.67541  0.08304  0.67170  1.0000
  C   C3        1.0  0.33114  0.79612  0.20841  1.0000
  C   C4        1.0  0.66887  0.20383  0.79155  1.0000
  C   C5        1.0  0.68352  0.72011  0.28894  1.0000
  C   C6        1.0  0.31648  0.27986  0.71103  1.0000
  C   C7        1.0  0.68869  0.83718  0.41193  1.0000
  C   C8        1.0  0.31132  0.16280  0.58804  1.0000
  C   C9        1.0  0.50339  0.93839  0.43511  1.0000
  C   C10       1.0  0.49661  0.06158  0.56486  1.0000
  C   C11       1.0  0.64438  0.22226  0.12488  1.0000
  C   C12       1.0  0.35562  0.77774  0.87513  1.0000
  C   C13       1.0  0.83875  0.13921  0.18454  1.0000
  C   C14       1.0  0.16127  0.86082  0.81549  1.0000
  C   C15       1.0  0.01162  0.38117  0.37878  1.0000
  C   C16       1.0  0.98836  0.61887  0.62126  1.0000
  C   C17       1.0  0.21128  0.51692  0.44777  1.0000
  C   C18       1.0  0.78869  0.48311  0.55228  1.0000
  C   C19       1.0  0.79784  0.36514  0.43130  1.0000
  C   C20       1.0  0.20211  0.63491  0.56873  1.0000
  N   N1        1.0  0.50615  0.69713  0.18817  1.0000
  N   N2        1.0  0.49385  0.30283  0.81179  1.0000
  O   O1        1.0  0.04594  0.26816  0.26346  1.0000
  O   O2        1.0  0.95404  0.73190  0.73658  1.0000
  O   O3        1.0  0.82851  0.66331  0.98824  1.0000
  O   O4        1.0  0.17150  0.33666  0.01174  1.0000
  O   O5        1.0  0.72376  0.36205  0.09509  1.0000
  O   O6        1.0  0.27623  0.63791  0.90488  1.0000
  O   O7        1.0  0.42533  0.14577  0.10765  1.0000
  O   O8        1.0  0.57468  0.85426  0.89239  1.0000
