data_image0
_chemical_formula_structural       Zn2H40C30N8O8
_chemical_formula_sum              "Zn2 H40 C30 N8 O8"
_cell_length_a       8.41098
_cell_length_b       8.48785
_cell_length_c       15.9463
_cell_angle_alpha    96.5449
_cell_angle_beta     106.526
_cell_angle_gamma    108.593

_space_group_name_H-M_alt    "P 1"
_space_group_IT_number       1

loop_
  _space_group_symop_operation_xyz
  'x, y, z'

loop_
  _atom_site_type_symbol
  _atom_site_label
  _atom_site_symmetry_multiplicity
  _atom_site_fract_x
  _atom_site_fract_y
  _atom_site_fract_z
  _atom_site_occupancy
  Zn  Zn1       1.0  0.05912  0.99616  0.24679  1.0000
  Zn  Zn2       1.0  0.94089  0.00384  0.75321  1.0000
  H   H1        1.0  0.93464  0.40372  0.27542  1.0000
  H   H2        1.0  0.06536  0.59628  0.72457  1.0000
  H   H3        1.0  0.80406  0.42417  0.17030  1.0000
  H   H4        1.0  0.19593  0.57581  0.82970  1.0000
  H   H5        1.0  0.73313  0.48447  0.34804  1.0000
  H   H6        1.0  0.26689  0.51553  0.65196  1.0000
  H   H7        1.0  0.60681  0.50758  0.24436  1.0000
  H   H8        1.0  0.39319  0.49241  0.75565  1.0000
  H   H9        1.0  0.54429  0.19486  0.17854  1.0000
  H   H10       1.0  0.45572  0.80514  0.82146  1.0000
  H   H11       1.0  0.64716  0.17508  0.28674  1.0000
  H   H12       1.0  0.35285  0.82492  0.71326  1.0000
  H   H13       1.0  0.66781  0.98197  0.13341  1.0000
  H   H14       1.0  0.33219  0.01801  0.86658  1.0000
  H   H15       1.0  0.61036  0.11751  0.97996  1.0000
  H   H16       1.0  0.38964  0.88249  0.02004  1.0000
  H   H17       1.0  0.15547  0.19067  0.08978  1.0000
  H   H18       1.0  0.84454  0.80934  0.91022  1.0000
  H   H19       1.0  0.82252  0.18042  0.87858  1.0000
  H   H20       1.0  0.17748  0.81960  0.12143  1.0000
  H   H21       1.0  0.05381  0.26149  0.93841  1.0000
  H   H22       1.0  0.94618  0.73853  0.06158  1.0000
  H   H23       1.0  0.94186  0.48953  0.89790  1.0000
  H   H24       1.0  0.05813  0.51049  0.10210  1.0000
  H   H25       1.0  0.79530  0.43817  0.95941  1.0000
  H   H26       1.0  0.20469  0.56183  0.04059  1.0000
  H   H27       1.0  0.14945  0.34458  0.39656  1.0000
  H   H28       1.0  0.85055  0.65543  0.60344  1.0000
  H   H29       1.0  0.96558  0.31309  0.52103  1.0000
  H   H30       1.0  0.03440  0.68692  0.47896  1.0000
  H   H31       1.0  0.77379  0.84258  0.33485  1.0000
  H   H32       1.0  0.22622  0.15742  0.66516  1.0000
  H   H33       1.0  0.79117  0.01787  0.55795  1.0000
  H   H34       1.0  0.20883  0.98213  0.44205  1.0000
  H   H35       1.0  0.66802  0.84213  0.46336  1.0000
  H   H36       1.0  0.33198  0.15787  0.53664  1.0000
  H   H37       1.0  0.47016  0.99723  0.39986  1.0000
  H   H38       1.0  0.52983  0.00276  0.60014  1.0000
  H   H39       1.0  0.60417  0.17813  0.49030  1.0000
  H   H40       1.0  0.39582  0.82187  0.50970  1.0000
  C   C1        1.0  0.96131  0.66109  0.26817  1.0000
  C   C2        1.0  0.03869  0.33891  0.73183  1.0000
  C   C3        1.0  0.85075  0.47132  0.24356  1.0000
  C   C4        1.0  0.14925  0.52868  0.75644  1.0000
  C   C5        1.0  0.68858  0.43674  0.27487  1.0000
  C   C6        1.0  0.31143  0.56325  0.72513  1.0000
  C   C7        1.0  0.57402  0.24735  0.25018  1.0000
  C   C8        1.0  0.42598  0.75265  0.74982  1.0000
  C   C9        1.0  0.39585  0.20278  0.26561  1.0000
  C   C10       1.0  0.60416  0.79721  0.73440  1.0000
  C   C11       1.0  0.75945  0.04376  0.10071  1.0000
  C   C12       1.0  0.24056  0.95624  0.89929  1.0000
  C   C13       1.0  0.72931  0.10962  0.02533  1.0000
  C   C14       1.0  0.27070  0.89037  0.97466  1.0000
  C   C15       1.0  0.01501  0.15066  0.08164  1.0000
  C   C16       1.0  0.98497  0.84933  0.91835  1.0000
  C   C17       1.0  0.92525  0.26032  0.94215  1.0000
  C   C18       1.0  0.07474  0.73969  0.05786  1.0000
  C   C19       1.0  0.92620  0.44109  0.95735  1.0000
  C   C20       1.0  0.07379  0.55892  0.04265  1.0000
  C   C21       1.0  0.04243  0.23789  0.40177  1.0000
  C   C22       1.0  0.95756  0.76211  0.59823  1.0000
  C   C23       1.0  0.95344  0.22500  0.46250  1.0000
  C   C24       1.0  0.04655  0.77500  0.53749  1.0000
  C   C25       1.0  0.85015  0.97614  0.36667  1.0000
  C   C26       1.0  0.14986  0.02386  0.63333  1.0000
  C   C27       1.0  0.71257  0.98104  0.48621  1.0000
  C   C28       1.0  0.28743  0.01896  0.51379  1.0000
  C   C29       1.0  0.55453  0.03779  0.47121  1.0000
  C   C30       1.0  0.44547  0.96220  0.52879  1.0000
  N   N1        1.0  0.93811  0.07025  0.13504  1.0000
  N   N2        1.0  0.06190  0.92974  0.86495  1.0000
  N   N3        1.0  0.89247  0.17595  0.01400  1.0000
  N   N4        1.0  0.10754  0.82406  0.98600  1.0000
  N   N5        1.0  0.97680  0.08131  0.34251  1.0000
  N   N6        1.0  0.02320  0.91870  0.65749  1.0000
  N   N7        1.0  0.83291  0.05836  0.43912  1.0000
  N   N8        1.0  0.16709  0.94165  0.56088  1.0000
  O   O1        1.0  0.91324  0.74617  0.20890  1.0000
  O   O2        1.0  0.08677  0.25382  0.79109  1.0000
  O   O3        1.0  0.08389  0.72760  0.34236  1.0000
  O   O4        1.0  0.91610  0.27240  0.65764  1.0000
  O   O5        1.0  0.29961  0.03906  0.24150  1.0000
  O   O6        1.0  0.70040  0.96093  0.75850  1.0000
  O   O7        1.0  0.34647  0.31321  0.29640  1.0000
  O   O8        1.0  0.65354  0.68678  0.70361  1.0000
