data_image0
_chemical_formula_structural       Zn2H44C32N8O8
_chemical_formula_sum              "Zn2 H44 C32 N8 O8"
_cell_length_a       8.56631
_cell_length_b       8.75555
_cell_length_c       15.3803
_cell_angle_alpha    95.614
_cell_angle_beta     100.339
_cell_angle_gamma    111.753

_space_group_name_H-M_alt    "P 1"
_space_group_IT_number       1

loop_
  _space_group_symop_operation_xyz
  'x, y, z'

loop_
  _atom_site_type_symbol
  _atom_site_label
  _atom_site_symmetry_multiplicity
  _atom_site_fract_x
  _atom_site_fract_y
  _atom_site_fract_z
  _atom_site_occupancy
  Zn  Zn1       1.0  0.49913  0.52866  0.25937  1.0000
  Zn  Zn2       1.0  0.50087  0.47134  0.74064  1.0000
  H   H1        1.0  0.37426  0.32521  0.41727  1.0000
  H   H2        1.0  0.62575  0.67481  0.58274  1.0000
  H   H3        1.0  0.77986  0.70578  0.15582  1.0000
  H   H4        1.0  0.22014  0.29423  0.84418  1.0000
  H   H5        1.0  0.92390  0.34746  0.22386  1.0000
  H   H6        1.0  0.07610  0.65254  0.77614  1.0000
  H   H7        1.0  0.99024  0.29230  0.32626  1.0000
  H   H8        1.0  0.00976  0.70770  0.67375  1.0000
  H   H9        1.0  0.42022  0.20499  0.10338  1.0000
  H   H10       1.0  0.57978  0.79501  0.89662  1.0000
  H   H11       1.0  0.86640  0.52139  0.36032  1.0000
  H   H12       1.0  0.13361  0.47859  0.63968  1.0000
  H   H13       1.0  0.72827  0.09057  0.32634  1.0000
  H   H14       1.0  0.27173  0.90943  0.67367  1.0000
  H   H15       1.0  0.61099  0.10349  0.22108  1.0000
  H   H16       1.0  0.38901  0.89652  0.77893  1.0000
  H   H17       1.0  0.58723  0.26390  0.96069  1.0000
  H   H18       1.0  0.41276  0.73610  0.03931  1.0000
  H   H19       1.0  0.85624  0.38909  0.91678  1.0000
  H   H20       1.0  0.14375  0.61091  0.08321  1.0000
  H   H21       1.0  0.01689  0.58596  0.91751  1.0000
  H   H22       1.0  0.98310  0.41403  0.08248  1.0000
  H   H23       1.0  0.88619  0.36703  0.51043  1.0000
  H   H24       1.0  0.11381  0.63296  0.48957  1.0000
  H   H25       1.0  0.91065  0.72428  0.02739  1.0000
  H   H26       1.0  0.08935  0.27571  0.97261  1.0000
  H   H27       1.0  0.74829  0.61425  0.92848  1.0000
  H   H28       1.0  0.25170  0.38575  0.07152  1.0000
  H   H29       1.0  0.43635  0.22477  0.56083  1.0000
  H   H30       1.0  0.56367  0.77523  0.43917  1.0000
  H   H31       1.0  0.65427  0.30690  0.62089  1.0000
  H   H32       1.0  0.34574  0.69310  0.37911  1.0000
  H   H33       1.0  0.72174  0.90995  0.08859  1.0000
  H   H34       1.0  0.27826  0.09005  0.91142  1.0000
  H   H35       1.0  0.74801  0.11935  0.08605  1.0000
  H   H36       1.0  0.25198  0.88065  0.91395  1.0000
  H   H37       1.0  0.92916  0.06299  0.08999  1.0000
  H   H38       1.0  0.07083  0.93701  0.91001  1.0000
  H   H39       1.0  0.69575  0.06463  0.54027  1.0000
  H   H40       1.0  0.30427  0.93538  0.45973  1.0000
  H   H41       1.0  0.53569  0.00227  0.60224  1.0000
  H   H42       1.0  0.46433  0.99774  0.39776  1.0000
  H   H43       1.0  0.92030  0.00164  0.24388  1.0000
  H   H44       1.0  0.07970  0.99836  0.75612  1.0000
  C   C1        1.0  0.16139  0.31297  0.23994  1.0000
  C   C2        1.0  0.83861  0.68703  0.76006  1.0000
  C   C3        1.0  0.58349  0.85487  0.23893  1.0000
  C   C4        1.0  0.41650  0.14513  0.76107  1.0000
  C   C5        1.0  0.85485  0.08034  0.21724  1.0000
  C   C6        1.0  0.14515  0.91966  0.78276  1.0000
  C   C7        1.0  0.51105  0.35948  0.42155  1.0000
  C   C8        1.0  0.48895  0.64053  0.57845  1.0000
  C   C9        1.0  0.70476  0.57683  0.12344  1.0000
  C   C10       1.0  0.29523  0.42316  0.87656  1.0000
  C   C11       1.0  0.97800  0.26264  0.25337  1.0000
  C   C12       1.0  0.02201  0.73736  0.74663  1.0000
  C   C13       1.0  0.52122  0.31624  0.09313  1.0000
  C   C14       1.0  0.47878  0.68376  0.90687  1.0000
  C   C15       1.0  0.76790  0.45959  0.39529  1.0000
  C   C16       1.0  0.23211  0.54040  0.60471  1.0000
  C   C17       1.0  0.69008  0.04157  0.25368  1.0000
  C   C18       1.0  0.30992  0.95843  0.74632  1.0000
  C   C19       1.0  0.60272  0.34313  0.02336  1.0000
  C   C20       1.0  0.39728  0.65687  0.97664  1.0000
  C   C21       1.0  0.94046  0.51042  0.95998  1.0000
  C   C22       1.0  0.05953  0.48957  0.04001  1.0000
  C   C23       1.0  0.77946  0.38396  0.46911  1.0000
  C   C24       1.0  0.22055  0.61603  0.53088  1.0000
  C   C25       1.0  0.82974  0.59899  0.98779  1.0000
  C   C26       1.0  0.17025  0.40100  0.01220  1.0000
  C   C27       1.0  0.56547  0.23121  0.55736  1.0000
  C   C28       1.0  0.43455  0.76879  0.44264  1.0000
  C   C29       1.0  0.81128  0.04058  0.11446  1.0000
  C   C30       1.0  0.18871  0.95942  0.88554  1.0000
  C   C31       1.0  0.56488  0.05628  0.54247  1.0000
  C   C32       1.0  0.43513  0.94372  0.45753  1.0000
  N   N1        1.0  0.58548  0.46349  0.15492  1.0000
  N   N2        1.0  0.41452  0.53651  0.84508  1.0000
  N   N3        1.0  0.59975  0.44344  0.36643  1.0000
  N   N4        1.0  0.40026  0.55656  0.63356  1.0000
  N   N5        1.0  0.71802  0.50889  0.04384  1.0000
  N   N6        1.0  0.28197  0.49111  0.95616  1.0000
  N   N7        1.0  0.61579  0.32197  0.48504  1.0000
  N   N8        1.0  0.38422  0.67803  0.51496  1.0000
  O   O1        1.0  0.26014  0.47007  0.27227  1.0000
  O   O2        1.0  0.73987  0.52993  0.72774  1.0000
  O   O3        1.0  0.64532  0.77456  0.29321  1.0000
  O   O4        1.0  0.35467  0.22544  0.70679  1.0000
  O   O5        1.0  0.44939  0.78487  0.17738  1.0000
  O   O6        1.0  0.55060  0.21514  0.82262  1.0000
  O   O7        1.0  0.21137  0.21222  0.20291  1.0000
  O   O8        1.0  0.78862  0.78779  0.79708  1.0000
