data_image0
_chemical_formula_structural       Zn2H48C34N8O8
_chemical_formula_sum              "Zn2 H48 C34 N8 O8"
_cell_length_a       8.04877
_cell_length_b       8.64275
_cell_length_c       15.0949
_cell_angle_alpha    76.6456
_cell_angle_beta     88.9001
_cell_angle_gamma    86.5339

_space_group_name_H-M_alt    "P 1"
_space_group_IT_number       1

loop_
  _space_group_symop_operation_xyz
  'x, y, z'

loop_
  _atom_site_type_symbol
  _atom_site_label
  _atom_site_symmetry_multiplicity
  _atom_site_fract_x
  _atom_site_fract_y
  _atom_site_fract_z
  _atom_site_occupancy
  Zn  Zn1       1.0  0.22197  0.37621  0.26323  1.0000
  Zn  Zn2       1.0  0.77802  0.62379  0.73677  1.0000
  H   H1        1.0  0.96035  0.03088  0.89744  1.0000
  H   H2        1.0  0.03965  0.96910  0.10257  1.0000
  H   H3        1.0  0.82032  0.07066  0.98187  1.0000
  H   H4        1.0  0.17968  0.92932  0.01813  1.0000
  H   H5        1.0  0.26891  0.27458  0.07310  1.0000
  H   H6        1.0  0.73109  0.72542  0.92690  1.0000
  H   H7        1.0  0.14525  0.10533  0.44493  1.0000
  H   H8        1.0  0.85475  0.89467  0.55507  1.0000
  H   H9        1.0  0.41319  0.86107  0.16423  1.0000
  H   H10       1.0  0.58681  0.13893  0.83576  1.0000
  H   H11       1.0  0.25420  0.96129  0.21731  1.0000
  H   H12       1.0  0.74581  0.03871  0.78269  1.0000
  H   H13       1.0  0.53834  0.74642  0.32164  1.0000
  H   H14       1.0  0.46166  0.25357  0.67836  1.0000
  H   H15       1.0  0.39076  0.87046  0.36605  1.0000
  H   H16       1.0  0.60924  0.12954  0.63395  1.0000
  H   H17       1.0  0.15491  0.22311  0.93052  1.0000
  H   H18       1.0  0.84510  0.77688  0.06948  1.0000
  H   H19       1.0  0.95780  0.31259  0.89387  1.0000
  H   H20       1.0  0.04220  0.68740  0.10613  1.0000
  H   H21       1.0  0.53527  0.32383  0.49740  1.0000
  H   H22       1.0  0.46474  0.67617  0.50260  1.0000
  H   H23       1.0  0.55396  0.48665  0.40340  1.0000
  H   H24       1.0  0.44604  0.51336  0.59660  1.0000
  H   H25       1.0  0.91157  0.55852  0.34209  1.0000
  H   H26       1.0  0.08843  0.44149  0.65791  1.0000
  H   H27       1.0  0.76448  0.59811  0.49046  1.0000
  H   H28       1.0  0.23552  0.40191  0.50954  1.0000
  H   H29       1.0  0.74889  0.43188  0.58273  1.0000
  H   H30       1.0  0.25112  0.56814  0.41727  1.0000
  H   H31       1.0  0.90863  0.17061  0.57245  1.0000
  H   H32       1.0  0.09136  0.82940  0.42755  1.0000
  H   H33       1.0  0.74276  0.33293  0.04287  1.0000
  H   H34       1.0  0.25724  0.66706  0.95713  1.0000
  H   H35       1.0  0.83336  0.42003  0.19920  1.0000
  H   H36       1.0  0.16663  0.57997  0.80080  1.0000
  H   H37       1.0  0.58528  0.02381  0.42320  1.0000
  H   H38       1.0  0.41472  0.97620  0.57680  1.0000
  H   H39       1.0  0.74475  0.88821  0.39701  1.0000
  H   H40       1.0  0.25524  0.11179  0.60299  1.0000
  H   H41       1.0  0.76317  0.09658  0.35837  1.0000
  H   H42       1.0  0.23682  0.90342  0.64163  1.0000
  H   H43       1.0  0.65158  0.96203  0.14744  1.0000
  H   H44       1.0  0.34842  0.03796  0.85256  1.0000
  H   H45       1.0  0.79562  0.06688  0.19417  1.0000
  H   H46       1.0  0.20439  0.93312  0.80583  1.0000
  H   H47       1.0  0.78791  0.85791  0.23661  1.0000
  H   H48       1.0  0.21208  0.14208  0.76340  1.0000
  C   C1        1.0  0.58400  0.99677  0.28286  1.0000
  C   C2        1.0  0.41600  0.00323  0.71714  1.0000
  C   C3        1.0  0.47777  0.15337  0.24893  1.0000
  C   C4        1.0  0.52223  0.84663  0.75107  1.0000
  C   C5        1.0  0.95346  0.06308  0.96379  1.0000
  C   C6        1.0  0.04653  0.93690  0.03621  1.0000
  C   C7        1.0  0.13874  0.30423  0.08528  1.0000
  C   C8        1.0  0.86126  0.69576  0.91472  1.0000
  C   C9        1.0  0.24594  0.70710  0.24741  1.0000
  C   C10       1.0  0.75406  0.29290  0.75259  1.0000
  C   C11       1.0  0.05735  0.20638  0.44181  1.0000
  C   C12       1.0  0.94264  0.79363  0.55820  1.0000
  C   C13       1.0  0.34288  0.85714  0.22786  1.0000
  C   C14       1.0  0.65712  0.14286  0.77214  1.0000
  C   C15       1.0  0.46329  0.86000  0.30489  1.0000
  C   C16       1.0  0.53671  0.14000  0.69511  1.0000
  C   C17       1.0  0.02258  0.22773  0.94947  1.0000
  C   C18       1.0  0.97742  0.77226  0.05053  1.0000
  C   C19       1.0  0.56299  0.45045  0.47814  1.0000
  C   C20       1.0  0.43700  0.54956  0.52185  1.0000
  C   C21       1.0  0.93732  0.44062  0.38514  1.0000
  C   C22       1.0  0.06269  0.55939  0.61487  1.0000
  C   C23       1.0  0.73733  0.47153  0.50863  1.0000
  C   C24       1.0  0.26267  0.52848  0.49137  1.0000
  C   C25       1.0  0.94109  0.23632  0.50474  1.0000
  C   C26       1.0  0.05891  0.76369  0.49526  1.0000
  C   C27       1.0  0.86471  0.33632  0.07132  1.0000
  C   C28       1.0  0.13529  0.66367  0.92868  1.0000
  C   C29       1.0  0.91121  0.37791  0.14929  1.0000
  C   C30       1.0  0.08878  0.62209  0.85071  1.0000
  C   C31       1.0  0.67427  0.00212  0.37076  1.0000
  C   C32       1.0  0.32573  0.99788  0.62924  1.0000
  C   C33       1.0  0.71183  0.96869  0.21100  1.0000
  C   C34       1.0  0.28818  0.03130  0.78900  1.0000
  N   N1        1.0  0.01010  0.29042  0.03164  1.0000
  N   N2        1.0  0.98989  0.70958  0.96836  1.0000
  N   N3        1.0  0.08260  0.35768  0.15713  1.0000
  N   N4        1.0  0.91740  0.64232  0.84287  1.0000
  N   N5        1.0  0.05396  0.33518  0.36792  1.0000
  N   N6        1.0  0.94604  0.66482  0.63209  1.0000
  N   N7        1.0  0.86688  0.38503  0.46752  1.0000
  N   N8        1.0  0.13312  0.61498  0.53249  1.0000
  O   O1        1.0  0.48722  0.23249  0.16866  1.0000
  O   O2        1.0  0.51279  0.76750  0.83134  1.0000
  O   O3        1.0  0.37546  0.19008  0.30983  1.0000
  O   O4        1.0  0.62453  0.80991  0.69017  1.0000
  O   O5        1.0  0.33561  0.57614  0.24877  1.0000
  O   O6        1.0  0.66439  0.42386  0.75122  1.0000
  O   O7        1.0  0.09184  0.71482  0.26130  1.0000
  O   O8        1.0  0.90816  0.28518  0.73869  1.0000
