data_image0
_chemical_formula_structural       Cu4H44C60S4N12O12F12
_chemical_formula_sum              "Cu4 H44 C60 S4 N12 O12 F12"
_cell_length_a       7.90294
_cell_length_b       13.2285
_cell_length_c       15.2481
_cell_angle_alpha    103.675
_cell_angle_beta     89.9998
_cell_angle_gamma    89.9997

_space_group_name_H-M_alt    "P 1"
_space_group_IT_number       1

loop_
  _space_group_symop_operation_xyz
  'x, y, z'

loop_
  _atom_site_type_symbol
  _atom_site_label
  _atom_site_symmetry_multiplicity
  _atom_site_fract_x
  _atom_site_fract_y
  _atom_site_fract_z
  _atom_site_occupancy
  Cu  Cu1       1.0  0.09904  0.26642  0.12884  1.0000
  Cu  Cu2       1.0  0.40096  0.26641  0.62883  1.0000
  Cu  Cu3       1.0  0.90096  0.73358  0.87116  1.0000
  Cu  Cu4       1.0  0.59904  0.73359  0.37117  1.0000
  H   H1        1.0  0.04010  0.29886  0.94794  1.0000
  H   H2        1.0  0.45989  0.29884  0.44794  1.0000
  H   H3        1.0  0.95989  0.70115  0.05206  1.0000
  H   H4        1.0  0.54010  0.70115  0.55206  1.0000
  H   H5        1.0  0.11106  0.42319  0.85801  1.0000
  H   H6        1.0  0.38893  0.42317  0.35801  1.0000
  H   H7        1.0  0.88892  0.57682  0.14199  1.0000
  H   H8        1.0  0.61107  0.57682  0.64199  1.0000
  H   H9        1.0  0.28441  0.58225  0.92665  1.0000
  H   H10       1.0  0.21560  0.58224  0.42665  1.0000
  H   H11       1.0  0.71558  0.41776  0.07335  1.0000
  H   H12       1.0  0.78442  0.41776  0.57335  1.0000
  H   H13       1.0  0.27128  0.41392  0.22807  1.0000
  H   H14       1.0  0.22871  0.41392  0.72807  1.0000
  H   H15       1.0  0.72870  0.58608  0.77193  1.0000
  H   H16       1.0  0.77131  0.58609  0.27194  1.0000
  H   H17       1.0  0.43837  0.56865  0.30891  1.0000
  H   H18       1.0  0.06163  0.56865  0.80891  1.0000
  H   H19       1.0  0.56163  0.43134  0.69109  1.0000
  H   H20       1.0  0.93838  0.43135  0.19109  1.0000
  H   H21       1.0  0.43073  0.70440  0.99054  1.0000
  H   H22       1.0  0.06927  0.70440  0.49053  1.0000
  H   H23       1.0  0.56926  0.29560  0.00946  1.0000
  H   H24       1.0  0.93074  0.29560  0.50946  1.0000
  H   H25       1.0  0.61919  0.84230  0.07545  1.0000
  H   H26       1.0  0.88082  0.84229  0.57545  1.0000
  H   H27       1.0  0.38081  0.15771  0.92455  1.0000
  H   H28       1.0  0.11919  0.15770  0.42455  1.0000
  H   H29       1.0  0.69304  0.84626  0.23617  1.0000
  H   H30       1.0  0.80697  0.84626  0.73617  1.0000
  H   H31       1.0  0.30697  0.15374  0.76383  1.0000
  H   H32       1.0  0.19303  0.15374  0.26383  1.0000
  H   H33       1.0  0.92678  0.01371  0.84606  1.0000
  H   H34       1.0  0.57322  0.01370  0.34605  1.0000
  H   H35       1.0  0.07322  0.98630  0.15394  1.0000
  H   H36       1.0  0.42678  0.98629  0.65395  1.0000
  H   H37       1.0  0.74937  0.09847  0.87515  1.0000
  H   H38       1.0  0.75063  0.09846  0.37514  1.0000
  H   H39       1.0  0.25064  0.90153  0.12485  1.0000
  H   H40       1.0  0.24936  0.90153  0.62486  1.0000
  H   H41       1.0  0.76786  0.98490  0.91947  1.0000
  H   H42       1.0  0.73215  0.98489  0.41946  1.0000
  H   H43       1.0  0.23214  0.01510  0.08052  1.0000
  H   H44       1.0  0.26785  0.01510  0.58054  1.0000
  C   C1        1.0  0.11486  0.36737  0.97822  1.0000
  C   C2        1.0  0.38514  0.36736  0.47822  1.0000
  C   C3        1.0  0.88513  0.63263  0.02178  1.0000
  C   C4        1.0  0.61486  0.63263  0.52178  1.0000
  C   C5        1.0  0.15651  0.43890  0.92720  1.0000
  C   C6        1.0  0.34349  0.43889  0.42719  1.0000
  C   C7        1.0  0.84348  0.56110  0.07281  1.0000
  C   C8        1.0  0.65652  0.56111  0.57281  1.0000
  C   C9        1.0  0.25159  0.52579  0.96574  1.0000
  C   C10       1.0  0.24842  0.52578  0.46574  1.0000
  C   C11       1.0  0.74840  0.47421  0.03426  1.0000
  C   C12       1.0  0.75160  0.47422  0.53426  1.0000
  C   C13       1.0  0.30425  0.54058  0.05638  1.0000
  C   C14       1.0  0.19575  0.54057  0.55637  1.0000
  C   C15       1.0  0.69574  0.45943  0.94362  1.0000
  C   C16       1.0  0.80426  0.45943  0.44362  1.0000
  C   C17       1.0  0.25756  0.46375  0.10348  1.0000
  C   C18       1.0  0.24244  0.46374  0.60348  1.0000
  C   C19       1.0  0.74243  0.53626  0.89652  1.0000
  C   C20       1.0  0.75757  0.53626  0.39652  1.0000
  C   C21       1.0  0.30849  0.47499  0.19492  1.0000
  C   C22       1.0  0.19151  0.47499  0.69492  1.0000
  C   C23       1.0  0.69151  0.52501  0.80508  1.0000
  C   C24       1.0  0.80850  0.52501  0.30508  1.0000
  C   C25       1.0  0.40066  0.55876  0.23867  1.0000
  C   C26       1.0  0.09934  0.55876  0.73867  1.0000
  C   C27       1.0  0.59934  0.44124  0.76133  1.0000
  C   C28       1.0  0.90067  0.44124  0.26133  1.0000
  C   C29       1.0  0.45291  0.63658  0.19397  1.0000
  C   C30       1.0  0.04709  0.63658  0.69397  1.0000
  C   C31       1.0  0.54709  0.36342  0.80603  1.0000
  C   C32       1.0  0.95292  0.36342  0.30603  1.0000
  C   C33       1.0  0.40563  0.62852  0.10248  1.0000
  C   C34       1.0  0.09438  0.62852  0.60248  1.0000
  C   C35       1.0  0.59437  0.37148  0.89752  1.0000
  C   C36       1.0  0.90563  0.37148  0.39752  1.0000
  C   C37       1.0  0.46409  0.70574  0.06016  1.0000
  C   C38       1.0  0.03591  0.70574  0.56015  1.0000
  C   C39       1.0  0.53590  0.29426  0.93984  1.0000
  C   C40       1.0  0.96410  0.29426  0.43984  1.0000
  C   C41       1.0  0.56831  0.78374  0.10777  1.0000
  C   C42       1.0  0.93170  0.78373  0.60777  1.0000
  C   C43       1.0  0.43169  0.21627  0.89223  1.0000
  C   C44       1.0  0.06831  0.21626  0.39223  1.0000
  C   C45       1.0  0.60984  0.78634  0.19756  1.0000
  C   C46       1.0  0.89016  0.78634  0.69755  1.0000
  C   C47       1.0  0.39016  0.21366  0.80244  1.0000
  C   C48       1.0  0.10984  0.21366  0.30244  1.0000
  C   C49       1.0  0.93066  0.10846  0.97610  1.0000
  C   C50       1.0  0.56934  0.10846  0.47610  1.0000
  C   C51       1.0  0.06934  0.89153  0.02391  1.0000
  C   C52       1.0  0.43065  0.89154  0.52391  1.0000
  C   C53       1.0  0.83809  0.04793  0.90024  1.0000
  C   C54       1.0  0.66191  0.04792  0.40024  1.0000
  C   C55       1.0  0.16191  0.95207  0.09976  1.0000
  C   C56       1.0  0.33808  0.95207  0.59977  1.0000
  C   C57       1.0  0.62137  0.08808  0.16304  1.0000
  C   C58       1.0  0.87861  0.08808  0.66305  1.0000
  C   C59       1.0  0.37862  0.91192  0.83695  1.0000
  C   C60       1.0  0.12139  0.91192  0.33695  1.0000
  S   S1        1.0  0.53876  0.22346  0.17978  1.0000
  S   S2        1.0  0.96124  0.22346  0.67979  1.0000
  S   S3        1.0  0.46124  0.77654  0.82021  1.0000
  S   S4        1.0  0.03877  0.77655  0.32021  1.0000
  N   N1        1.0  0.16305  0.37809  0.06393  1.0000
  N   N2        1.0  0.33695  0.37808  0.56392  1.0000
  N   N3        1.0  0.83694  0.62192  0.93607  1.0000
  N   N4        1.0  0.66306  0.62192  0.43608  1.0000
  N   N5        1.0  0.55236  0.71631  0.24110  1.0000
  N   N6        1.0  0.94764  0.71631  0.74109  1.0000
  N   N7        1.0  0.44764  0.28368  0.75890  1.0000
  N   N8        1.0  0.05236  0.28369  0.25890  1.0000
  N   N9        1.0  0.00526  0.15828  0.03721  1.0000
  N   N10       1.0  0.49475  0.15827  0.53720  1.0000
  N   N11       1.0  0.99474  0.84171  0.96280  1.0000
  N   N12       1.0  0.50525  0.84172  0.46280  1.0000
  O   O1        1.0  0.66593  0.27620  0.13781  1.0000
  O   O2        1.0  0.83407  0.27621  0.63782  1.0000
  O   O3        1.0  0.33407  0.72379  0.86218  1.0000
  O   O4        1.0  0.16594  0.72380  0.36219  1.0000
  O   O5        1.0  0.37824  0.20337  0.13020  1.0000
  O   O6        1.0  0.12175  0.20336  0.63020  1.0000
  O   O7        1.0  0.62175  0.79663  0.86980  1.0000
  O   O8        1.0  0.87825  0.79664  0.36980  1.0000
  O   O9        1.0  0.52371  0.25813  0.27740  1.0000
  O   O10       1.0  0.97630  0.25814  0.77740  1.0000
  O   O11       1.0  0.47631  0.74187  0.72259  1.0000
  O   O12       1.0  0.02371  0.74187  0.22260  1.0000
  F   F1        1.0  0.51294  0.02957  0.20065  1.0000
  F   F2        1.0  0.98704  0.02957  0.70066  1.0000
  F   F3        1.0  0.48705  0.97043  0.79935  1.0000
  F   F4        1.0  0.01295  0.97043  0.29934  1.0000
  F   F5        1.0  0.77583  0.08451  0.20160  1.0000
  F   F6        1.0  0.72415  0.08452  0.70162  1.0000
  F   F7        1.0  0.22416  0.91549  0.79839  1.0000
  F   F8        1.0  0.27584  0.91549  0.29839  1.0000
  F   F9        1.0  0.63528  0.03998  0.07402  1.0000
  F   F10       1.0  0.86470  0.03998  0.57403  1.0000
  F   F11       1.0  0.36470  0.96002  0.92597  1.0000
  F   F12       1.0  0.13530  0.96003  0.42597  1.0000
