data_image0
_chemical_formula_structural       Nd2H22C32N4Cl12O12
_chemical_formula_sum              "Nd2 H22 C32 N4 Cl12 O12"
_cell_length_a       8.83413
_cell_length_b       12.1821
_cell_length_c       12.292
_cell_angle_alpha    109.266
_cell_angle_beta     104.97
_cell_angle_gamma    102.447

_space_group_name_H-M_alt    "P 1"
_space_group_IT_number       1

loop_
  _space_group_symop_operation_xyz
  'x, y, z'

loop_
  _atom_site_type_symbol
  _atom_site_label
  _atom_site_symmetry_multiplicity
  _atom_site_fract_x
  _atom_site_fract_y
  _atom_site_fract_z
  _atom_site_occupancy
  Nd  Nd1       1.0  0.34831  0.11720  0.00862  1.0000
  Nd  Nd2       1.0  0.65168  0.88280  0.99138  1.0000
  H   H1        1.0  0.91581  0.15460  0.95886  1.0000
  H   H2        1.0  0.08419  0.84540  0.04114  1.0000
  H   H3        1.0  0.05418  0.87028  0.69283  1.0000
  H   H4        1.0  0.94582  0.12972  0.30717  1.0000
  H   H5        1.0  0.50273  0.11223  0.39518  1.0000
  H   H6        1.0  0.49728  0.88777  0.60482  1.0000
  H   H7        1.0  0.49473  0.33034  0.30214  1.0000
  H   H8        1.0  0.50526  0.66966  0.69786  1.0000
  H   H9        1.0  0.54805  0.54983  0.43967  1.0000
  H   H10       1.0  0.45195  0.45017  0.56034  1.0000
  H   H11       1.0  0.47087  0.69108  0.34031  1.0000
  H   H12       1.0  0.52913  0.30892  0.65969  1.0000
  H   H13       1.0  0.35694  0.61044  0.11278  1.0000
  H   H14       1.0  0.64306  0.38956  0.88722  1.0000
  H   H15       1.0  0.29427  0.54287  0.93016  1.0000
  H   H16       1.0  0.70572  0.45713  0.06984  1.0000
  H   H17       1.0  0.14245  0.43960  0.70406  1.0000
  H   H18       1.0  0.85755  0.56040  0.29594  1.0000
  H   H19       1.0  0.05706  0.20806  0.59916  1.0000
  H   H20       1.0  0.94294  0.79194  0.40084  1.0000
  H   H21       1.0  0.13877  0.09364  0.72678  1.0000
  H   H22       1.0  0.86124  0.90636  0.27321  1.0000
  C   C1        1.0  0.68438  0.17990  0.97781  1.0000
  C   C2        1.0  0.31562  0.82010  0.02219  1.0000
  C   C3        1.0  0.83387  0.20659  0.93781  1.0000
  C   C4        1.0  0.16613  0.79341  0.06219  1.0000
  C   C5        1.0  0.92796  0.91416  0.82491  1.0000
  C   C6        1.0  0.07204  0.08584  0.17509  1.0000
  C   C7        1.0  0.93978  0.82929  0.70424  1.0000
  C   C8        1.0  0.06022  0.17071  0.29577  1.0000
  C   C9        1.0  0.61283  0.08927  0.25424  1.0000
  C   C10       1.0  0.38717  0.91074  0.74576  1.0000
  C   C11       1.0  0.62712  0.12233  0.39079  1.0000
  C   C12       1.0  0.37289  0.87767  0.60921  1.0000
  C   C13       1.0  0.46532  0.39551  0.26404  1.0000
  C   C14       1.0  0.53468  0.60449  0.73596  1.0000
  C   C15       1.0  0.49392  0.51734  0.33985  1.0000
  C   C16       1.0  0.50608  0.48266  0.66015  1.0000
  C   C17       1.0  0.45258  0.59540  0.28482  1.0000
  C   C18       1.0  0.54742  0.40460  0.71518  1.0000
  C   C19       1.0  0.38746  0.55000  0.15688  1.0000
  C   C20       1.0  0.61254  0.45000  0.84312  1.0000
  C   C21       1.0  0.36273  0.42639  0.08626  1.0000
  C   C22       1.0  0.63727  0.57361  0.91374  1.0000
  C   C23       1.0  0.28824  0.37167  0.94979  1.0000
  C   C24       1.0  0.71175  0.62833  0.05021  1.0000
  C   C25       1.0  0.25557  0.44317  0.88346  1.0000
  C   C26       1.0  0.74443  0.55683  0.11654  1.0000
  C   C27       1.0  0.17113  0.38522  0.75650  1.0000
  C   C28       1.0  0.82887  0.61478  0.24350  1.0000
  C   C29       1.0  0.12477  0.25760  0.69791  1.0000
  C   C30       1.0  0.87522  0.74240  0.30208  1.0000
  C   C31       1.0  0.16782  0.19309  0.76900  1.0000
  C   C32       1.0  0.83219  0.80691  0.23100  1.0000
  N   N1        1.0  0.40051  0.35033  0.14024  1.0000
  N   N2        1.0  0.59949  0.64967  0.85976  1.0000
  N   N3        1.0  0.24685  0.24783  0.89187  1.0000
  N   N4        1.0  0.75315  0.75217  0.10812  1.0000
  Cl  Cl1       1.0  0.95111  0.36516  0.01136  1.0000
  Cl  Cl2       1.0  0.04889  0.63484  0.98864  1.0000
  Cl  Cl3       1.0  0.75570  0.15386  0.77347  1.0000
  Cl  Cl4       1.0  0.24429  0.84614  0.22653  1.0000
  Cl  Cl5       1.0  0.77173  0.81152  0.57479  1.0000
  Cl  Cl6       1.0  0.22826  0.18848  0.42521  1.0000
  Cl  Cl7       1.0  0.94168  0.68473  0.70730  1.0000
  Cl  Cl8       1.0  0.05832  0.31526  0.29271  1.0000
  Cl  Cl9       1.0  0.70653  0.02633  0.45465  1.0000
  Cl  Cl10      1.0  0.29348  0.97368  0.54534  1.0000
  Cl  Cl11      1.0  0.74902  0.28099  0.48286  1.0000
  Cl  Cl12      1.0  0.25099  0.71901  0.51715  1.0000
  O   O1        1.0  0.65209  0.08259  0.99702  1.0000
  O   O2        1.0  0.34791  0.91741  0.00298  1.0000
  O   O3        1.0  0.59767  0.24969  0.98620  1.0000
  O   O4        1.0  0.40234  0.75032  0.01381  1.0000
  O   O5        1.0  0.05157  0.01157  0.88944  1.0000
  O   O6        1.0  0.94843  0.98843  0.11056  1.0000
  O   O7        1.0  0.79841  0.88075  0.84663  1.0000
  O   O8        1.0  0.20160  0.11925  0.15338  1.0000
  O   O9        1.0  0.54564  0.15265  0.20764  1.0000
  O   O10       1.0  0.45437  0.84736  0.79236  1.0000
  O   O11       1.0  0.66399  0.00400  0.20369  1.0000
  O   O12       1.0  0.33602  0.99600  0.79631  1.0000
