data_image0
_chemical_formula_structural       Ba2H16C4N16O8
_chemical_formula_sum              "Ba2 H16 C4 N16 O8"
_cell_length_a       7.57227
_cell_length_b       7.25425
_cell_length_c       9.40814
_cell_angle_alpha    83.9054
_cell_angle_beta     73.7893
_cell_angle_gamma    85.6914

_space_group_name_H-M_alt    "P 1"
_space_group_IT_number       1

loop_
  _space_group_symop_operation_xyz
  'x, y, z'

loop_
  _atom_site_type_symbol
  _atom_site_label
  _atom_site_symmetry_multiplicity
  _atom_site_fract_x
  _atom_site_fract_y
  _atom_site_fract_z
  _atom_site_occupancy
  Ba  Ba1       1.0  0.71978  0.93437  0.62890  1.0000
  Ba  Ba2       1.0  0.28022  0.06563  0.37110  1.0000
  H   H1        1.0  0.55850  0.52405  0.78514  1.0000
  H   H2        1.0  0.44150  0.47595  0.21486  1.0000
  H   H3        1.0  0.72579  0.57917  0.83473  1.0000
  H   H4        1.0  0.27421  0.42083  0.16527  1.0000
  H   H5        1.0  0.53448  0.22436  0.87301  1.0000
  H   H6        1.0  0.46552  0.77564  0.12699  1.0000
  H   H7        1.0  0.68378  0.13874  0.95130  1.0000
  H   H8        1.0  0.31623  0.86126  0.04870  1.0000
  H   H9        1.0  0.57037  0.32420  0.45854  1.0000
  H   H10       1.0  0.42963  0.67579  0.54146  1.0000
  H   H11       1.0  0.39928  0.30915  0.60536  1.0000
  H   H12       1.0  0.60072  0.69085  0.39464  1.0000
  H   H13       1.0  0.88336  0.35730  0.58781  1.0000
  H   H14       1.0  0.11664  0.64271  0.41219  1.0000
  H   H15       1.0  0.99476  0.24720  0.68501  1.0000
  H   H16       1.0  0.00524  0.75281  0.31498  1.0000
  C   C1        1.0  0.05428  0.79957  0.90241  1.0000
  C   C2        1.0  0.94572  0.20044  0.09759  1.0000
  C   C3        1.0  0.91428  0.71444  0.02533  1.0000
  C   C4        1.0  0.08572  0.28556  0.97467  1.0000
  N   N1        1.0  0.76771  0.63706  0.00463  1.0000
  N   N2        1.0  0.23229  0.36294  0.99537  1.0000
  N   N3        1.0  0.75107  0.61676  0.23989  1.0000
  N   N4        1.0  0.24893  0.38324  0.76011  1.0000
  N   N5        1.0  0.90713  0.70192  0.17088  1.0000
  N   N6        1.0  0.09287  0.29808  0.82911  1.0000
  N   N7        1.0  0.66760  0.57879  0.14080  1.0000
  N   N8        1.0  0.33240  0.42121  0.85920  1.0000
  N   N9        1.0  0.03135  0.84059  0.76517  1.0000
  N   N10       1.0  0.96866  0.15941  0.23483  1.0000
  N   N11       1.0  0.19212  0.90657  0.68289  1.0000
  N   N12       1.0  0.80788  0.09343  0.31711  1.0000
  N   N13       1.0  0.30750  0.90628  0.76640  1.0000
  N   N14       1.0  0.69250  0.09372  0.23360  1.0000
  N   N15       1.0  0.22352  0.84079  0.90532  1.0000
  N   N16       1.0  0.77648  0.15921  0.09468  1.0000
  O   O1        1.0  0.68441  0.57060  0.74364  1.0000
  O   O2        1.0  0.31559  0.42940  0.25636  1.0000
  O   O3        1.0  0.63042  0.12566  0.86646  1.0000
  O   O4        1.0  0.36958  0.87435  0.13354  1.0000
  O   O5        1.0  0.49066  0.23706  0.52892  1.0000
  O   O6        1.0  0.50934  0.76293  0.47108  1.0000
  O   O7        1.0  0.96312  0.24473  0.58847  1.0000
  O   O8        1.0  0.03688  0.75528  0.41153  1.0000
