data_image0
_chemical_formula_structural       Rb4H8C4N16O4
_chemical_formula_sum              "Rb4 H8 C4 N16 O4"
_cell_length_a       4.1014
_cell_length_b       10.0069
_cell_length_c       11.3094
_cell_angle_alpha    90.0001
_cell_angle_beta     90
_cell_angle_gamma    94.2846

_space_group_name_H-M_alt    "P 1"
_space_group_IT_number       1

loop_
  _space_group_symop_operation_xyz
  'x, y, z'

loop_
  _atom_site_type_symbol
  _atom_site_label
  _atom_site_symmetry_multiplicity
  _atom_site_fract_x
  _atom_site_fract_y
  _atom_site_fract_z
  _atom_site_occupancy
  Rb  Rb1       1.0  0.75778  0.82899  0.59481  1.0000
  Rb  Rb2       1.0  0.24222  0.67101  0.09481  1.0000
  Rb  Rb3       1.0  0.24222  0.17101  0.40519  1.0000
  Rb  Rb4       1.0  0.75778  0.32899  0.90519  1.0000
  H   H1        1.0  0.41268  0.88896  0.33598  1.0000
  H   H2        1.0  0.58732  0.61104  0.83598  1.0000
  H   H3        1.0  0.58732  0.11104  0.66402  1.0000
  H   H4        1.0  0.41268  0.38896  0.16402  1.0000
  H   H5        1.0  0.15317  0.78174  0.39261  1.0000
  H   H6        1.0  0.84683  0.71826  0.89261  1.0000
  H   H7        1.0  0.84683  0.21826  0.60739  1.0000
  H   H8        1.0  0.15317  0.28174  0.10739  1.0000
  C   C1        1.0  0.08210  0.99386  0.94373  1.0000
  C   C2        1.0  0.91790  0.50614  0.44373  1.0000
  C   C3        1.0  0.91790  0.00614  0.05627  1.0000
  C   C4        1.0  0.08210  0.49386  0.55627  1.0000
  N   N1        1.0  0.35436  0.04171  0.78782  1.0000
  N   N2        1.0  0.64564  0.45829  0.28782  1.0000
  N   N3        1.0  0.64564  0.95829  0.21218  1.0000
  N   N4        1.0  0.35436  0.54171  0.71218  1.0000
  N   N5        1.0  0.09725  0.87803  0.88371  1.0000
  N   N6        1.0  0.90275  0.62197  0.38371  1.0000
  N   N7        1.0  0.90275  0.12196  0.11629  1.0000
  N   N8        1.0  0.09725  0.37804  0.61629  1.0000
  N   N9        1.0  0.27134  0.91142  0.78615  1.0000
  N   N10       1.0  0.72866  0.58858  0.28615  1.0000
  N   N11       1.0  0.72866  0.08858  0.21385  1.0000
  N   N12       1.0  0.27134  0.41142  0.71385  1.0000
  N   N13       1.0  0.23977  0.09714  0.88591  1.0000
  N   N14       1.0  0.76023  0.40286  0.38592  1.0000
  N   N15       1.0  0.76023  0.90286  0.11409  1.0000
  N   N16       1.0  0.23977  0.59714  0.61409  1.0000
  O   O1        1.0  0.27839  0.86908  0.40830  1.0000
  O   O2        1.0  0.72161  0.63093  0.90830  1.0000
  O   O3        1.0  0.72161  0.13093  0.59170  1.0000
  O   O4        1.0  0.27840  0.36908  0.09170  1.0000
