data_image0
_chemical_formula_structural       Cu4H48C76S4N12
_chemical_formula_sum              "Cu4 H48 C76 S4 N12"
_cell_length_a       8.82073
_cell_length_b       10.817
_cell_length_c       15.7789
_cell_angle_alpha    90.0003
_cell_angle_beta     90.0003
_cell_angle_gamma    89.9996

_space_group_name_H-M_alt    "P 1"
_space_group_IT_number       1

loop_
  _space_group_symop_operation_xyz
  'x, y, z'

loop_
  _atom_site_type_symbol
  _atom_site_label
  _atom_site_symmetry_multiplicity
  _atom_site_fract_x
  _atom_site_fract_y
  _atom_site_fract_z
  _atom_site_occupancy
  Cu  Cu1       1.0  0.77000  0.43936  0.25000  1.0000
  Cu  Cu2       1.0  0.73000  0.93937  0.75000  1.0000
  Cu  Cu3       1.0  0.26999  0.06062  0.25000  1.0000
  Cu  Cu4       1.0  0.23001  0.56063  0.75000  1.0000
  H   H1        1.0  0.12417  0.79187  0.18671  1.0000
  H   H2        1.0  0.37584  0.29187  0.81328  1.0000
  H   H3        1.0  0.62416  0.70813  0.31328  1.0000
  H   H4        1.0  0.87583  0.20813  0.68672  1.0000
  H   H5        1.0  0.87583  0.20814  0.81328  1.0000
  H   H6        1.0  0.62417  0.70813  0.18672  1.0000
  H   H7        1.0  0.37583  0.29187  0.68672  1.0000
  H   H8        1.0  0.12416  0.79187  0.31328  1.0000
  H   H9        1.0  0.10206  0.79273  0.03026  1.0000
  H   H10       1.0  0.39793  0.29273  0.96974  1.0000
  H   H11       1.0  0.60207  0.70728  0.46973  1.0000
  H   H12       1.0  0.89793  0.20728  0.53027  1.0000
  H   H13       1.0  0.89793  0.20728  0.96974  1.0000
  H   H14       1.0  0.60207  0.70728  0.03026  1.0000
  H   H15       1.0  0.39793  0.29272  0.53026  1.0000
  H   H16       1.0  0.10206  0.79273  0.46973  1.0000
  H   H17       1.0  0.97271  0.71381  0.89982  1.0000
  H   H18       1.0  0.52729  0.21381  0.10018  1.0000
  H   H19       1.0  0.47272  0.78619  0.60017  1.0000
  H   H20       1.0  0.02729  0.28620  0.39983  1.0000
  H   H21       1.0  0.02728  0.28620  0.10018  1.0000
  H   H22       1.0  0.47272  0.78620  0.89982  1.0000
  H   H23       1.0  0.52729  0.21380  0.39982  1.0000
  H   H24       1.0  0.97271  0.71380  0.60017  1.0000
  H   H25       1.0  0.78064  0.57522  0.83512  1.0000
  H   H26       1.0  0.71936  0.07521  0.16488  1.0000
  H   H27       1.0  0.28064  0.92478  0.66488  1.0000
  H   H28       1.0  0.21936  0.42478  0.33513  1.0000
  H   H29       1.0  0.21935  0.42478  0.16488  1.0000
  H   H30       1.0  0.28065  0.92479  0.83512  1.0000
  H   H31       1.0  0.71936  0.07522  0.33513  1.0000
  H   H32       1.0  0.78064  0.57522  0.66487  1.0000
  H   H33       1.0  0.63004  0.43298  0.92474  1.0000
  H   H34       1.0  0.86996  0.93298  0.07526  1.0000
  H   H35       1.0  0.13004  0.06702  0.57525  1.0000
  H   H36       1.0  0.36995  0.56702  0.42475  1.0000
  H   H37       1.0  0.36996  0.56702  0.07526  1.0000
  H   H38       1.0  0.13005  0.06703  0.92475  1.0000
  H   H39       1.0  0.86996  0.93298  0.42475  1.0000
  H   H40       1.0  0.63004  0.43298  0.57525  1.0000
  H   H41       1.0  0.67091  0.42618  0.08181  1.0000
  H   H42       1.0  0.82909  0.92618  0.91819  1.0000
  H   H43       1.0  0.17091  0.07382  0.41819  1.0000
  H   H44       1.0  0.32908  0.57382  0.58182  1.0000
  H   H45       1.0  0.32909  0.57382  0.91819  1.0000
  H   H46       1.0  0.17092  0.07383  0.08182  1.0000
  H   H47       1.0  0.82909  0.92617  0.58182  1.0000
  H   H48       1.0  0.67092  0.42618  0.41818  1.0000
  C   C1        1.0  0.95502  0.64666  0.29684  1.0000
  C   C2        1.0  0.54499  0.14666  0.70316  1.0000
  C   C3        1.0  0.45502  0.85335  0.20316  1.0000
  C   C4        1.0  0.04499  0.35334  0.79685  1.0000
  C   C5        1.0  0.04498  0.35334  0.70316  1.0000
  C   C6        1.0  0.45501  0.85334  0.29684  1.0000
  C   C7        1.0  0.54499  0.14666  0.79684  1.0000
  C   C8        1.0  0.95501  0.64665  0.20315  1.0000
  C   C9        1.0  0.04587  0.72917  0.15536  1.0000
  C   C10       1.0  0.45413  0.22917  0.84464  1.0000
  C   C11       1.0  0.54586  0.77083  0.34464  1.0000
  C   C12       1.0  0.95413  0.27084  0.65536  1.0000
  C   C13       1.0  0.95413  0.27083  0.84464  1.0000
  C   C14       1.0  0.54587  0.77083  0.15536  1.0000
  C   C15       1.0  0.45413  0.22917  0.65536  1.0000
  C   C16       1.0  0.04587  0.72917  0.34464  1.0000
  C   C17       1.0  0.03325  0.73045  0.06853  1.0000
  C   C18       1.0  0.46675  0.23045  0.93146  1.0000
  C   C19       1.0  0.53325  0.76955  0.43146  1.0000
  C   C20       1.0  0.96674  0.26955  0.56855  1.0000
  C   C21       1.0  0.96675  0.26955  0.93146  1.0000
  C   C22       1.0  0.53325  0.76955  0.06854  1.0000
  C   C23       1.0  0.46675  0.23045  0.56855  1.0000
  C   C24       1.0  0.03325  0.73045  0.43145  1.0000
  C   C25       1.0  0.92791  0.65168  0.02800  1.0000
  C   C26       1.0  0.57209  0.15167  0.97200  1.0000
  C   C27       1.0  0.42791  0.84833  0.47199  1.0000
  C   C28       1.0  0.07209  0.34833  0.52800  1.0000
  C   C29       1.0  0.07209  0.34833  0.97200  1.0000
  C   C30       1.0  0.42791  0.84833  0.02800  1.0000
  C   C31       1.0  0.57209  0.15167  0.52800  1.0000
  C   C32       1.0  0.92791  0.65167  0.47199  1.0000
  C   C33       1.0  0.90480  0.65220  0.93922  1.0000
  C   C34       1.0  0.59520  0.15219  0.06078  1.0000
  C   C35       1.0  0.40480  0.84781  0.56078  1.0000
  C   C36       1.0  0.09519  0.34780  0.43922  1.0000
  C   C37       1.0  0.09519  0.34781  0.06078  1.0000
  C   C38       1.0  0.40480  0.84781  0.93922  1.0000
  C   C39       1.0  0.59520  0.15219  0.43922  1.0000
  C   C40       1.0  0.90480  0.65220  0.56077  1.0000
  C   C41       1.0  0.79894  0.57448  0.90331  1.0000
  C   C42       1.0  0.70105  0.07448  0.09669  1.0000
  C   C43       1.0  0.29895  0.92552  0.59668  1.0000
  C   C44       1.0  0.20106  0.42552  0.40332  1.0000
  C   C45       1.0  0.20105  0.42552  0.09669  1.0000
  C   C46       1.0  0.29895  0.92552  0.90331  1.0000
  C   C47       1.0  0.70105  0.07448  0.40331  1.0000
  C   C48       1.0  0.79894  0.57449  0.59668  1.0000
  C   C49       1.0  0.71367  0.49289  0.95463  1.0000
  C   C50       1.0  0.78633  0.99289  0.04537  1.0000
  C   C51       1.0  0.21367  0.00711  0.54537  1.0000
  C   C52       1.0  0.28632  0.50711  0.45464  1.0000
  C   C53       1.0  0.28633  0.50711  0.04537  1.0000
  C   C54       1.0  0.21368  0.00712  0.95464  1.0000
  C   C55       1.0  0.78633  0.99289  0.45464  1.0000
  C   C56       1.0  0.71367  0.49289  0.54536  1.0000
  C   C57       1.0  0.73545  0.48861  0.04124  1.0000
  C   C58       1.0  0.76455  0.98862  0.95876  1.0000
  C   C59       1.0  0.23545  0.01139  0.45875  1.0000
  C   C60       1.0  0.26455  0.51139  0.54125  1.0000
  C   C61       1.0  0.26455  0.51139  0.95876  1.0000
  C   C62       1.0  0.23546  0.01139  0.04124  1.0000
  C   C63       1.0  0.76454  0.98861  0.54125  1.0000
  C   C64       1.0  0.73545  0.48861  0.45875  1.0000
  C   C65       1.0  0.84227  0.56847  0.07994  1.0000
  C   C66       1.0  0.65773  0.06846  0.92006  1.0000
  C   C67       1.0  0.34227  0.93154  0.42006  1.0000
  C   C68       1.0  0.15771  0.43153  0.57994  1.0000
  C   C69       1.0  0.15773  0.43153  0.92006  1.0000
  C   C70       1.0  0.34227  0.93154  0.07994  1.0000
  C   C71       1.0  0.65773  0.06846  0.57994  1.0000
  C   C72       1.0  0.84228  0.56846  0.42005  1.0000
  C   C73       1.0  0.93417  0.18889  0.25000  1.0000
  C   C74       1.0  0.56585  0.68890  0.75001  1.0000
  C   C75       1.0  0.43415  0.31111  0.25000  1.0000
  C   C76       1.0  0.06584  0.81111  0.75000  1.0000
  S   S1        1.0  0.01177  0.05117  0.25000  1.0000
  S   S2        1.0  0.48823  0.55118  0.75000  1.0000
  S   S3        1.0  0.51177  0.44882  0.25000  1.0000
  S   S4        1.0  0.98823  0.94883  0.75000  1.0000
  N   N1        1.0  0.85902  0.56689  0.33378  1.0000
  N   N2        1.0  0.64098  0.06689  0.66622  1.0000
  N   N3        1.0  0.35902  0.93311  0.16622  1.0000
  N   N4        1.0  0.14099  0.43310  0.83378  1.0000
  N   N5        1.0  0.14098  0.43311  0.66622  1.0000
  N   N6        1.0  0.35902  0.93310  0.33378  1.0000
  N   N7        1.0  0.64098  0.06689  0.83378  1.0000
  N   N8        1.0  0.85902  0.56689  0.16622  1.0000
  N   N9        1.0  0.86910  0.28467  0.25000  1.0000
  N   N10       1.0  0.63090  0.78468  0.75001  1.0000
  N   N11       1.0  0.36909  0.21531  0.25000  1.0000
  N   N12       1.0  0.13090  0.71532  0.75000  1.0000
