data_image0
_chemical_formula_structural       K4H8C4N16O4
_chemical_formula_sum              "K4 H8 C4 N16 O4"
_cell_length_a       3.89096
_cell_length_b       9.77734
_cell_length_c       11.2559
_cell_angle_alpha    90.0002
_cell_angle_beta     90.0001
_cell_angle_gamma    93.8326

_space_group_name_H-M_alt    "P 1"
_space_group_IT_number       1

loop_
  _space_group_symop_operation_xyz
  'x, y, z'

loop_
  _atom_site_type_symbol
  _atom_site_label
  _atom_site_symmetry_multiplicity
  _atom_site_fract_x
  _atom_site_fract_y
  _atom_site_fract_z
  _atom_site_occupancy
  K   K1        1.0  0.25491  0.83105  0.90437  1.0000
  K   K2        1.0  0.74509  0.66895  0.40438  1.0000
  K   K3        1.0  0.74509  0.16895  0.09563  1.0000
  K   K4        1.0  0.25491  0.33105  0.59563  1.0000
  H   H1        1.0  0.92702  0.89118  0.15363  1.0000
  H   H2        1.0  0.07297  0.60882  0.65363  1.0000
  H   H3        1.0  0.07297  0.10882  0.84637  1.0000
  H   H4        1.0  0.92702  0.39118  0.34637  1.0000
  H   H5        1.0  0.64556  0.78575  0.10008  1.0000
  H   H6        1.0  0.35443  0.71425  0.60008  1.0000
  H   H7        1.0  0.35444  0.21425  0.89992  1.0000
  H   H8        1.0  0.64556  0.28575  0.39992  1.0000
  C   C1        1.0  0.58051  0.99431  0.55768  1.0000
  C   C2        1.0  0.41949  0.50569  0.05768  1.0000
  C   C3        1.0  0.41949  0.00569  0.44232  1.0000
  C   C4        1.0  0.58051  0.49430  0.94232  1.0000
  N   N1        1.0  0.60455  0.87558  0.61686  1.0000
  N   N2        1.0  0.39545  0.62442  0.11686  1.0000
  N   N3        1.0  0.39545  0.12442  0.38314  1.0000
  N   N4        1.0  0.60455  0.37558  0.88314  1.0000
  N   N5        1.0  0.77025  0.91077  0.71809  1.0000
  N   N6        1.0  0.22975  0.58923  0.21809  1.0000
  N   N7        1.0  0.22975  0.08923  0.28191  1.0000
  N   N8        1.0  0.77026  0.41077  0.78191  1.0000
  N   N9        1.0  0.84044  0.04501  0.71915  1.0000
  N   N10       1.0  0.15956  0.45499  0.21915  1.0000
  N   N11       1.0  0.15956  0.95499  0.28085  1.0000
  N   N12       1.0  0.84044  0.54501  0.78085  1.0000
  N   N13       1.0  0.72586  0.10132  0.61937  1.0000
  N   N14       1.0  0.27414  0.39868  0.11937  1.0000
  N   N15       1.0  0.27414  0.89868  0.38063  1.0000
  N   N16       1.0  0.72586  0.60132  0.88063  1.0000
  O   O1        1.0  0.78303  0.87280  0.08116  1.0000
  O   O2        1.0  0.21698  0.62720  0.58117  1.0000
  O   O3        1.0  0.21698  0.12720  0.91884  1.0000
  O   O4        1.0  0.78302  0.37280  0.41884  1.0000
