data_image0
_chemical_formula_structural       Zn2H12C16O10
_chemical_formula_sum              "Zn2 H12 C16 O10"
_cell_length_a       5.88068
_cell_length_b       7.78964
_cell_length_c       9.67699
_cell_angle_alpha    89.8513
_cell_angle_beta     111.074
_cell_angle_gamma    86.2662

_space_group_name_H-M_alt    "P 1"
_space_group_IT_number       1

loop_
  _space_group_symop_operation_xyz
  'x, y, z'

loop_
  _atom_site_type_symbol
  _atom_site_label
  _atom_site_symmetry_multiplicity
  _atom_site_fract_x
  _atom_site_fract_y
  _atom_site_fract_z
  _atom_site_occupancy
  Zn  Zn1       1.0  0.69580  0.25236  0.00912  1.0000
  Zn  Zn2       1.0  0.30421  0.74765  0.99089  1.0000
  H   H1        1.0  0.13367  0.34192  0.04963  1.0000
  H   H2        1.0  0.12661  0.14644  0.99632  1.0000
  H   H3        1.0  0.86635  0.65809  0.95036  1.0000
  H   H4        1.0  0.87338  0.85356  0.00367  1.0000
  H   H5        1.0  0.87317  0.91849  0.70927  1.0000
  H   H6        1.0  0.14180  0.60030  0.27772  1.0000
  H   H7        1.0  0.12685  0.08152  0.29072  1.0000
  H   H8        1.0  0.85816  0.39969  0.72228  1.0000
  H   H9        1.0  0.38433  0.14726  0.55094  1.0000
  H   H10       1.0  0.86203  0.34729  0.46810  1.0000
  H   H11       1.0  0.61568  0.85275  0.44904  1.0000
  H   H12       1.0  0.13798  0.65269  0.53191  1.0000
  C   C1        1.0  0.29204  0.07987  0.80033  1.0000
  C   C2        1.0  0.50263  0.43509  0.20656  1.0000
  C   C3        1.0  0.70798  0.92013  0.19968  1.0000
  C   C4        1.0  0.49735  0.56490  0.79346  1.0000
  C   C5        1.0  0.14337  0.03709  0.64522  1.0000
  C   C6        1.0  0.50270  0.47109  0.35792  1.0000
  C   C7        1.0  0.85662  0.96293  0.35476  1.0000
  C   C8        1.0  0.49728  0.52888  0.64205  1.0000
  C   C9        1.0  0.92651  0.95448  0.61693  1.0000
  C   C10       1.0  0.29802  0.55707  0.37556  1.0000
  C   C11       1.0  0.07353  0.04555  0.38307  1.0000
  C   C12       1.0  0.70197  0.44293  0.62447  1.0000
  C   C13       1.0  0.21625  0.08249  0.52766  1.0000
  C   C14       1.0  0.70456  0.41411  0.48328  1.0000
  C   C15       1.0  0.78377  0.91754  0.47232  1.0000
  C   C16       1.0  0.29542  0.58588  0.51676  1.0000
  O   O1        1.0  0.46012  0.18305  0.81776  1.0000
  O   O2        1.0  0.67820  0.33637  0.19774  1.0000
  O   O3        1.0  0.53989  0.81695  0.18224  1.0000
  O   O4        1.0  0.32175  0.66362  0.80226  1.0000
  O   O5        1.0  0.24102  0.01733  0.90704  1.0000
  O   O6        1.0  0.32407  0.49687  0.09269  1.0000
  O   O7        1.0  0.75899  0.98268  0.09295  1.0000
  O   O8        1.0  0.67595  0.50311  0.90733  1.0000
  O   O9        1.0  0.05373  0.23266  0.04832  1.0000
  O   O10       1.0  0.94627  0.76733  0.95167  1.0000
