data_image0
_chemical_formula_structural       Ag4H22C24S4N6O12
_chemical_formula_sum              "Ag4 H22 C24 S4 N6 O12"
_cell_length_a       8.21483
_cell_length_b       10.2919
_cell_length_c       11.0344
_cell_angle_alpha    89.2159
_cell_angle_beta     73.3305
_cell_angle_gamma    67.4405

_space_group_name_H-M_alt    "P 1"
_space_group_IT_number       1

loop_
  _space_group_symop_operation_xyz
  'x, y, z'

loop_
  _atom_site_type_symbol
  _atom_site_label
  _atom_site_symmetry_multiplicity
  _atom_site_fract_x
  _atom_site_fract_y
  _atom_site_fract_z
  _atom_site_occupancy
  Ag  Ag1       1.0  0.39613  0.44727  0.34925  1.0000
  Ag  Ag2       1.0  0.60387  0.55273  0.65075  1.0000
  Ag  Ag3       1.0  0.49473  0.80675  0.09505  1.0000
  Ag  Ag4       1.0  0.50528  0.19325  0.90495  1.0000
  H   H1        1.0  0.23000  0.74532  0.48294  1.0000
  H   H2        1.0  0.77000  0.25468  0.51705  1.0000
  H   H3        1.0  0.91847  0.94645  0.56310  1.0000
  H   H4        1.0  0.08153  0.05355  0.43690  1.0000
  H   H5        1.0  0.65175  0.93353  0.50803  1.0000
  H   H6        1.0  0.34825  0.06647  0.49197  1.0000
  H   H7        1.0  0.01276  0.51017  0.32517  1.0000
  H   H8        1.0  0.98724  0.48982  0.67484  1.0000
  H   H9        1.0  0.49469  0.13535  0.27203  1.0000
  H   H10       1.0  0.50531  0.86464  0.72797  1.0000
  H   H11       1.0  0.77520  0.91437  0.18679  1.0000
  H   H12       1.0  0.22480  0.08563  0.81320  1.0000
  H   H13       1.0  0.08943  0.92477  0.13507  1.0000
  H   H14       1.0  0.91058  0.07524  0.86493  1.0000
  H   H15       1.0  0.80981  0.37011  0.27028  1.0000
  H   H16       1.0  0.19018  0.62989  0.72972  1.0000
  H   H17       1.0  0.00044  0.62851  0.06080  1.0000
  H   H18       1.0  0.99956  0.37150  0.93920  1.0000
  H   H19       1.0  0.16694  0.46748  0.08971  1.0000
  H   H20       1.0  0.83307  0.53253  0.91029  1.0000
  H   H21       1.0  0.18985  0.51258  0.93046  1.0000
  H   H22       1.0  0.81016  0.48742  0.06954  1.0000
  C   C1        1.0  0.10798  0.74064  0.46604  1.0000
  C   C2        1.0  0.89201  0.25937  0.53395  1.0000
  C   C3        1.0  0.93637  0.85299  0.50744  1.0000
  C   C4        1.0  0.06363  0.14702  0.49256  1.0000
  C   C5        1.0  0.78590  0.84480  0.47864  1.0000
  C   C6        1.0  0.21409  0.15519  0.52137  1.0000
  C   C7        1.0  0.81328  0.72109  0.41098  1.0000
  C   C8        1.0  0.18672  0.27891  0.58903  1.0000
  C   C9        1.0  0.98765  0.60974  0.37553  1.0000
  C   C10       1.0  0.01235  0.39026  0.62447  1.0000
  C   C11       1.0  0.63196  0.13634  0.25144  1.0000
  C   C12       1.0  0.36804  0.86366  0.74856  1.0000
  C   C13       1.0  0.78981  0.01273  0.20323  1.0000
  C   C14       1.0  0.21019  0.98727  0.79677  1.0000
  C   C15       1.0  0.96283  0.01873  0.17427  1.0000
  C   C16       1.0  0.03717  0.98128  0.82573  1.0000
  C   C17       1.0  0.97156  0.14880  0.19686  1.0000
  C   C18       1.0  0.02844  0.85120  0.80314  1.0000
  C   C19       1.0  0.80871  0.26783  0.24760  1.0000
  C   C20       1.0  0.19129  0.73217  0.75240  1.0000
  C   C21       1.0  0.25758  0.63105  0.04504  1.0000
  C   C22       1.0  0.74244  0.36896  0.95497  1.0000
  C   C23       1.0  0.14750  0.55594  0.03035  1.0000
  C   C24       1.0  0.85250  0.44407  0.96965  1.0000
  S   S1        1.0  0.63306  0.70539  0.35979  1.0000
  S   S2        1.0  0.36693  0.29461  0.64022  1.0000
  S   S3        1.0  0.19016  0.16297  0.15678  1.0000
  S   S4        1.0  0.80983  0.83703  0.84322  1.0000
  N   N1        1.0  0.13300  0.62024  0.40141  1.0000
  N   N2        1.0  0.86700  0.37976  0.59859  1.0000
  N   N3        1.0  0.64123  0.26160  0.27313  1.0000
  N   N4        1.0  0.35877  0.73840  0.72687  1.0000
  N   N5        1.0  0.34443  0.69340  0.05790  1.0000
  N   N6        1.0  0.65557  0.30661  0.94210  1.0000
  O   O1        1.0  0.70308  0.70036  0.21935  1.0000
  O   O2        1.0  0.29692  0.29963  0.78066  1.0000
  O   O3        1.0  0.62384  0.57023  0.39860  1.0000
  O   O4        1.0  0.37616  0.42977  0.60140  1.0000
  O   O5        1.0  0.46553  0.83011  0.41989  1.0000
  O   O6        1.0  0.53447  0.16989  0.58010  1.0000
  O   O7        1.0  0.15727  0.30119  0.21487  1.0000
  O   O8        1.0  0.84273  0.69881  0.78513  1.0000
  O   O9        1.0  0.31053  0.04334  0.20732  1.0000
  O   O10       1.0  0.68947  0.95666  0.79268  1.0000
  O   O11       1.0  0.24803  0.14922  0.01587  1.0000
  O   O12       1.0  0.75197  0.85078  0.98413  1.0000
