data_image0
_chemical_formula_structural       Ho4H32C24O28
_chemical_formula_sum              "Ho4 H32 C24 O28"
_cell_length_a       7.62032
_cell_length_b       10.6705
_cell_length_c       12.6453
_cell_angle_alpha    95.3159
_cell_angle_beta     107.531
_cell_angle_gamma    110.929

_space_group_name_H-M_alt    "P 1"
_space_group_IT_number       1

loop_
  _space_group_symop_operation_xyz
  'x, y, z'

loop_
  _atom_site_type_symbol
  _atom_site_label
  _atom_site_symmetry_multiplicity
  _atom_site_fract_x
  _atom_site_fract_y
  _atom_site_fract_z
  _atom_site_occupancy
  Ho  Ho1       1.0  0.74412  0.18934  0.72960  1.0000
  Ho  Ho2       1.0  0.32515  0.31060  0.77034  1.0000
  Ho  Ho3       1.0  0.25588  0.81066  0.27040  1.0000
  Ho  Ho4       1.0  0.67486  0.68940  0.22966  1.0000
  H   H1        1.0  0.01003  0.20183  0.35067  1.0000
  H   H2        1.0  0.95750  0.29831  0.14923  1.0000
  H   H3        1.0  0.98997  0.79817  0.64934  1.0000
  H   H4        1.0  0.04249  0.70169  0.85077  1.0000
  H   H5        1.0  0.06867  0.16424  0.48571  1.0000
  H   H6        1.0  0.91860  0.33581  0.01415  1.0000
  H   H7        1.0  0.93133  0.83576  0.51429  1.0000
  H   H8        1.0  0.08140  0.66419  0.98585  1.0000
  H   H9        1.0  0.37305  0.24187  0.36252  1.0000
  H   H10       1.0  0.26841  0.25815  0.13741  1.0000
  H   H11       1.0  0.62695  0.75813  0.63748  1.0000
  H   H12       1.0  0.73159  0.74185  0.86259  1.0000
  H   H13       1.0  0.35098  0.36377  0.45941  1.0000
  H   H14       1.0  0.02750  0.13629  0.04056  1.0000
  H   H15       1.0  0.64902  0.63623  0.54059  1.0000
  H   H16       1.0  0.97249  0.86371  0.95944  1.0000
  H   H17       1.0  0.30346  0.00025  0.91748  1.0000
  H   H18       1.0  0.88587  0.49991  0.58259  1.0000
  H   H19       1.0  0.69653  0.99975  0.08252  1.0000
  H   H20       1.0  0.11413  0.50009  0.41741  1.0000
  H   H21       1.0  0.47988  0.13671  0.03088  1.0000
  H   H22       1.0  0.81222  0.36334  0.46921  1.0000
  H   H23       1.0  0.52012  0.86329  0.96912  1.0000
  H   H24       1.0  0.18778  0.63666  0.53079  1.0000
  H   H25       1.0  0.31163  0.00502  0.64706  1.0000
  H   H26       1.0  0.15967  0.49496  0.85299  1.0000
  H   H27       1.0  0.68837  0.99498  0.35294  1.0000
  H   H28       1.0  0.84033  0.50504  0.14701  1.0000
  H   H29       1.0  0.41603  0.92291  0.58794  1.0000
  H   H30       1.0  0.40527  0.57712  0.91208  1.0000
  H   H31       1.0  0.58397  0.07709  0.41205  1.0000
  H   H32       1.0  0.59473  0.42288  0.08792  1.0000
  C   C1        1.0  0.04827  0.01359  0.35432  1.0000
  C   C2        1.0  0.18032  0.48653  0.14553  1.0000
  C   C3        1.0  0.95173  0.98641  0.64568  1.0000
  C   C4        1.0  0.81968  0.51347  0.85447  1.0000
  C   C5        1.0  0.57703  0.10634  0.89396  1.0000
  C   C6        1.0  0.07674  0.39373  0.60604  1.0000
  C   C7        1.0  0.42297  0.89366  0.10603  1.0000
  C   C8        1.0  0.92326  0.60627  0.39396  1.0000
  C   C9        1.0  0.47249  0.23186  0.53671  1.0000
  C   C10       1.0  0.20387  0.26797  0.96319  1.0000
  C   C11       1.0  0.52752  0.76815  0.46329  1.0000
  C   C12       1.0  0.79613  0.73203  0.03681  1.0000
  C   C13       1.0  0.10772  0.16302  0.40885  1.0000
  C   C14       1.0  0.03576  0.33707  0.09099  1.0000
  C   C15       1.0  0.89228  0.83698  0.59116  1.0000
  C   C16       1.0  0.96424  0.66293  0.90901  1.0000
  C   C17       1.0  0.32996  0.25618  0.43654  1.0000
  C   C18       1.0  0.13706  0.24385  0.06336  1.0000
  C   C19       1.0  0.67004  0.74382  0.56346  1.0000
  C   C20       1.0  0.86294  0.75615  0.93664  1.0000
  C   C21       1.0  0.46508  0.04984  0.97005  1.0000
  C   C22       1.0  0.94519  0.45024  0.52999  1.0000
  C   C23       1.0  0.53492  0.95016  0.02995  1.0000
  C   C24       1.0  0.05481  0.54976  0.47001  1.0000
  O   O1        1.0  0.18444  0.98162  0.33911  1.0000
  O   O2        1.0  0.36374  0.51847  0.16093  1.0000
  O   O3        1.0  0.81556  0.01838  0.66090  1.0000
  O   O4        1.0  0.63626  0.48153  0.83907  1.0000
  O   O5        1.0  0.71046  0.06904  0.88146  1.0000
  O   O6        1.0  0.25995  0.43101  0.61849  1.0000
  O   O7        1.0  0.28954  0.93096  0.11854  1.0000
  O   O8        1.0  0.74005  0.56899  0.38150  1.0000
  O   O9        1.0  0.59468  0.18094  0.52480  1.0000
  O   O10       1.0  0.38891  0.31889  0.97513  1.0000
  O   O11       1.0  0.40532  0.81906  0.47520  1.0000
  O   O12       1.0  0.61108  0.68111  0.02487  1.0000
  O   O13       1.0  0.53591  0.19546  0.83971  1.0000
  O   O14       1.0  0.00074  0.30455  0.66027  1.0000
  O   O15       1.0  0.46409  0.80454  0.16029  1.0000
  O   O16       1.0  0.99927  0.69545  0.33973  1.0000
  O   O17       1.0  0.47743  0.26593  0.63820  1.0000
  O   O18       1.0  0.07329  0.23385  0.86168  1.0000
  O   O19       1.0  0.52257  0.73407  0.36180  1.0000
  O   O20       1.0  0.92671  0.76615  0.13832  1.0000
  O   O21       1.0  0.86429  0.92965  0.32761  1.0000
  O   O22       1.0  0.10697  0.57047  0.17217  1.0000
  O   O23       1.0  0.13571  0.07035  0.67239  1.0000
  O   O24       1.0  0.89303  0.42953  0.82783  1.0000
  O   O25       1.0  0.43516  0.98938  0.65538  1.0000
  O   O26       1.0  0.29051  0.51064  0.84463  1.0000
  O   O27       1.0  0.56484  0.01062  0.34462  1.0000
  O   O28       1.0  0.70949  0.48936  0.15537  1.0000
