data_image0
_chemical_formula_structural       Ag4H16C20S4N4O12
_chemical_formula_sum              "Ag4 H16 C20 S4 N4 O12"
_cell_length_a       8.76638
_cell_length_b       9.78921
_cell_length_c       9.78673
_cell_angle_alpha    78.4306
_cell_angle_beta     63.4052
_cell_angle_gamma    63.3953

_space_group_name_H-M_alt    "P 1"
_space_group_IT_number       1

loop_
  _space_group_symop_operation_xyz
  'x, y, z'

loop_
  _atom_site_type_symbol
  _atom_site_label
  _atom_site_symmetry_multiplicity
  _atom_site_fract_x
  _atom_site_fract_y
  _atom_site_fract_z
  _atom_site_occupancy
  Ag  Ag1       1.0  0.16611  0.00005  0.00003  1.0000
  Ag  Ag2       1.0  0.83391  0.99989  0.99997  1.0000
  Ag  Ag3       1.0  0.50006  0.99999  0.99997  1.0000
  Ag  Ag4       1.0  0.24990  0.50000  0.50000  1.0000
  H   H1        1.0  0.36306  0.83168  0.69343  1.0000
  H   H2        1.0  0.88807  0.16841  0.30660  1.0000
  H   H3        1.0  0.94322  0.69340  0.16843  1.0000
  H   H4        1.0  0.80521  0.30645  0.83160  1.0000
  H   H5        1.0  0.48338  0.56688  0.60585  1.0000
  H   H6        1.0  0.65626  0.43327  0.39418  1.0000
  H   H7        1.0  0.91026  0.60577  0.43333  1.0000
  H   H8        1.0  0.94961  0.39407  0.56679  1.0000
  H   H9        1.0  0.48759  0.35318  0.79963  1.0000
  H   H10       1.0  0.64058  0.64693  0.20040  1.0000
  H   H11       1.0  0.71261  0.79955  0.64701  1.0000
  H   H12       1.0  0.15923  0.20041  0.35303  1.0000
  H   H13       1.0  0.25950  0.69087  0.14267  1.0000
  H   H14       1.0  0.09295  0.30921  0.85739  1.0000
  H   H15       1.0  0.59796  0.14261  0.30916  1.0000
  H   H16       1.0  0.04983  0.85731  0.69073  1.0000
  C   C1        1.0  0.37012  0.73632  0.77334  1.0000
  C   C2        1.0  0.87967  0.26377  0.22667  1.0000
  C   C3        1.0  0.85640  0.77330  0.26379  1.0000
  C   C4        1.0  0.89361  0.22654  0.73625  1.0000
  C   C5        1.0  0.43797  0.58772  0.72578  1.0000
  C   C6        1.0  0.75153  0.41240  0.27426  1.0000
  C   C7        1.0  0.83601  0.72573  0.41245  1.0000
  C   C8        1.0  0.97433  0.27414  0.58759  1.0000
  C   C9        1.0  0.44017  0.47012  0.83281  1.0000
  C   C10       1.0  0.74328  0.52999  0.16722  1.0000
  C   C11       1.0  0.72695  0.83275  0.53001  1.0000
  C   C12       1.0  0.08971  0.16716  0.46999  1.0000
  C   C13       1.0  0.37683  0.50720  0.98495  1.0000
  C   C14       1.0  0.86894  0.49290  0.01506  1.0000
  C   C15       1.0  0.63841  0.98489  0.49287  1.0000
  C   C16       1.0  0.11611  0.01505  0.50706  1.0000
  C   C17       1.0  0.31172  0.65779  0.02505  1.0000
  C   C18       1.0  0.99444  0.34229  0.97497  1.0000
  C   C19       1.0  0.66339  0.02501  0.34225  1.0000
  C   C20       1.0  0.03067  0.97491  0.65769  1.0000
  S   S1        1.0  0.38428  0.36301  0.12888  1.0000
  S   S2        1.0  0.87611  0.63705  0.87110  1.0000
  S   S3        1.0  0.48699  0.12885  0.63700  1.0000
  S   S4        1.0  0.25278  0.87111  0.36292  1.0000
  N   N1        1.0  0.30659  0.77083  0.92073  1.0000
  N   N2        1.0  0.99802  0.22926  0.07930  1.0000
  N   N3        1.0  0.77268  0.92070  0.22924  1.0000
  N   N4        1.0  0.92272  0.07917  0.77074  1.0000
  O   O1        1.0  0.24799  0.44375  0.27528  1.0000
  O   O2        1.0  0.96710  0.55628  0.72470  1.0000
  O   O3        1.0  0.47667  0.27523  0.55618  1.0000
  O   O4        1.0  0.30813  0.72473  0.44371  1.0000
  O   O5        1.0  0.32620  0.25836  0.09512  1.0000
  O   O6        1.0  0.67962  0.74166  0.90477  1.0000
  O   O7        1.0  0.57884  0.09526  0.74166  1.0000
  O   O8        1.0  0.41563  0.90471  0.25828  1.0000
  O   O9        1.0  0.57843  0.29372  0.11226  1.0000
  O   O10       1.0  0.98420  0.70643  0.88786  1.0000
  O   O11       1.0  0.30957  0.11203  0.70642  1.0000
  O   O12       1.0  0.12786  0.88796  0.29357  1.0000
