data_image0
_chemical_formula_structural       CoH18C22N2O10
_chemical_formula_sum              "Co1 H18 C22 N2 O10"
_cell_length_a       6.82937
_cell_length_b       8.42719
_cell_length_c       8.93941
_cell_angle_alpha    103.354
_cell_angle_beta     91.4731
_cell_angle_gamma    104.395

_space_group_name_H-M_alt    "P 1"
_space_group_IT_number       1

loop_
  _space_group_symop_operation_xyz
  'x, y, z'

loop_
  _atom_site_type_symbol
  _atom_site_label
  _atom_site_symmetry_multiplicity
  _atom_site_fract_x
  _atom_site_fract_y
  _atom_site_fract_z
  _atom_site_occupancy
  Co  Co1       1.0  0.50000  0.50000  0.00000  1.0000
  H   H1        1.0  0.94118  0.16077  0.04230  1.0000
  H   H2        1.0  0.05882  0.83923  0.95770  1.0000
  H   H3        1.0  0.18526  0.63389  0.11125  1.0000
  H   H4        1.0  0.81474  0.36611  0.88875  1.0000
  H   H5        1.0  0.18861  0.47117  0.17406  1.0000
  H   H6        1.0  0.81139  0.52883  0.82594  1.0000
  H   H7        1.0  0.42801  0.83169  0.37515  1.0000
  H   H8        1.0  0.57198  0.16830  0.62484  1.0000
  H   H9        1.0  0.06924  0.31028  0.55691  1.0000
  H   H10       1.0  0.93077  0.68973  0.44309  1.0000
  H   H11       1.0  0.61520  0.04699  0.80312  1.0000
  H   H12       1.0  0.38480  0.95301  0.19687  1.0000
  H   H13       1.0  0.32687  0.58161  0.46585  1.0000
  H   H14       1.0  0.67312  0.41838  0.53415  1.0000
  H   H15       1.0  0.60269  0.87856  0.99653  1.0000
  H   H16       1.0  0.39732  0.12144  0.00347  1.0000
  H   H17       1.0  0.34475  0.43262  0.67276  1.0000
  H   H18       1.0  0.65524  0.56738  0.32725  1.0000
  C   C1        1.0  0.89257  0.78954  0.18330  1.0000
  C   C2        1.0  0.10743  0.21046  0.81670  1.0000
  C   C3        1.0  0.00257  0.18190  0.26203  1.0000
  C   C4        1.0  0.99744  0.81810  0.73797  1.0000
  C   C5        1.0  0.95123  0.90398  0.34435  1.0000
  C   C6        1.0  0.04878  0.09602  0.65565  1.0000
  C   C7        1.0  0.46991  0.82972  0.61462  1.0000
  C   C8        1.0  0.53009  0.17028  0.38538  1.0000
  C   C9        1.0  0.99543  0.08179  0.38023  1.0000
  C   C10       1.0  0.00458  0.91821  0.61977  1.0000
  C   C11       1.0  0.47283  0.91526  0.49065  1.0000
  C   C12       1.0  0.52716  0.08473  0.50934  1.0000
  C   C13       1.0  0.04124  0.17355  0.53421  1.0000
  C   C14       1.0  0.95877  0.82645  0.46578  1.0000
  C   C15       1.0  0.54657  0.91142  0.76839  1.0000
  C   C16       1.0  0.45342  0.08858  0.23160  1.0000
  C   C17       1.0  0.39056  0.65370  0.58172  1.0000
  C   C18       1.0  0.60944  0.34630  0.41828  1.0000
  C   C19       1.0  0.54135  0.81803  0.87778  1.0000
  C   C20       1.0  0.45865  0.18197  0.12222  1.0000
  C   C21       1.0  0.39540  0.56949  0.69726  1.0000
  C   C22       1.0  0.60460  0.43052  0.30274  1.0000
  N   N1        1.0  0.46784  0.64812  0.84446  1.0000
  N   N2        1.0  0.53216  0.35189  0.15554  1.0000
  O   O1        1.0  0.91590  0.09161  0.12467  1.0000
  O   O2        1.0  0.08410  0.90839  0.87533  1.0000
  O   O3        1.0  0.08536  0.33571  0.29240  1.0000
  O   O4        1.0  0.91463  0.66429  0.70760  1.0000
  O   O5        1.0  0.03505  0.76563  0.09759  1.0000
  O   O6        1.0  0.96494  0.23436  0.90241  1.0000
  O   O7        1.0  0.70543  0.72015  0.15020  1.0000
  O   O8        1.0  0.29457  0.27985  0.84981  1.0000
  O   O9        1.0  0.27362  0.56323  0.13361  1.0000
  O   O10       1.0  0.72638  0.43677  0.86640  1.0000
