data_image0
_chemical_formula_structural       Mn2H26C36S2N6O12
_chemical_formula_sum              "Mn2 H26 C36 S2 N6 O12"
_cell_length_a       7.70079
_cell_length_b       8.79146
_cell_length_c       13.2434
_cell_angle_alpha    77.3633
_cell_angle_beta     78.6291
_cell_angle_gamma    77.8135

_space_group_name_H-M_alt    "P 1"
_space_group_IT_number       1

loop_
  _space_group_symop_operation_xyz
  'x, y, z'

loop_
  _atom_site_type_symbol
  _atom_site_label
  _atom_site_symmetry_multiplicity
  _atom_site_fract_x
  _atom_site_fract_y
  _atom_site_fract_z
  _atom_site_occupancy
  Mn  Mn1       1.0  0.32647  0.21356  0.78233  1.0000
  Mn  Mn2       1.0  0.67488  0.78488  0.21853  1.0000
  H   H1        1.0  0.42841  0.14115  0.96272  1.0000
  H   H2        1.0  0.57348  0.85935  0.03797  1.0000
  H   H3        1.0  0.26959  0.03990  0.98004  1.0000
  H   H4        1.0  0.73309  0.95974  0.02054  1.0000
  H   H5        1.0  0.59876  0.89554  0.82609  1.0000
  H   H6        1.0  0.40692  0.10404  0.17275  1.0000
  H   H7        1.0  0.84057  0.74351  0.71222  1.0000
  H   H8        1.0  0.16596  0.25908  0.28510  1.0000
  H   H9        1.0  0.90742  0.85056  0.51904  1.0000
  H   H10       1.0  0.09579  0.15418  0.47845  1.0000
  H   H11       1.0  0.81553  0.06498  0.36439  1.0000
  H   H12       1.0  0.18358  0.93986  0.63424  1.0000
  H   H13       1.0  0.60966  0.30820  0.29951  1.0000
  H   H14       1.0  0.38570  0.69512  0.70055  1.0000
  H   H15       1.0  0.34031  0.52771  0.33964  1.0000
  H   H16       1.0  0.65216  0.47195  0.66182  1.0000
  H   H17       1.0  0.09978  0.63326  0.47486  1.0000
  H   H18       1.0  0.89047  0.36175  0.52757  1.0000
  H   H19       1.0  0.08557  0.50183  0.66210  1.0000
  H   H20       1.0  0.90792  0.49206  0.33982  1.0000
  H   H21       1.0  0.22528  0.52537  0.85748  1.0000
  H   H22       1.0  0.77626  0.47520  0.14104  1.0000
  H   H23       1.0  0.93747  0.70926  0.90121  1.0000
  H   H24       1.0  0.06421  0.29262  0.09541  1.0000
  H   H25       1.0  0.64345  0.61799  0.91674  1.0000
  H   H26       1.0  0.35814  0.38392  0.08082  1.0000
  C   C1        1.0  0.62866  0.93798  0.74212  1.0000
  C   C2        1.0  0.37518  0.06231  0.25671  1.0000
  C   C3        1.0  0.76402  0.85446  0.67710  1.0000
  C   C4        1.0  0.24020  0.14745  0.32092  1.0000
  C   C5        1.0  0.80104  0.91280  0.57054  1.0000
  C   C6        1.0  0.20141  0.09029  0.42753  1.0000
  C   C7        1.0  0.69545  0.05479  0.52820  1.0000
  C   C8        1.0  0.30477  0.94757  0.47076  1.0000
  C   C9        1.0  0.71213  0.12394  0.41890  1.0000
  C   C10       1.0  0.28641  0.87937  0.58024  1.0000
  C   C11       1.0  0.59746  0.25787  0.38297  1.0000
  C   C12       1.0  0.39900  0.74448  0.61693  1.0000
  C   C13       1.0  0.45597  0.33365  0.45296  1.0000
  C   C14       1.0  0.53979  0.66660  0.54761  1.0000
  C   C15       1.0  0.33019  0.46895  0.42155  1.0000
  C   C16       1.0  0.66344  0.53004  0.57976  1.0000
  C   C17       1.0  0.19763  0.52839  0.49741  1.0000
  C   C18       1.0  0.79501  0.46816  0.50442  1.0000
  C   C19       1.0  0.19032  0.45595  0.60281  1.0000
  C   C20       1.0  0.80419  0.53995  0.39885  1.0000
  C   C21       1.0  0.44107  0.26796  0.56117  1.0000
  C   C22       1.0  0.55651  0.73154  0.43929  1.0000
  C   C23       1.0  0.56008  0.13075  0.59875  1.0000
  C   C24       1.0  0.43978  0.86979  0.40097  1.0000
  C   C25       1.0  0.59930  0.33041  0.88494  1.0000
  C   C26       1.0  0.40226  0.66916  0.11539  1.0000
  C   C27       1.0  0.77299  0.39399  0.87118  1.0000
  C   C28       1.0  0.22842  0.60609  0.12870  1.0000
  C   C29       1.0  0.93996  0.30199  0.84332  1.0000
  C   C30       1.0  0.06151  0.69717  0.15779  1.0000
  C   C31       1.0  0.09515  0.49270  0.86118  1.0000
  C   C32       1.0  0.90640  0.50760  0.13785  1.0000
  C   C33       1.0  0.93439  0.59281  0.88612  1.0000
  C   C34       1.0  0.06721  0.40841  0.11160  1.0000
  C   C35       1.0  0.77069  0.54331  0.89297  1.0000
  C   C36       1.0  0.23081  0.45783  0.10527  1.0000
  S   S1        1.0  0.95965  0.12141  0.79689  1.0000
  S   S2        1.0  0.04206  0.87680  0.20515  1.0000
  N   N1        1.0  0.52947  0.07641  0.70492  1.0000
  N   N2        1.0  0.47219  0.92318  0.29475  1.0000
  N   N3        1.0  0.31036  0.32821  0.63636  1.0000
  N   N4        1.0  0.68709  0.66957  0.36467  1.0000
  N   N5        1.0  0.10096  0.34691  0.83937  1.0000
  N   N6        1.0  0.90056  0.65228  0.16144  1.0000
  O   O1        1.0  0.52391  0.35097  0.80367  1.0000
  O   O2        1.0  0.47760  0.64755  0.19679  1.0000
  O   O3        1.0  0.54555  0.26325  0.97653  1.0000
  O   O4        1.0  0.45629  0.73693  0.02402  1.0000
  O   O5        1.0  0.15946  0.06107  0.78687  1.0000
  O   O6        1.0  0.84210  0.93662  0.21612  1.0000
  O   O7        1.0  0.86131  0.01370  0.87612  1.0000
  O   O8        1.0  0.13960  0.98509  0.12592  1.0000
  O   O9        1.0  0.90044  0.16705  0.69535  1.0000
  O   O10       1.0  0.10253  0.83069  0.30635  1.0000
  O   O11       1.0  0.37019  0.07624  0.92903  1.0000
  O   O12       1.0  0.63304  0.92297  0.07191  1.0000
