data_image0
_chemical_formula_structural       La2H20C22N2O14
_chemical_formula_sum              "La2 H20 C22 N2 O14"
_cell_length_a       7.84986
_cell_length_b       8.18327
_cell_length_c       10.1567
_cell_angle_alpha    82.0307
_cell_angle_beta     84.2942
_cell_angle_gamma    70.6459

_space_group_name_H-M_alt    "P 1"
_space_group_IT_number       1

loop_
  _space_group_symop_operation_xyz
  'x, y, z'

loop_
  _atom_site_type_symbol
  _atom_site_label
  _atom_site_symmetry_multiplicity
  _atom_site_fract_x
  _atom_site_fract_y
  _atom_site_fract_z
  _atom_site_occupancy
  La  La1       1.0  0.22916  0.08984  0.53545  1.0000
  La  La2       1.0  0.77085  0.91016  0.46455  1.0000
  H   H1        1.0  0.86504  0.08300  0.84704  1.0000
  H   H2        1.0  0.13496  0.91700  0.15296  1.0000
  H   H3        1.0  0.91023  0.18525  0.05109  1.0000
  H   H4        1.0  0.08977  0.81475  0.94891  1.0000
  H   H5        1.0  0.33129  0.34027  0.14683  1.0000
  H   H6        1.0  0.66871  0.65973  0.85317  1.0000
  H   H7        1.0  0.29234  0.23652  0.94008  1.0000
  H   H8        1.0  0.70766  0.76348  0.05992  1.0000
  H   H9        1.0  0.37802  0.53633  0.24094  1.0000
  H   H10       1.0  0.62198  0.46367  0.75906  1.0000
  H   H11       1.0  0.53174  0.54192  0.35366  1.0000
  H   H12       1.0  0.46826  0.45808  0.64634  1.0000
  H   H13       1.0  0.78698  0.51715  0.27352  1.0000
  H   H14       1.0  0.21302  0.48285  0.72648  1.0000
  H   H15       1.0  0.87997  0.41899  0.12851  1.0000
  H   H16       1.0  0.12003  0.58101  0.87149  1.0000
  H   H17       1.0  0.85644  0.39355  0.58643  1.0000
  H   H18       1.0  0.14356  0.60645  0.41357  1.0000
  H   H19       1.0  0.83643  0.20893  0.64308  1.0000
  H   H20       1.0  0.16357  0.79107  0.35692  1.0000
  C   C1        1.0  0.57359  0.16311  0.87405  1.0000
  C   C2        1.0  0.42641  0.83688  0.12595  1.0000
  C   C3        1.0  0.74766  0.14396  0.91097  1.0000
  C   C4        1.0  0.25234  0.85604  0.08903  1.0000
  C   C5        1.0  0.77295  0.20309  0.02651  1.0000
  C   C6        1.0  0.22705  0.79691  0.97349  1.0000
  C   C7        1.0  0.62267  0.28749  0.11004  1.0000
  C   C8        1.0  0.37733  0.71251  0.88996  1.0000
  C   C9        1.0  0.44928  0.28948  0.08033  1.0000
  C   C10       1.0  0.55072  0.71052  0.91967  1.0000
  C   C11       1.0  0.42679  0.23006  0.96418  1.0000
  C   C12       1.0  0.57321  0.76994  0.03581  1.0000
  C   C13       1.0  0.54412  0.12558  0.74179  1.0000
  C   C14       1.0  0.45588  0.87442  0.25821  1.0000
  C   C15       1.0  0.49280  0.45381  0.29965  1.0000
  C   C16       1.0  0.50720  0.54619  0.70035  1.0000
  C   C17       1.0  0.42127  0.33685  0.40375  1.0000
  C   C18       1.0  0.57873  0.66314  0.59625  1.0000
  C   C19       1.0  0.81417  0.39659  0.22707  1.0000
  C   C20       1.0  0.18583  0.60341  0.77293  1.0000
  C   C21       1.0  0.95253  0.25568  0.31141  1.0000
  C   C22       1.0  0.04747  0.74433  0.68859  1.0000
  N   N1        1.0  0.64512  0.36779  0.21443  1.0000
  N   N2        1.0  0.35488  0.63221  0.78557  1.0000
  O   O1        1.0  0.67967  0.09325  0.65484  1.0000
  O   O2        1.0  0.32033  0.90675  0.34516  1.0000
  O   O3        1.0  0.38508  0.13468  0.71547  1.0000
  O   O4        1.0  0.61492  0.86532  0.28453  1.0000
  O   O5        1.0  0.28556  0.40787  0.47934  1.0000
  O   O6        1.0  0.71444  0.59213  0.52066  1.0000
  O   O7        1.0  0.49413  0.17126  0.41070  1.0000
  O   O8        1.0  0.50588  0.82874  0.58930  1.0000
  O   O9        1.0  0.91677  0.12004  0.36850  1.0000
  O   O10       1.0  0.08323  0.87996  0.63149  1.0000
  O   O11       1.0  0.09734  0.28449  0.32574  1.0000
  O   O12       1.0  0.90266  0.71552  0.67426  1.0000
  O   O13       1.0  0.92587  0.27326  0.62506  1.0000
  O   O14       1.0  0.07413  0.72674  0.37495  1.0000
