data_image0
_chemical_formula_structural       Nd2H20C22N2O14
_chemical_formula_sum              "Nd2 H20 C22 N2 O14"
_cell_length_a       7.75198
_cell_length_b       8.123
_cell_length_c       10.1621
_cell_angle_alpha    82.1696
_cell_angle_beta     83.6935
_cell_angle_gamma    70.442

_space_group_name_H-M_alt    "P 1"
_space_group_IT_number       1

loop_
  _space_group_symop_operation_xyz
  'x, y, z'

loop_
  _atom_site_type_symbol
  _atom_site_label
  _atom_site_symmetry_multiplicity
  _atom_site_fract_x
  _atom_site_fract_y
  _atom_site_fract_z
  _atom_site_occupancy
  Nd  Nd1       1.0  0.23214  0.09013  0.53440  1.0000
  Nd  Nd2       1.0  0.76785  0.90987  0.46560  1.0000
  H   H1        1.0  0.86588  0.08127  0.84187  1.0000
  H   H2        1.0  0.13412  0.91873  0.15813  1.0000
  H   H3        1.0  0.91305  0.18185  0.04588  1.0000
  H   H4        1.0  0.08694  0.81815  0.95413  1.0000
  H   H5        1.0  0.32602  0.34090  0.14742  1.0000
  H   H6        1.0  0.67398  0.65910  0.85258  1.0000
  H   H7        1.0  0.28474  0.23896  0.94039  1.0000
  H   H8        1.0  0.71526  0.76104  0.05961  1.0000
  H   H9        1.0  0.37380  0.53526  0.24207  1.0000
  H   H10       1.0  0.62620  0.46474  0.75793  1.0000
  H   H11       1.0  0.52989  0.54291  0.35241  1.0000
  H   H12       1.0  0.47011  0.45709  0.64759  1.0000
  H   H13       1.0  0.79046  0.51473  0.27086  1.0000
  H   H14       1.0  0.20954  0.48527  0.72915  1.0000
  H   H15       1.0  0.88768  0.41061  0.12751  1.0000
  H   H16       1.0  0.11233  0.58939  0.87249  1.0000
  H   H17       1.0  0.86250  0.39306  0.58306  1.0000
  H   H18       1.0  0.13750  0.60694  0.41694  1.0000
  H   H19       1.0  0.83980  0.20790  0.64002  1.0000
  H   H20       1.0  0.16020  0.79210  0.35998  1.0000
  C   C1        1.0  0.57021  0.16294  0.87172  1.0000
  C   C2        1.0  0.42979  0.83707  0.12828  1.0000
  C   C3        1.0  0.74702  0.14251  0.90714  1.0000
  C   C4        1.0  0.25298  0.85749  0.09286  1.0000
  C   C5        1.0  0.77343  0.20139  0.02253  1.0000
  C   C6        1.0  0.22657  0.79861  0.97747  1.0000
  C   C7        1.0  0.62157  0.28666  0.10777  1.0000
  C   C8        1.0  0.37843  0.71334  0.89223  1.0000
  C   C9        1.0  0.44523  0.29022  0.07933  1.0000
  C   C10       1.0  0.55477  0.70978  0.92067  1.0000
  C   C11       1.0  0.42162  0.23099  0.96327  1.0000
  C   C12       1.0  0.57838  0.76901  0.03673  1.0000
  C   C13       1.0  0.54009  0.12624  0.73945  1.0000
  C   C14       1.0  0.45991  0.87376  0.26055  1.0000
  C   C15       1.0  0.49106  0.45306  0.29935  1.0000
  C   C16       1.0  0.50894  0.54694  0.70065  1.0000
  C   C17       1.0  0.41957  0.33537  0.40410  1.0000
  C   C18       1.0  0.58043  0.66463  0.59590  1.0000
  C   C19       1.0  0.81742  0.39204  0.22575  1.0000
  C   C20       1.0  0.18258  0.60796  0.77425  1.0000
  C   C21       1.0  0.95219  0.25012  0.31277  1.0000
  C   C22       1.0  0.04781  0.74988  0.68723  1.0000
  N   N1        1.0  0.64505  0.36644  0.21238  1.0000
  N   N2        1.0  0.35495  0.63356  0.78762  1.0000
  O   O1        1.0  0.67758  0.09463  0.65118  1.0000
  O   O2        1.0  0.32242  0.90537  0.34882  1.0000
  O   O3        1.0  0.37863  0.13621  0.71453  1.0000
  O   O4        1.0  0.62137  0.86379  0.28547  1.0000
  O   O5        1.0  0.28133  0.40630  0.48085  1.0000
  O   O6        1.0  0.71867  0.59370  0.51915  1.0000
  O   O7        1.0  0.49401  0.16838  0.41062  1.0000
  O   O8        1.0  0.50599  0.83162  0.58938  1.0000
  O   O9        1.0  0.91290  0.11493  0.36822  1.0000
  O   O10       1.0  0.08711  0.88507  0.63178  1.0000
  O   O11       1.0  0.09778  0.27848  0.33075  1.0000
  O   O12       1.0  0.90222  0.72152  0.66925  1.0000
  O   O13       1.0  0.93121  0.27177  0.62210  1.0000
  O   O14       1.0  0.06879  0.72822  0.37790  1.0000
