data_image0
_chemical_formula_structural       Pr2H20C22N2O14
_chemical_formula_sum              "Pr2 H20 C22 N2 O14"
_cell_length_a       7.78706
_cell_length_b       8.14818
_cell_length_c       10.1655
_cell_angle_alpha    82.0986
_cell_angle_beta     83.9797
_cell_angle_gamma    70.4566

_space_group_name_H-M_alt    "P 1"
_space_group_IT_number       1

loop_
  _space_group_symop_operation_xyz
  'x, y, z'

loop_
  _atom_site_type_symbol
  _atom_site_label
  _atom_site_symmetry_multiplicity
  _atom_site_fract_x
  _atom_site_fract_y
  _atom_site_fract_z
  _atom_site_occupancy
  Pr  Pr1       1.0  0.23100  0.09001  0.53424  1.0000
  Pr  Pr2       1.0  0.76899  0.90999  0.46576  1.0000
  H   H1        1.0  0.86577  0.08238  0.84417  1.0000
  H   H2        1.0  0.13423  0.91761  0.15583  1.0000
  H   H3        1.0  0.91176  0.18348  0.04819  1.0000
  H   H4        1.0  0.08824  0.81652  0.95181  1.0000
  H   H5        1.0  0.32773  0.34031  0.14705  1.0000
  H   H6        1.0  0.67227  0.65969  0.85295  1.0000
  H   H7        1.0  0.28773  0.23780  0.94011  1.0000
  H   H8        1.0  0.71227  0.76220  0.05989  1.0000
  H   H9        1.0  0.37471  0.53557  0.24135  1.0000
  H   H10       1.0  0.62529  0.46443  0.75865  1.0000
  H   H11       1.0  0.52975  0.54291  0.35260  1.0000
  H   H12       1.0  0.47025  0.45709  0.64740  1.0000
  H   H13       1.0  0.78816  0.51572  0.27218  1.0000
  H   H14       1.0  0.21183  0.48428  0.72782  1.0000
  H   H15       1.0  0.88387  0.41444  0.12815  1.0000
  H   H16       1.0  0.11613  0.58556  0.87185  1.0000
  H   H17       1.0  0.86048  0.39320  0.58469  1.0000
  H   H18       1.0  0.13952  0.60680  0.41531  1.0000
  H   H19       1.0  0.83889  0.20840  0.64163  1.0000
  H   H20       1.0  0.16111  0.79159  0.35837  1.0000
  C   C1        1.0  0.57156  0.16331  0.87260  1.0000
  C   C2        1.0  0.42844  0.83669  0.12740  1.0000
  C   C3        1.0  0.74730  0.14349  0.90870  1.0000
  C   C4        1.0  0.25270  0.85651  0.09130  1.0000
  C   C5        1.0  0.77309  0.20235  0.02418  1.0000
  C   C6        1.0  0.22691  0.79765  0.97582  1.0000
  C   C7        1.0  0.62179  0.28696  0.10875  1.0000
  C   C8        1.0  0.37821  0.71304  0.89125  1.0000
  C   C9        1.0  0.44661  0.28981  0.07969  1.0000
  C   C10       1.0  0.55339  0.71018  0.92032  1.0000
  C   C11       1.0  0.42359  0.23057  0.96359  1.0000
  C   C12       1.0  0.57641  0.76943  0.03641  1.0000
  C   C13       1.0  0.54176  0.12619  0.74033  1.0000
  C   C14       1.0  0.45824  0.87381  0.25966  1.0000
  C   C15       1.0  0.49119  0.45345  0.29931  1.0000
  C   C16       1.0  0.50881  0.54655  0.70069  1.0000
  C   C17       1.0  0.41979  0.33623  0.40379  1.0000
  C   C18       1.0  0.58020  0.66377  0.59621  1.0000
  C   C19       1.0  0.81567  0.39404  0.22642  1.0000
  C   C20       1.0  0.18432  0.60596  0.77358  1.0000
  C   C21       1.0  0.95234  0.25259  0.31236  1.0000
  C   C22       1.0  0.04766  0.74741  0.68764  1.0000
  N   N1        1.0  0.64475  0.36693  0.21327  1.0000
  N   N2        1.0  0.35525  0.63307  0.78673  1.0000
  O   O1        1.0  0.67866  0.09455  0.65268  1.0000
  O   O2        1.0  0.32134  0.90545  0.34732  1.0000
  O   O3        1.0  0.38118  0.13577  0.71502  1.0000
  O   O4        1.0  0.61882  0.86423  0.28498  1.0000
  O   O5        1.0  0.28248  0.40706  0.48002  1.0000
  O   O6        1.0  0.71752  0.59294  0.51998  1.0000
  O   O7        1.0  0.49384  0.16980  0.41047  1.0000
  O   O8        1.0  0.50616  0.83020  0.58953  1.0000
  O   O9        1.0  0.91497  0.11728  0.36904  1.0000
  O   O10       1.0  0.08503  0.88272  0.63096  1.0000
  O   O11       1.0  0.09778  0.28141  0.32846  1.0000
  O   O12       1.0  0.90222  0.71859  0.67154  1.0000
  O   O13       1.0  0.92958  0.27231  0.62374  1.0000
  O   O14       1.0  0.07042  0.72769  0.37626  1.0000
