data_image0
_chemical_formula_structural       Dy2H20C22N2O14
_chemical_formula_sum              "Dy2 H20 C22 N2 O14"
_cell_length_a       8.30558
_cell_length_b       8.94887
_cell_length_c       10.5055
_cell_angle_alpha    105.268
_cell_angle_beta     100.84
_cell_angle_gamma    95.3567

_space_group_name_H-M_alt    "P 1"
_space_group_IT_number       1

loop_
  _space_group_symop_operation_xyz
  'x, y, z'

loop_
  _atom_site_type_symbol
  _atom_site_label
  _atom_site_symmetry_multiplicity
  _atom_site_fract_x
  _atom_site_fract_y
  _atom_site_fract_z
  _atom_site_occupancy
  Dy  Dy1       1.0  0.41727  0.29402  0.02939  1.0000
  Dy  Dy2       1.0  0.58273  0.70598  0.97061  1.0000
  H   H1        1.0  0.74681  0.18661  0.37800  1.0000
  H   H2        1.0  0.25318  0.81339  0.62200  1.0000
  H   H3        1.0  0.65240  0.29063  0.58629  1.0000
  H   H4        1.0  0.34760  0.70936  0.41371  1.0000
  H   H5        1.0  0.76095  0.75996  0.56247  1.0000
  H   H6        1.0  0.23905  0.24004  0.43753  1.0000
  H   H7        1.0  0.85806  0.66084  0.35394  1.0000
  H   H8        1.0  0.14194  0.33916  0.64606  1.0000
  H   H9        1.0  0.94231  0.15038  0.27822  1.0000
  H   H10       1.0  0.05769  0.84962  0.72178  1.0000
  H   H11       1.0  0.99560  0.18400  0.13375  1.0000
  H   H12       1.0  0.00439  0.81600  0.86624  1.0000
  H   H13       1.0  0.99797  0.39998  0.09002  1.0000
  H   H14       1.0  0.00203  0.60003  0.90999  1.0000
  H   H15       1.0  0.03391  0.56048  0.23573  1.0000
  H   H16       1.0  0.96609  0.43952  0.76427  1.0000
  H   H17       1.0  0.55008  0.14890  0.79132  1.0000
  H   H18       1.0  0.44992  0.85109  0.20867  1.0000
  H   H19       1.0  0.53399  0.32347  0.78384  1.0000
  H   H20       1.0  0.46600  0.67653  0.21617  1.0000
  C   C1        1.0  0.81810  0.41538  0.35118  1.0000
  C   C2        1.0  0.18190  0.58462  0.64882  1.0000
  C   C3        1.0  0.75443  0.31281  0.41837  1.0000
  C   C4        1.0  0.24557  0.68719  0.58163  1.0000
  C   C5        1.0  0.70044  0.37142  0.53603  1.0000
  C   C6        1.0  0.29956  0.62857  0.46397  1.0000
  C   C7        1.0  0.70470  0.53312  0.59165  1.0000
  C   C8        1.0  0.29530  0.46688  0.40835  1.0000
  C   C9        1.0  0.76042  0.63452  0.52183  1.0000
  C   C10       1.0  0.23958  0.36547  0.47817  1.0000
  C   C11       1.0  0.81502  0.57801  0.40418  1.0000
  C   C12       1.0  0.18499  0.42199  0.59583  1.0000
  C   C13       1.0  0.65646  0.59426  0.72031  1.0000
  C   C14       1.0  0.34353  0.40573  0.27969  1.0000
  C   C15       1.0  0.89874  0.19621  0.19258  1.0000
  C   C16       1.0  0.10126  0.80379  0.80742  1.0000
  C   C17       1.0  0.74104  0.08897  0.10325  1.0000
  C   C18       1.0  0.25895  0.91104  0.89675  1.0000
  C   C19       1.0  0.93823  0.46433  0.16818  1.0000
  C   C20       1.0  0.06177  0.53567  0.83182  1.0000
  C   C21       1.0  0.80709  0.53896  0.09538  1.0000
  C   C22       1.0  0.19291  0.46105  0.90462  1.0000
  N   N1        1.0  0.88179  0.35961  0.23926  1.0000
  N   N2        1.0  0.11822  0.64039  0.76074  1.0000
  O   O1        1.0  0.61728  0.15123  0.06447  1.0000
  O   O2        1.0  0.38273  0.84877  0.93553  1.0000
  O   O3        1.0  0.74791  0.94378  0.07322  1.0000
  O   O4        1.0  0.25209  0.05621  0.92677  1.0000
  O   O5        1.0  0.65149  0.48791  0.07135  1.0000
  O   O6        1.0  0.34852  0.51210  0.92865  1.0000
  O   O7        1.0  0.85645  0.65536  0.05794  1.0000
  O   O8        1.0  0.14355  0.34465  0.94206  1.0000
  O   O9        1.0  0.60911  0.49919  0.78543  1.0000
  O   O10       1.0  0.39089  0.50081  0.21457  1.0000
  O   O11       1.0  0.66488  0.74175  0.77523  1.0000
  O   O12       1.0  0.33511  0.25824  0.22476  1.0000
  O   O13       1.0  0.48140  0.23117  0.80734  1.0000
  O   O14       1.0  0.51859  0.76883  0.19266  1.0000
