data_image0
_chemical_formula_structural       Tb2H20C22N2O14
_chemical_formula_sum              "Tb2 H20 C22 N2 O14"
_cell_length_a       8.3357
_cell_length_b       8.97962
_cell_length_c       10.5064
_cell_angle_alpha    105.77
_cell_angle_beta     100.499
_cell_angle_gamma    97.2745

_space_group_name_H-M_alt    "P 1"
_space_group_IT_number       1

loop_
  _space_group_symop_operation_xyz
  'x, y, z'

loop_
  _atom_site_type_symbol
  _atom_site_label
  _atom_site_symmetry_multiplicity
  _atom_site_fract_x
  _atom_site_fract_y
  _atom_site_fract_z
  _atom_site_occupancy
  Tb  Tb1       1.0  0.41817  0.29110  0.02808  1.0000
  Tb  Tb2       1.0  0.58183  0.70890  0.97192  1.0000
  H   H1        1.0  0.74935  0.19668  0.37579  1.0000
  H   H2        1.0  0.25065  0.80331  0.62421  1.0000
  H   H3        1.0  0.65298  0.29662  0.58370  1.0000
  H   H4        1.0  0.34702  0.70337  0.41630  1.0000
  H   H5        1.0  0.75885  0.76930  0.56342  1.0000
  H   H6        1.0  0.24115  0.23070  0.43658  1.0000
  H   H7        1.0  0.85807  0.67434  0.35533  1.0000
  H   H8        1.0  0.14193  0.32566  0.64468  1.0000
  H   H9        1.0  0.94704  0.16839  0.27774  1.0000
  H   H10       1.0  0.05296  0.83161  0.72226  1.0000
  H   H11       1.0  0.99660  0.20204  0.13186  1.0000
  H   H12       1.0  0.00340  0.79796  0.86814  1.0000
  H   H13       1.0  0.00107  0.41715  0.09130  1.0000
  H   H14       1.0  0.99893  0.58285  0.90870  1.0000
  H   H15       1.0  0.03661  0.57995  0.23764  1.0000
  H   H16       1.0  0.96338  0.42006  0.76236  1.0000
  H   H17       1.0  0.54873  0.15090  0.78738  1.0000
  H   H18       1.0  0.45127  0.84910  0.21263  1.0000
  H   H19       1.0  0.53196  0.32423  0.78040  1.0000
  H   H20       1.0  0.46804  0.67577  0.21960  1.0000
  C   C1        1.0  0.81965  0.42779  0.35099  1.0000
  C   C2        1.0  0.18035  0.57221  0.64901  1.0000
  C   C3        1.0  0.75620  0.32294  0.41708  1.0000
  C   C4        1.0  0.24380  0.67706  0.58291  1.0000
  C   C5        1.0  0.70112  0.37924  0.53449  1.0000
  C   C6        1.0  0.29888  0.62076  0.46550  1.0000
  C   C7        1.0  0.70417  0.54073  0.59103  1.0000
  C   C8        1.0  0.29582  0.45926  0.40897  1.0000
  C   C9        1.0  0.75960  0.64420  0.52227  1.0000
  C   C10       1.0  0.24040  0.35580  0.47773  1.0000
  C   C11       1.0  0.81557  0.59004  0.40494  1.0000
  C   C12       1.0  0.18443  0.40996  0.59506  1.0000
  C   C13       1.0  0.65429  0.59953  0.71940  1.0000
  C   C14       1.0  0.34571  0.40046  0.28060  1.0000
  C   C15       1.0  0.90126  0.21139  0.19197  1.0000
  C   C16       1.0  0.09874  0.78862  0.80803  1.0000
  C   C17       1.0  0.74350  0.09777  0.10230  1.0000
  C   C18       1.0  0.25651  0.90224  0.89770  1.0000
  C   C19       1.0  0.94080  0.48039  0.16899  1.0000
  C   C20       1.0  0.05920  0.51962  0.83101  1.0000
  C   C21       1.0  0.80963  0.55000  0.09545  1.0000
  C   C22       1.0  0.19037  0.45000  0.90455  1.0000
  N   N1        1.0  0.88390  0.37411  0.23909  1.0000
  N   N2        1.0  0.11611  0.62589  0.76091  1.0000
  O   O1        1.0  0.62167  0.15486  0.05757  1.0000
  O   O2        1.0  0.37833  0.84515  0.94243  1.0000
  O   O3        1.0  0.74874  0.95291  0.07704  1.0000
  O   O4        1.0  0.25126  0.04709  0.92296  1.0000
  O   O5        1.0  0.65367  0.49485  0.07236  1.0000
  O   O6        1.0  0.34633  0.50515  0.92764  1.0000
  O   O7        1.0  0.85929  0.66605  0.05682  1.0000
  O   O8        1.0  0.14071  0.33395  0.94318  1.0000
  O   O9        1.0  0.60841  0.50251  0.78375  1.0000
  O   O10       1.0  0.39159  0.49748  0.21625  1.0000
  O   O11       1.0  0.66006  0.74689  0.77460  1.0000
  O   O12       1.0  0.33994  0.25311  0.22540  1.0000
  O   O13       1.0  0.47953  0.23038  0.80317  1.0000
  O   O14       1.0  0.52047  0.76961  0.19683  1.0000
