data_image0
_chemical_formula_structural       Gd2H20C22N2O14
_chemical_formula_sum              "Gd2 H20 C22 N2 O14"
_cell_length_a       8.33996
_cell_length_b       8.99651
_cell_length_c       10.5073
_cell_angle_alpha    105.137
_cell_angle_beta     101.16
_cell_angle_gamma    95.436

_space_group_name_H-M_alt    "P 1"
_space_group_IT_number       1

loop_
  _space_group_symop_operation_xyz
  'x, y, z'

loop_
  _atom_site_type_symbol
  _atom_site_label
  _atom_site_symmetry_multiplicity
  _atom_site_fract_x
  _atom_site_fract_y
  _atom_site_fract_z
  _atom_site_occupancy
  Gd  Gd1       1.0  0.41729  0.29372  0.03009  1.0000
  Gd  Gd2       1.0  0.58271  0.70627  0.96991  1.0000
  H   H1        1.0  0.74981  0.18723  0.37879  1.0000
  H   H2        1.0  0.25018  0.81277  0.62121  1.0000
  H   H3        1.0  0.65409  0.29033  0.58556  1.0000
  H   H4        1.0  0.34590  0.70969  0.41445  1.0000
  H   H5        1.0  0.75936  0.75674  0.55973  1.0000
  H   H6        1.0  0.24064  0.24327  0.44025  1.0000
  H   H7        1.0  0.85770  0.65861  0.35277  1.0000
  H   H8        1.0  0.14229  0.34139  0.64722  1.0000
  H   H9        1.0  0.94510  0.15241  0.28004  1.0000
  H   H10       1.0  0.05491  0.84759  0.71997  1.0000
  H   H11       1.0  0.99720  0.18555  0.13535  1.0000
  H   H12       1.0  0.00281  0.81444  0.86466  1.0000
  H   H13       1.0  0.99840  0.40003  0.09067  1.0000
  H   H14       1.0  0.00160  0.59996  0.90933  1.0000
  H   H15       1.0  0.03513  0.55931  0.23665  1.0000
  H   H16       1.0  0.96487  0.44068  0.76334  1.0000
  H   H17       1.0  0.55135  0.14976  0.78962  1.0000
  H   H18       1.0  0.44865  0.85025  0.21037  1.0000
  H   H19       1.0  0.53444  0.32303  0.78195  1.0000
  H   H20       1.0  0.46556  0.67697  0.21806  1.0000
  C   C1        1.0  0.81920  0.41464  0.35097  1.0000
  C   C2        1.0  0.18080  0.58536  0.64903  1.0000
  C   C3        1.0  0.75624  0.31262  0.41833  1.0000
  C   C4        1.0  0.24375  0.68739  0.58167  1.0000
  C   C5        1.0  0.70165  0.37070  0.53519  1.0000
  C   C6        1.0  0.29835  0.62931  0.46481  1.0000
  C   C7        1.0  0.70459  0.53135  0.58981  1.0000
  C   C8        1.0  0.29541  0.46867  0.41019  1.0000
  C   C9        1.0  0.75991  0.63218  0.51988  1.0000
  C   C10       1.0  0.24009  0.36783  0.48011  1.0000
  C   C11       1.0  0.81508  0.57617  0.40305  1.0000
  C   C12       1.0  0.18492  0.42383  0.59694  1.0000
  C   C13       1.0  0.65599  0.59245  0.71792  1.0000
  C   C14       1.0  0.34401  0.40757  0.28208  1.0000
  C   C15       1.0  0.90078  0.19721  0.19381  1.0000
  C   C16       1.0  0.09923  0.80278  0.80620  1.0000
  C   C17       1.0  0.74382  0.08925  0.10441  1.0000
  C   C18       1.0  0.25619  0.91074  0.89560  1.0000
  C   C19       1.0  0.93927  0.46384  0.16876  1.0000
  C   C20       1.0  0.06073  0.53615  0.83123  1.0000
  C   C21       1.0  0.80886  0.53869  0.09586  1.0000
  C   C22       1.0  0.19114  0.46129  0.90413  1.0000
  N   N1        1.0  0.88291  0.35939  0.23957  1.0000
  N   N2        1.0  0.11709  0.64060  0.76044  1.0000
  O   O1        1.0  0.61933  0.14997  0.06557  1.0000
  O   O2        1.0  0.38067  0.85001  0.93445  1.0000
  O   O3        1.0  0.75161  0.94505  0.07446  1.0000
  O   O4        1.0  0.24840  0.05494  0.92555  1.0000
  O   O5        1.0  0.65346  0.48836  0.07203  1.0000
  O   O6        1.0  0.34654  0.51162  0.92797  1.0000
  O   O7        1.0  0.85864  0.65432  0.05845  1.0000
  O   O8        1.0  0.14135  0.34566  0.94154  1.0000
  O   O9        1.0  0.60893  0.49815  0.78329  1.0000
  O   O10       1.0  0.39107  0.50186  0.21670  1.0000
  O   O11       1.0  0.66431  0.73930  0.77167  1.0000
  O   O12       1.0  0.33569  0.26071  0.22833  1.0000
  O   O13       1.0  0.48255  0.23105  0.80549  1.0000
  O   O14       1.0  0.51746  0.76896  0.19451  1.0000
