data_image0
_chemical_formula_structural       Sm2H20C22N2O14
_chemical_formula_sum              "Sm2 H20 C22 N2 O14"
_cell_length_a       8.39873
_cell_length_b       9.07293
_cell_length_c       10.5059
_cell_angle_alpha    104.824
_cell_angle_beta     101.321
_cell_angle_gamma    95.6591

_space_group_name_H-M_alt    "P 1"
_space_group_IT_number       1

loop_
  _space_group_symop_operation_xyz
  'x, y, z'

loop_
  _atom_site_type_symbol
  _atom_site_label
  _atom_site_symmetry_multiplicity
  _atom_site_fract_x
  _atom_site_fract_y
  _atom_site_fract_z
  _atom_site_occupancy
  Sm  Sm1       1.0  0.41703  0.29263  0.03077  1.0000
  Sm  Sm2       1.0  0.58298  0.70737  0.96923  1.0000
  H   H1        1.0  0.74958  0.18881  0.37904  1.0000
  H   H2        1.0  0.25042  0.81120  0.62096  1.0000
  H   H3        1.0  0.65366  0.29150  0.58449  1.0000
  H   H4        1.0  0.34634  0.70851  0.41551  1.0000
  H   H5        1.0  0.76123  0.75329  0.55635  1.0000
  H   H6        1.0  0.23876  0.24671  0.44364  1.0000
  H   H7        1.0  0.86024  0.65564  0.35102  1.0000
  H   H8        1.0  0.13975  0.34436  0.64897  1.0000
  H   H9        1.0  0.94557  0.15512  0.28196  1.0000
  H   H10       1.0  0.05444  0.84488  0.71805  1.0000
  H   H11       1.0  0.99748  0.18726  0.13705  1.0000
  H   H12       1.0  0.00252  0.81274  0.86296  1.0000
  H   H13       1.0  0.99543  0.39838  0.08865  1.0000
  H   H14       1.0  0.00457  0.60162  0.91135  1.0000
  H   H15       1.0  0.03610  0.55584  0.23476  1.0000
  H   H16       1.0  0.96390  0.44417  0.76525  1.0000
  H   H17       1.0  0.55421  0.15320  0.78784  1.0000
  H   H18       1.0  0.44578  0.84679  0.21215  1.0000
  H   H19       1.0  0.53406  0.32386  0.77936  1.0000
  H   H20       1.0  0.46594  0.67613  0.22063  1.0000
  C   C1        1.0  0.81967  0.41393  0.34999  1.0000
  C   C2        1.0  0.18033  0.58607  0.65001  1.0000
  C   C3        1.0  0.75651  0.31315  0.41784  1.0000
  C   C4        1.0  0.24349  0.68686  0.58215  1.0000
  C   C5        1.0  0.70158  0.37103  0.53391  1.0000
  C   C6        1.0  0.29841  0.62897  0.46609  1.0000
  C   C7        1.0  0.70513  0.53027  0.58748  1.0000
  C   C8        1.0  0.29487  0.46973  0.41251  1.0000
  C   C9        1.0  0.76114  0.62983  0.51724  1.0000
  C   C10       1.0  0.23884  0.37017  0.48275  1.0000
  C   C11       1.0  0.81674  0.57407  0.40133  1.0000
  C   C12       1.0  0.18325  0.42593  0.59867  1.0000
  C   C13       1.0  0.65596  0.59156  0.71467  1.0000
  C   C14       1.0  0.34403  0.40844  0.28533  1.0000
  C   C15       1.0  0.90133  0.19845  0.19490  1.0000
  C   C16       1.0  0.09868  0.80156  0.80511  1.0000
  C   C17       1.0  0.74590  0.08974  0.10587  1.0000
  C   C18       1.0  0.25410  0.91025  0.89414  1.0000
  C   C19       1.0  0.93901  0.46225  0.16756  1.0000
  C   C20       1.0  0.06099  0.53775  0.83244  1.0000
  C   C21       1.0  0.81001  0.53827  0.09568  1.0000
  C   C22       1.0  0.18999  0.46173  0.90432  1.0000
  N   N1        1.0  0.88262  0.35888  0.23883  1.0000
  N   N2        1.0  0.11739  0.64112  0.76117  1.0000
  O   O1        1.0  0.62121  0.14820  0.06612  1.0000
  O   O2        1.0  0.37879  0.85180  0.93388  1.0000
  O   O3        1.0  0.75495  0.94719  0.07680  1.0000
  O   O4        1.0  0.24505  0.05281  0.92322  1.0000
  O   O5        1.0  0.65531  0.48854  0.07179  1.0000
  O   O6        1.0  0.34469  0.51146  0.92821  1.0000
  O   O7        1.0  0.86057  0.65351  0.05908  1.0000
  O   O8        1.0  0.13943  0.34649  0.94092  1.0000
  O   O9        1.0  0.60686  0.49849  0.77984  1.0000
  O   O10       1.0  0.39314  0.50151  0.22015  1.0000
  O   O11       1.0  0.66565  0.73730  0.76715  1.0000
  O   O12       1.0  0.33435  0.26270  0.23285  1.0000
  O   O13       1.0  0.48413  0.23196  0.80322  1.0000
  O   O14       1.0  0.51586  0.76803  0.19678  1.0000
