data_image0
_chemical_formula_structural       Er2H20C22N2O14
_chemical_formula_sum              "Er2 H20 C22 N2 O14"
_cell_length_a       8.2768
_cell_length_b       8.89298
_cell_length_c       10.5047
_cell_angle_alpha    105.47
_cell_angle_beta     100.63
_cell_angle_gamma    95.0701

_space_group_name_H-M_alt    "P 1"
_space_group_IT_number       1

loop_
  _space_group_symop_operation_xyz
  'x, y, z'

loop_
  _atom_site_type_symbol
  _atom_site_label
  _atom_site_symmetry_multiplicity
  _atom_site_fract_x
  _atom_site_fract_y
  _atom_site_fract_z
  _atom_site_occupancy
  Er  Er1       1.0  0.41737  0.29469  0.02848  1.0000
  Er  Er2       1.0  0.58263  0.70531  0.97153  1.0000
  H   H1        1.0  0.74635  0.18517  0.37784  1.0000
  H   H2        1.0  0.25364  0.81482  0.62214  1.0000
  H   H3        1.0  0.65248  0.28952  0.58734  1.0000
  H   H4        1.0  0.34750  0.71046  0.41264  1.0000
  H   H5        1.0  0.75865  0.76220  0.56502  1.0000
  H   H6        1.0  0.24134  0.23779  0.43499  1.0000
  H   H7        1.0  0.85600  0.66276  0.35544  1.0000
  H   H8        1.0  0.14400  0.33724  0.64456  1.0000
  H   H9        1.0  0.94104  0.14739  0.27647  1.0000
  H   H10       1.0  0.05897  0.85262  0.72354  1.0000
  H   H11       1.0  0.99450  0.18190  0.13210  1.0000
  H   H12       1.0  0.00551  0.81810  0.86791  1.0000
  H   H13       1.0  0.99899  0.39935  0.09071  1.0000
  H   H14       1.0  0.00103  0.60065  0.90930  1.0000
  H   H15       1.0  0.03331  0.56153  0.23590  1.0000
  H   H16       1.0  0.96670  0.43847  0.76410  1.0000
  H   H17       1.0  0.54930  0.14724  0.79337  1.0000
  H   H18       1.0  0.45069  0.85276  0.20663  1.0000
  H   H19       1.0  0.53373  0.32304  0.78532  1.0000
  H   H20       1.0  0.46626  0.67696  0.21468  1.0000
  C   C1        1.0  0.81735  0.41562  0.35194  1.0000
  C   C2        1.0  0.18265  0.58438  0.64805  1.0000
  C   C3        1.0  0.75406  0.31221  0.41899  1.0000
  C   C4        1.0  0.24593  0.68779  0.58100  1.0000
  C   C5        1.0  0.70019  0.37098  0.53724  1.0000
  C   C6        1.0  0.29980  0.62901  0.46275  1.0000
  C   C7        1.0  0.70373  0.53368  0.59357  1.0000
  C   C8        1.0  0.29626  0.46631  0.40642  1.0000
  C   C9        1.0  0.75874  0.63598  0.52386  1.0000
  C   C10       1.0  0.24126  0.36401  0.47614  1.0000
  C   C11       1.0  0.81352  0.57934  0.40571  1.0000
  C   C12       1.0  0.18647  0.42065  0.59429  1.0000
  C   C13       1.0  0.65560  0.59456  0.72282  1.0000
  C   C14       1.0  0.34439  0.40544  0.27718  1.0000
  C   C15       1.0  0.89769  0.19461  0.19162  1.0000
  C   C16       1.0  0.10232  0.80539  0.80839  1.0000
  C   C17       1.0  0.73950  0.08846  0.10183  1.0000
  C   C18       1.0  0.26050  0.91155  0.89818  1.0000
  C   C19       1.0  0.93801  0.46455  0.16853  1.0000
  C   C20       1.0  0.06200  0.53544  0.83147  1.0000
  C   C21       1.0  0.80603  0.53873  0.09547  1.0000
  C   C22       1.0  0.19398  0.46127  0.90453  1.0000
  N   N1        1.0  0.88188  0.35950  0.23985  1.0000
  N   N2        1.0  0.11812  0.64051  0.76015  1.0000
  O   O1        1.0  0.61671  0.15281  0.06301  1.0000
  O   O2        1.0  0.38330  0.84719  0.93697  1.0000
  O   O3        1.0  0.74559  0.94209  0.07101  1.0000
  O   O4        1.0  0.25441  0.05792  0.92902  1.0000
  O   O5        1.0  0.65035  0.48759  0.07198  1.0000
  O   O6        1.0  0.34967  0.51242  0.92804  1.0000
  O   O7        1.0  0.85440  0.65526  0.05713  1.0000
  O   O8        1.0  0.14561  0.34473  0.94287  1.0000
  O   O9        1.0  0.61013  0.49860  0.78815  1.0000
  O   O10       1.0  0.38987  0.50141  0.21186  1.0000
  O   O11       1.0  0.66261  0.74281  0.77852  1.0000
  O   O12       1.0  0.33739  0.25719  0.22147  1.0000
  O   O13       1.0  0.48033  0.23048  0.80863  1.0000
  O   O14       1.0  0.51966  0.76951  0.19137  1.0000
