data_image0
_chemical_formula_structural       Tl2H16Au2C44N4F20
_chemical_formula_sum              "Tl2 H16 Au2 C44 N4 F20"
_cell_length_a       7.70636
_cell_length_b       11.5624
_cell_length_c       12.8592
_cell_angle_alpha    105.358
_cell_angle_beta     105.22
_cell_angle_gamma    89.7074

_space_group_name_H-M_alt    "P 1"
_space_group_IT_number       1

loop_
  _space_group_symop_operation_xyz
  'x, y, z'

loop_
  _atom_site_type_symbol
  _atom_site_label
  _atom_site_symmetry_multiplicity
  _atom_site_fract_x
  _atom_site_fract_y
  _atom_site_fract_z
  _atom_site_occupancy
  Tl  Tl1       1.0  0.21362  0.80297  0.70843  1.0000
  Tl  Tl2       1.0  0.78638  0.19703  0.29157  1.0000
  H   H1        1.0  0.88648  0.59469  0.71144  1.0000
  H   H2        1.0  0.11352  0.40531  0.28856  1.0000
  H   H3        1.0  0.79850  0.46935  0.81847  1.0000
  H   H4        1.0  0.20150  0.53065  0.18153  1.0000
  H   H5        1.0  0.73320  0.36938  0.90828  1.0000
  H   H6        1.0  0.26680  0.63062  0.09172  1.0000
  H   H7        1.0  0.66587  0.25056  0.02782  1.0000
  H   H8        1.0  0.33413  0.74944  0.97218  1.0000
  H   H9        1.0  0.61236  0.74588  0.95551  1.0000
  H   H10       1.0  0.38764  0.25412  0.04449  1.0000
  H   H11       1.0  0.92746  0.82074  0.04384  1.0000
  H   H12       1.0  0.07254  0.17926  0.95616  1.0000
  H   H13       1.0  0.81710  0.11075  0.88533  1.0000
  H   H14       1.0  0.18291  0.88924  0.11467  1.0000
  H   H15       1.0  0.50273  0.02867  0.81199  1.0000
  H   H16       1.0  0.49727  0.97133  0.18802  1.0000
  Au  Au1       1.0  0.58747  0.40424  0.40724  1.0000
  Au  Au2       1.0  0.41252  0.59576  0.59277  1.0000
  C   C1        1.0  0.69694  0.52720  0.34820  1.0000
  C   C2        1.0  0.30306  0.47280  0.65180  1.0000
  C   C3        1.0  0.83713  0.61114  0.41616  1.0000
  C   C4        1.0  0.16287  0.38886  0.58384  1.0000
  C   C5        1.0  0.90830  0.69971  0.38070  1.0000
  C   C6        1.0  0.09170  0.30029  0.61931  1.0000
  C   C7        1.0  0.83984  0.70474  0.27051  1.0000
  C   C8        1.0  0.16016  0.29525  0.72949  1.0000
  C   C9        1.0  0.70027  0.62220  0.19885  1.0000
  C   C10       1.0  0.29973  0.37780  0.80115  1.0000
  C   C11       1.0  0.63313  0.53618  0.23904  1.0000
  C   C12       1.0  0.36687  0.46382  0.76096  1.0000
  C   C13       1.0  0.48867  0.27621  0.46538  1.0000
  C   C14       1.0  0.51132  0.72379  0.53462  1.0000
  C   C15       1.0  0.34386  0.19350  0.40314  1.0000
  C   C16       1.0  0.65614  0.80650  0.59686  1.0000
  C   C17       1.0  0.28271  0.10355  0.44159  1.0000
  C   C18       1.0  0.71729  0.89645  0.55842  1.0000
  C   C19       1.0  0.36716  0.09657  0.54960  1.0000
  C   C20       1.0  0.63284  0.90343  0.45040  1.0000
  C   C21       1.0  0.51086  0.17882  0.61586  1.0000
  C   C22       1.0  0.48915  0.82118  0.38414  1.0000
  C   C23       1.0  0.56804  0.26529  0.57253  1.0000
  C   C24       1.0  0.43196  0.73471  0.42748  1.0000
  C   C25       1.0  0.96747  0.60059  0.79636  1.0000
  C   C26       1.0  0.03253  0.39941  0.20364  1.0000
  C   C27       1.0  0.91863  0.52979  0.85755  1.0000
  C   C28       1.0  0.08136  0.47021  0.14245  1.0000
  C   C29       1.0  0.02373  0.53754  0.96660  1.0000
  C   C30       1.0  0.97627  0.46246  0.03339  1.0000
  C   C31       1.0  0.82353  0.38091  0.99152  1.0000
  C   C32       1.0  0.17647  0.61909  0.00847  1.0000
  C   C33       1.0  0.78430  0.31377  0.05857  1.0000
  C   C34       1.0  0.21571  0.68623  0.94143  1.0000
  C   C35       1.0  0.66068  0.82907  0.94452  1.0000
  C   C36       1.0  0.33932  0.17093  0.05548  1.0000
  C   C37       1.0  0.84012  0.87150  0.99354  1.0000
  C   C38       1.0  0.15989  0.12849  0.00646  1.0000
  C   C39       1.0  0.90461  0.97599  0.97548  1.0000
  C   C40       1.0  0.09539  0.02401  0.02452  1.0000
  C   C41       1.0  0.77889  0.03182  0.90726  1.0000
  C   C42       1.0  0.22112  0.96818  0.09275  1.0000
  C   C43       1.0  0.60080  0.98484  0.86444  1.0000
  C   C44       1.0  0.39920  0.01516  0.13557  1.0000
  N   N1        1.0  0.11393  0.67809  0.83723  1.0000
  N   N2        1.0  0.88607  0.32191  0.16276  1.0000
  N   N3        1.0  0.54033  0.88472  0.88161  1.0000
  N   N4        1.0  0.45968  0.11528  0.11839  1.0000
  F   F1        1.0  0.90944  0.61203  0.52590  1.0000
  F   F2        1.0  0.09056  0.38797  0.47411  1.0000
  F   F3        1.0  0.03828  0.78363  0.45184  1.0000
  F   F4        1.0  0.96172  0.21637  0.54816  1.0000
  F   F5        1.0  0.90629  0.78995  0.23379  1.0000
  F   F6        1.0  0.09370  0.21005  0.76621  1.0000
  F   F7        1.0  0.63212  0.62787  0.09166  1.0000
  F   F8        1.0  0.36787  0.37213  0.90834  1.0000
  F   F9        1.0  0.49565  0.45793  0.16420  1.0000
  F   F10       1.0  0.50435  0.54207  0.83580  1.0000
  F   F11       1.0  0.24889  0.19954  0.29881  1.0000
  F   F12       1.0  0.75111  0.80046  0.70119  1.0000
  F   F13       1.0  0.14106  0.02490  0.37709  1.0000
  F   F14       1.0  0.85894  0.97510  0.62292  1.0000
  F   F15       1.0  0.30791  0.01287  0.59098  1.0000
  F   F16       1.0  0.69208  0.98714  0.40902  1.0000
  F   F17       1.0  0.59012  0.17481  0.72275  1.0000
  F   F18       1.0  0.40989  0.82519  0.27725  1.0000
  F   F19       1.0  0.70699  0.34451  0.64306  1.0000
  F   F20       1.0  0.29301  0.65549  0.35695  1.0000
