data_image0
_chemical_formula_structural       Cd10H36C16Br8N40O4
_chemical_formula_sum              "Cd10 H36 C16 Br8 N40 O4"
_cell_length_a       9.31133
_cell_length_b       10.4258
_cell_length_c       13.989
_cell_angle_alpha    90
_cell_angle_beta     95.3358
_cell_angle_gamma    90

_space_group_name_H-M_alt    "P 1"
_space_group_IT_number       1

loop_
  _space_group_symop_operation_xyz
  'x, y, z'

loop_
  _atom_site_type_symbol
  _atom_site_label
  _atom_site_symmetry_multiplicity
  _atom_site_fract_x
  _atom_site_fract_y
  _atom_site_fract_z
  _atom_site_occupancy
  Cd  Cd1       1.0  1.00000  0.50000  0.50000  1.0000
  Cd  Cd2       1.0  0.00000  0.00000  1.00000  1.0000
  Cd  Cd3       1.0  0.18729  0.17361  0.51429  1.0000
  Cd  Cd4       1.0  0.81271  0.67361  0.98571  1.0000
  Cd  Cd5       1.0  0.81271  0.82640  0.48571  1.0000
  Cd  Cd6       1.0  0.18730  0.32640  0.01429  1.0000
  Cd  Cd7       1.0  0.52611  0.45487  0.12024  1.0000
  Cd  Cd8       1.0  0.47388  0.95487  0.37976  1.0000
  Cd  Cd9       1.0  0.47389  0.54513  0.87976  1.0000
  Cd  Cd10      1.0  0.52611  0.04513  0.62024  1.0000
  H   H1        1.0  0.82594  0.30476  0.36715  1.0000
  H   H2        1.0  0.17406  0.80476  0.13285  1.0000
  H   H3        1.0  0.17406  0.69524  0.63285  1.0000
  H   H4        1.0  0.82594  0.19524  0.86715  1.0000
  H   H5        1.0  0.75022  0.30585  0.25194  1.0000
  H   H6        1.0  0.24978  0.80585  0.24806  1.0000
  H   H7        1.0  0.24978  0.69415  0.74806  1.0000
  H   H8        1.0  0.75023  0.19415  0.75194  1.0000
  H   H9        1.0  0.46903  0.20554  0.46377  1.0000
  H   H10       1.0  0.53096  0.70554  0.03623  1.0000
  H   H11       1.0  0.53096  0.79446  0.53623  1.0000
  H   H12       1.0  0.46904  0.29446  0.96377  1.0000
  H   H13       1.0  0.66968  0.46851  0.54486  1.0000
  H   H14       1.0  0.33032  0.96851  0.95514  1.0000
  H   H15       1.0  0.33031  0.53149  0.45514  1.0000
  H   H16       1.0  0.66969  0.03149  0.04486  1.0000
  H   H17       1.0  0.56209  0.36842  0.60114  1.0000
  H   H18       1.0  0.43791  0.86842  0.89886  1.0000
  H   H19       1.0  0.43790  0.63157  0.39886  1.0000
  H   H20       1.0  0.56210  0.13157  0.10114  1.0000
  H   H21       1.0  0.63009  0.83128  0.23390  1.0000
  H   H22       1.0  0.36991  0.33128  0.26610  1.0000
  H   H23       1.0  0.36991  0.16872  0.76610  1.0000
  H   H24       1.0  0.63009  0.66872  0.73390  1.0000
  H   H25       1.0  0.48087  0.74138  0.21302  1.0000
  H   H26       1.0  0.51913  0.24138  0.28698  1.0000
  H   H27       1.0  0.51913  0.25862  0.78697  1.0000
  H   H28       1.0  0.48088  0.75862  0.71303  1.0000
  H   H29       1.0  0.00041  0.96916  0.63000  1.0000
  H   H30       1.0  0.99958  0.46916  0.87000  1.0000
  H   H31       1.0  0.99958  0.03084  0.37000  1.0000
  H   H32       1.0  0.00042  0.53084  0.13000  1.0000
  H   H33       1.0  0.83525  0.95228  0.66760  1.0000
  H   H34       1.0  0.16475  0.45228  0.83240  1.0000
  H   H35       1.0  0.16475  0.04772  0.33240  1.0000
  H   H36       1.0  0.83525  0.54772  0.16760  1.0000
  C   C1        1.0  0.72918  0.47071  0.32488  1.0000
  C   C2        1.0  0.27082  0.97071  0.17512  1.0000
  C   C3        1.0  0.27082  0.52930  0.67512  1.0000
  C   C4        1.0  0.72918  0.02930  0.82488  1.0000
  C   C5        1.0  0.86305  0.11455  0.59245  1.0000
  C   C6        1.0  0.13695  0.61456  0.90755  1.0000
  C   C7        1.0  0.13694  0.88544  0.40755  1.0000
  C   C8        1.0  0.86306  0.38545  0.09245  1.0000
  C   C9        1.0  0.74729  0.28949  0.56474  1.0000
  C   C10       1.0  0.25271  0.78949  0.93526  1.0000
  C   C11       1.0  0.25270  0.71051  0.43526  1.0000
  C   C12       1.0  0.74730  0.21051  0.06474  1.0000
  C   C13       1.0  0.64299  0.65995  0.29998  1.0000
  C   C14       1.0  0.35702  0.15995  0.20002  1.0000
  C   C15       1.0  0.35701  0.34005  0.70002  1.0000
  C   C16       1.0  0.64299  0.84006  0.79998  1.0000
  Br  Br1       1.0  0.25194  0.96726  0.64760  1.0000
  Br  Br2       1.0  0.74806  0.46726  0.85240  1.0000
  Br  Br3       1.0  0.74805  0.03274  0.35240  1.0000
  Br  Br4       1.0  0.25195  0.53274  0.14760  1.0000
  Br  Br5       1.0  0.13708  0.34859  0.36447  1.0000
  Br  Br6       1.0  0.86292  0.84859  0.13553  1.0000
  Br  Br7       1.0  0.86290  0.65141  0.63553  1.0000
  Br  Br8       1.0  0.13709  0.15141  0.86447  1.0000
  N   N1        1.0  0.63506  0.53841  0.26284  1.0000
  N   N2        1.0  0.36495  0.03841  0.23716  1.0000
  N   N3        1.0  0.36494  0.46159  0.73715  1.0000
  N   N4        1.0  0.63506  0.96159  0.76284  1.0000
  N   N5        1.0  0.74635  0.34072  0.31981  1.0000
  N   N6        1.0  0.25365  0.84072  0.18019  1.0000
  N   N7        1.0  0.25364  0.65928  0.68019  1.0000
  N   N8        1.0  0.74636  0.15929  0.81981  1.0000
  N   N9        1.0  0.95493  0.19458  0.55702  1.0000
  N   N10       1.0  0.04507  0.69458  0.94298  1.0000
  N   N11       1.0  0.04507  0.80542  0.44298  1.0000
  N   N12       1.0  0.95493  0.30543  0.05702  1.0000
  N   N13       1.0  0.73111  0.16829  0.59952  1.0000
  N   N14       1.0  0.26889  0.66829  0.90048  1.0000
  N   N15       1.0  0.26889  0.83171  0.40048  1.0000
  N   N16       1.0  0.73111  0.33171  0.09952  1.0000
  N   N17       1.0  0.89199  0.98618  0.61382  1.0000
  N   N18       1.0  0.10801  0.48618  0.88618  1.0000
  N   N19       1.0  0.10801  0.01382  0.38618  1.0000
  N   N20       1.0  0.89199  0.51382  0.11382  1.0000
  N   N21       1.0  0.63561  0.37620  0.55200  1.0000
  N   N22       1.0  0.36439  0.87619  0.94800  1.0000
  N   N23       1.0  0.36438  0.62380  0.44800  1.0000
  N   N24       1.0  0.63562  0.12380  0.05201  1.0000
  N   N25       1.0  0.88024  0.30950  0.53924  1.0000
  N   N26       1.0  0.11976  0.80950  0.96076  1.0000
  N   N27       1.0  0.11975  0.69051  0.46076  1.0000
  N   N28       1.0  0.88025  0.19051  0.03924  1.0000
  N   N29       1.0  0.73400  0.66662  0.37890  1.0000
  N   N30       1.0  0.26600  0.16662  0.12110  1.0000
  N   N31       1.0  0.26599  0.33338  0.62110  1.0000
  N   N32       1.0  0.73401  0.83339  0.87890  1.0000
  N   N33       1.0  0.56386  0.76583  0.26295  1.0000
  N   N34       1.0  0.43614  0.26583  0.23705  1.0000
  N   N35       1.0  0.43614  0.23417  0.73704  1.0000
  N   N36       1.0  0.56386  0.73418  0.76296  1.0000
  N   N37       1.0  0.79313  0.54546  0.39382  1.0000
  N   N38       1.0  0.20687  0.04546  0.10618  1.0000
  N   N39       1.0  0.20687  0.45454  0.60618  1.0000
  N   N40       1.0  0.79313  0.95455  0.89382  1.0000
  O   O1        1.0  0.41892  0.12643  0.47781  1.0000
  O   O2        1.0  0.58108  0.62643  0.02219  1.0000
  O   O3        1.0  0.58108  0.87357  0.52219  1.0000
  O   O4        1.0  0.41892  0.37357  0.97781  1.0000
