data_image0
_chemical_formula_structural       Cd6H40C24N20O16
_chemical_formula_sum              "Cd6 H40 C24 N20 O16"
_cell_length_a       7.12248
_cell_length_b       12.5667
_cell_length_c       13.7939
_cell_angle_alpha    107.079
_cell_angle_beta     89.9814
_cell_angle_gamma    106.474

_space_group_name_H-M_alt    "P 1"
_space_group_IT_number       1

loop_
  _space_group_symop_operation_xyz
  'x, y, z'

loop_
  _atom_site_type_symbol
  _atom_site_label
  _atom_site_symmetry_multiplicity
  _atom_site_fract_x
  _atom_site_fract_y
  _atom_site_fract_z
  _atom_site_occupancy
  Cd  Cd1       1.0  0.28815  0.00009  0.75005  1.0000
  Cd  Cd2       1.0  0.71184  0.99992  0.24995  1.0000
  Cd  Cd3       1.0  0.91358  0.83333  0.95564  1.0000
  Cd  Cd4       1.0  0.08030  0.16666  0.54431  1.0000
  Cd  Cd5       1.0  0.08642  0.16667  0.04436  1.0000
  Cd  Cd6       1.0  0.91970  0.83334  0.45569  1.0000
  H   H1        1.0  0.66866  0.71857  0.67927  1.0000
  H   H2        1.0  0.94934  0.28103  0.82091  1.0000
  H   H3        1.0  0.33134  0.28143  0.32073  1.0000
  H   H4        1.0  0.05065  0.71897  0.17909  1.0000
  H   H5        1.0  0.79916  0.63365  0.71714  1.0000
  H   H6        1.0  0.16455  0.36624  0.78299  1.0000
  H   H7        1.0  0.20083  0.36635  0.28286  1.0000
  H   H8        1.0  0.83545  0.63377  0.21701  1.0000
  H   H9        1.0  0.79145  0.63722  0.58785  1.0000
  H   H10       1.0  0.15339  0.36266  0.91227  1.0000
  H   H11       1.0  0.20855  0.36278  0.41214  1.0000
  H   H12       1.0  0.84661  0.63734  0.08773  1.0000
  H   H13       1.0  0.49228  0.73500  0.84833  1.0000
  H   H14       1.0  0.75750  0.26501  0.65172  1.0000
  H   H15       1.0  0.50772  0.26500  0.15167  1.0000
  H   H16       1.0  0.24250  0.73499  0.34828  1.0000
  H   H17       1.0  0.30706  0.78516  0.81644  1.0000
  H   H18       1.0  0.52194  0.21491  0.68349  1.0000
  H   H19       1.0  0.69294  0.21484  0.18356  1.0000
  H   H20       1.0  0.47806  0.78509  0.31651  1.0000
  H   H21       1.0  0.80933  0.42136  0.84874  1.0000
  H   H22       1.0  0.38795  0.57848  0.65154  1.0000
  H   H23       1.0  0.19067  0.57864  0.15125  1.0000
  H   H24       1.0  0.61206  0.42152  0.34846  1.0000
  H   H25       1.0  0.59431  0.43497  0.91216  1.0000
  H   H26       1.0  0.15944  0.56516  0.58826  1.0000
  H   H27       1.0  0.40569  0.56503  0.08784  1.0000
  H   H28       1.0  0.84057  0.43484  0.41174  1.0000
  H   H29       1.0  0.60326  0.43527  0.78408  1.0000
  H   H30       1.0  0.16796  0.56457  0.71625  1.0000
  H   H31       1.0  0.39674  0.56473  0.21592  1.0000
  H   H32       1.0  0.83205  0.43543  0.28375  1.0000
  H   H33       1.0  0.76672  0.27143  0.99292  1.0000
  H   H34       1.0  0.49473  0.72856  0.50694  1.0000
  H   H35       1.0  0.23328  0.72857  0.00708  1.0000
  H   H36       1.0  0.50527  0.27144  0.49307  1.0000
  H   H37       1.0  0.52959  0.22431  0.93873  1.0000
  H   H38       1.0  0.30468  0.77578  0.56103  1.0000
  H   H39       1.0  0.47041  0.77569  0.06127  1.0000
  H   H40       1.0  0.69532  0.22422  0.43897  1.0000
  C   C1        1.0  0.56307  0.90975  0.87378  1.0000
  C   C2        1.0  0.65327  0.09026  0.62623  1.0000
  C   C3        1.0  0.43692  0.09025  0.12622  1.0000
  C   C4        1.0  0.34673  0.90974  0.37377  1.0000
  C   C5        1.0  0.79974  0.68784  0.66792  1.0000
  C   C6        1.0  0.11120  0.31200  0.83221  1.0000
  C   C7        1.0  0.20026  0.31216  0.33207  1.0000
  C   C8        1.0  0.88880  0.68800  0.16779  1.0000
  C   C9        1.0  0.97624  0.79341  0.69617  1.0000
  C   C10       1.0  0.18267  0.20664  0.80396  1.0000
  C   C11       1.0  0.02376  0.20659  0.30383  1.0000
  C   C12       1.0  0.81733  0.79337  0.19605  1.0000
  C   C13       1.0  0.69251  0.46308  0.85710  1.0000
  C   C14       1.0  0.22937  0.53684  0.64318  1.0000
  C   C15       1.0  0.30749  0.53692  0.14290  1.0000
  C   C16       1.0  0.77064  0.46316  0.35682  1.0000
  C   C17       1.0  0.77411  0.59414  0.89250  1.0000
  C   C18       1.0  0.17972  0.40580  0.60754  1.0000
  C   C19       1.0  0.22589  0.40586  0.10750  1.0000
  C   C20       1.0  0.82028  0.59420  0.39246  1.0000
  C   C21       1.0  0.65777  0.09714  0.92458  1.0000
  C   C22       1.0  0.56030  0.90288  0.57531  1.0000
  C   C23       1.0  0.34223  0.90286  0.07542  1.0000
  C   C24       1.0  0.43970  0.09712  0.42469  1.0000
  N   N1        1.0  0.50818  0.00382  0.86961  1.0000
  N   N2        1.0  0.50397  0.99621  0.63017  1.0000
  N   N3        1.0  0.49182  0.99618  0.13039  1.0000
  N   N4        1.0  0.49603  0.00379  0.36983  1.0000
  N   N5        1.0  0.73715  0.94180  0.92692  1.0000
  N   N6        1.0  0.79556  0.05820  0.57333  1.0000
  N   N7        1.0  0.26285  0.05820  0.07309  1.0000
  N   N8        1.0  0.20444  0.94180  0.42667  1.0000
  N   N9        1.0  0.45426  0.79726  0.82590  1.0000
  N   N10       1.0  0.65702  0.20277  0.67411  1.0000
  N   N11       1.0  0.54574  0.20274  0.17410  1.0000
  N   N12       1.0  0.34298  0.79723  0.32589  1.0000
  N   N13       1.0  0.79848  0.06381  0.96016  1.0000
  N   N14       1.0  0.73472  0.93618  0.53998  1.0000
  N   N15       1.0  0.20152  0.93619  0.03984  1.0000
  N   N16       1.0  0.26528  0.06382  0.46002  1.0000
  N   N17       1.0  0.66363  0.21034  0.93813  1.0000
  N   N18       1.0  0.45269  0.78971  0.56165  1.0000
  N   N19       1.0  0.33637  0.78966  0.06187  1.0000
  N   N20       1.0  0.54732  0.21029  0.43835  1.0000
  O   O1        1.0  0.65304  0.65455  0.90481  1.0000
  O   O2        1.0  0.99819  0.34544  0.59495  1.0000
  O   O3        1.0  0.34696  0.34545  0.09519  1.0000
  O   O4        1.0  0.00182  0.65456  0.40505  1.0000
  O   O5        1.0  0.95985  0.64232  0.90940  1.0000
  O   O6        1.0  0.31721  0.35754  0.59071  1.0000
  O   O7        1.0  0.04015  0.35768  0.09060  1.0000
  O   O8        1.0  0.68280  0.64246  0.40929  1.0000
  O   O9        1.0  0.05008  0.84076  0.62882  1.0000
  O   O10       1.0  0.20938  0.15937  0.87133  1.0000
  O   O11       1.0  0.94992  0.15923  0.37118  1.0000
  O   O12       1.0  0.79061  0.84063  0.12867  1.0000
  O   O13       1.0  0.05249  0.83879  0.78863  1.0000
  O   O14       1.0  0.21353  0.16126  0.71147  1.0000
  O   O15       1.0  0.94750  0.16121  0.21137  1.0000
  O   O16       1.0  0.78647  0.83874  0.28853  1.0000
