data_image0
_chemical_formula_structural       Cd12H32C16S8N40O24
_chemical_formula_sum              "Cd12 H32 C16 S8 N40 O24"
_cell_length_a       8.60291
_cell_length_b       10.6053
_cell_length_c       17.2362
_cell_angle_alpha    95.9269
_cell_angle_beta     89.9998
_cell_angle_gamma    90.0001

_space_group_name_H-M_alt    "P 1"
_space_group_IT_number       1

loop_
  _space_group_symop_operation_xyz
  'x, y, z'

loop_
  _atom_site_type_symbol
  _atom_site_label
  _atom_site_symmetry_multiplicity
  _atom_site_fract_x
  _atom_site_fract_y
  _atom_site_fract_z
  _atom_site_occupancy
  Cd  Cd1       1.0  0.85711  0.18335  0.94524  1.0000
  Cd  Cd2       1.0  0.35711  0.81665  0.55476  1.0000
  Cd  Cd3       1.0  0.14289  0.81665  0.05476  1.0000
  Cd  Cd4       1.0  0.64289  0.18335  0.44524  1.0000
  Cd  Cd5       1.0  0.56635  0.33864  0.08876  1.0000
  Cd  Cd6       1.0  0.06635  0.66136  0.41124  1.0000
  Cd  Cd7       1.0  0.43365  0.66136  0.91124  1.0000
  Cd  Cd8       1.0  0.93365  0.33864  0.58876  1.0000
  Cd  Cd9       1.0  0.23784  0.36653  0.94134  1.0000
  Cd  Cd10      1.0  0.73783  0.63347  0.55866  1.0000
  Cd  Cd11      1.0  0.76216  0.63347  0.05866  1.0000
  Cd  Cd12      1.0  0.26216  0.36653  0.44134  1.0000
  H   H1        1.0  0.87136  0.90842  0.12363  1.0000
  H   H2        1.0  0.37136  0.09158  0.37637  1.0000
  H   H3        1.0  0.12864  0.09157  0.87637  1.0000
  H   H4        1.0  0.62864  0.90843  0.62363  1.0000
  H   H5        1.0  0.91520  0.04551  0.08582  1.0000
  H   H6        1.0  0.41520  0.95449  0.41418  1.0000
  H   H7        1.0  0.08481  0.95450  0.91418  1.0000
  H   H8        1.0  0.58480  0.04551  0.58582  1.0000
  H   H9        1.0  0.45025  0.95274  0.84167  1.0000
  H   H10       1.0  0.95025  0.04726  0.65833  1.0000
  H   H11       1.0  0.54975  0.04726  0.15833  1.0000
  H   H12       1.0  0.04975  0.95274  0.34167  1.0000
  H   H13       1.0  0.50669  0.09475  0.88498  1.0000
  H   H14       1.0  0.00669  0.90525  0.61501  1.0000
  H   H15       1.0  0.49330  0.90525  0.11501  1.0000
  H   H16       1.0  0.99331  0.09475  0.38499  1.0000
  H   H17       1.0  0.69829  0.12036  0.77639  1.0000
  H   H18       1.0  0.19829  0.87964  0.72361  1.0000
  H   H19       1.0  0.30171  0.87964  0.22361  1.0000
  H   H20       1.0  0.80171  0.12036  0.27639  1.0000
  H   H21       1.0  0.69585  0.19415  0.69159  1.0000
  H   H22       1.0  0.19584  0.80585  0.80841  1.0000
  H   H23       1.0  0.30415  0.80585  0.30841  1.0000
  H   H24       1.0  0.80415  0.19415  0.19159  1.0000
  H   H25       1.0  0.32789  0.39982  0.76832  1.0000
  H   H26       1.0  0.82790  0.60018  0.73168  1.0000
  H   H27       1.0  0.67210  0.60018  0.23168  1.0000
  H   H28       1.0  0.17211  0.39982  0.26832  1.0000
  H   H29       1.0  0.24974  0.38907  0.67459  1.0000
  H   H30       1.0  0.74974  0.61093  0.82541  1.0000
  H   H31       1.0  0.75026  0.61093  0.32541  1.0000
  H   H32       1.0  0.25027  0.38907  0.17459  1.0000
  C   C1        1.0  0.77259  0.92762  0.01995  1.0000
  C   C2        1.0  0.27259  0.07238  0.48005  1.0000
  C   C3        1.0  0.22741  0.07238  0.98005  1.0000
  C   C4        1.0  0.72741  0.92762  0.51995  1.0000
  C   C5        1.0  0.61422  0.94867  0.92629  1.0000
  C   C6        1.0  0.11422  0.05134  0.57371  1.0000
  C   C7        1.0  0.38578  0.05133  0.07371  1.0000
  C   C8        1.0  0.88578  0.94867  0.42629  1.0000
  C   C9        1.0  0.89048  0.22676  0.76038  1.0000
  C   C10       1.0  0.39047  0.77324  0.73962  1.0000
  C   C11       1.0  0.10952  0.77324  0.23962  1.0000
  C   C12       1.0  0.60953  0.22676  0.26038  1.0000
  C   C13       1.0  0.11024  0.32319  0.75790  1.0000
  C   C14       1.0  0.61024  0.67681  0.74210  1.0000
  C   C15       1.0  0.88975  0.67681  0.24210  1.0000
  C   C16       1.0  0.38977  0.32319  0.25790  1.0000
  S   S1        1.0  0.62740  0.40597  0.89049  1.0000
  S   S2        1.0  0.12740  0.59403  0.60951  1.0000
  S   S3        1.0  0.37260  0.59403  0.10951  1.0000
  S   S4        1.0  0.87260  0.40597  0.39049  1.0000
  S   S5        1.0  0.95790  0.35376  0.09178  1.0000
  S   S6        1.0  0.45791  0.64624  0.40822  1.0000
  S   S7        1.0  0.04209  0.64624  0.90822  1.0000
  S   S8        1.0  0.54210  0.35376  0.59178  1.0000
  N   N1        1.0  0.73219  0.00938  0.96792  1.0000
  N   N2        1.0  0.23219  0.99062  0.53208  1.0000
  N   N3        1.0  0.26781  0.99062  0.03207  1.0000
  N   N4        1.0  0.76781  0.00938  0.46793  1.0000
  N   N5        1.0  0.68888  0.82165  0.01119  1.0000
  N   N6        1.0  0.18888  0.17835  0.48881  1.0000
  N   N7        1.0  0.31112  0.17835  0.98881  1.0000
  N   N8        1.0  0.81112  0.82165  0.51119  1.0000
  N   N9        1.0  0.58473  0.83591  0.95074  1.0000
  N   N10       1.0  0.08473  0.16409  0.54926  1.0000
  N   N11       1.0  0.41528  0.16409  0.04926  1.0000
  N   N12       1.0  0.91528  0.83591  0.45074  1.0000
  N   N13       1.0  0.89113  0.95034  0.07376  1.0000
  N   N14       1.0  0.39113  0.04966  0.42624  1.0000
  N   N15       1.0  0.10887  0.04966  0.92624  1.0000
  N   N16       1.0  0.60887  0.95034  0.57376  1.0000
  N   N17       1.0  0.54104  0.00416  0.86676  1.0000
  N   N18       1.0  0.04104  0.99584  0.63324  1.0000
  N   N19       1.0  0.45896  0.99584  0.13324  1.0000
  N   N20       1.0  0.95896  0.00416  0.36676  1.0000
  N   N21       1.0  0.98208  0.29009  0.71291  1.0000
  N   N22       1.0  0.48208  0.70991  0.78709  1.0000
  N   N23       1.0  0.01792  0.70991  0.28709  1.0000
  N   N24       1.0  0.51792  0.29009  0.21291  1.0000
  N   N25       1.0  0.95236  0.22473  0.83091  1.0000
  N   N26       1.0  0.45236  0.77527  0.66909  1.0000
  N   N27       1.0  0.04764  0.77527  0.16909  1.0000
  N   N28       1.0  0.54764  0.22473  0.33091  1.0000
  N   N29       1.0  0.09789  0.28560  0.82968  1.0000
  N   N30       1.0  0.59789  0.71440  0.67032  1.0000
  N   N31       1.0  0.90211  0.71440  0.17032  1.0000
  N   N32       1.0  0.40211  0.28560  0.32968  1.0000
  N   N33       1.0  0.76110  0.15939  0.73476  1.0000
  N   N34       1.0  0.26110  0.84062  0.76524  1.0000
  N   N35       1.0  0.23890  0.84061  0.26524  1.0000
  N   N36       1.0  0.73890  0.15938  0.23476  1.0000
  N   N37       1.0  0.23320  0.38711  0.73276  1.0000
  N   N38       1.0  0.73320  0.61290  0.76724  1.0000
  N   N39       1.0  0.76680  0.61289  0.26724  1.0000
  N   N40       1.0  0.26680  0.38711  0.23276  1.0000
  O   O1        1.0  0.63285  0.30974  0.95284  1.0000
  O   O2        1.0  0.13285  0.69026  0.54716  1.0000
  O   O3        1.0  0.36715  0.69026  0.04715  1.0000
  O   O4        1.0  0.86715  0.30974  0.45285  1.0000
  O   O5        1.0  0.45518  0.41196  0.86636  1.0000
  O   O6        1.0  0.95517  0.58804  0.63363  1.0000
  O   O7        1.0  0.54482  0.58804  0.13363  1.0000
  O   O8        1.0  0.04483  0.41196  0.36637  1.0000
  O   O9        1.0  0.65359  0.53959  0.93630  1.0000
  O   O10       1.0  0.15359  0.46041  0.56370  1.0000
  O   O11       1.0  0.34641  0.46041  0.06370  1.0000
  O   O12       1.0  0.84641  0.53959  0.43630  1.0000
  O   O13       1.0  0.80584  0.43324  0.10071  1.0000
  O   O14       1.0  0.30584  0.56676  0.39929  1.0000
  O   O15       1.0  0.19416  0.56676  0.89929  1.0000
  O   O16       1.0  0.69416  0.43324  0.60071  1.0000
  O   O17       1.0  0.99910  0.34886  0.00373  1.0000
  O   O18       1.0  0.49910  0.65114  0.49627  1.0000
  O   O19       1.0  0.00090  0.65114  0.99627  1.0000
  O   O20       1.0  0.50090  0.34886  0.50373  1.0000
  O   O21       1.0  0.89841  0.21853  0.09897  1.0000
  O   O22       1.0  0.39842  0.78146  0.40102  1.0000
  O   O23       1.0  0.10158  0.78146  0.90102  1.0000
  O   O24       1.0  0.60159  0.21854  0.59897  1.0000
