data_image0
_chemical_formula_structural       Ag2P2H46C46N4O6
_chemical_formula_sum              "Ag2 P2 H46 C46 N4 O6"
_cell_length_a       9.99362
_cell_length_b       10.537
_cell_length_c       11.2813
_cell_angle_alpha    87.2936
_cell_angle_beta     77.8389
_cell_angle_gamma    64.1424

_space_group_name_H-M_alt    "P 1"
_space_group_IT_number       1

loop_
  _space_group_symop_operation_xyz
  'x, y, z'

loop_
  _atom_site_type_symbol
  _atom_site_label
  _atom_site_symmetry_multiplicity
  _atom_site_fract_x
  _atom_site_fract_y
  _atom_site_fract_z
  _atom_site_occupancy
  Ag  Ag1       1.0  0.28005  0.07381  0.13059  1.0000
  Ag  Ag2       1.0  0.71995  0.92620  0.86941  1.0000
  P   P1        1.0  0.17219  0.25910  0.28120  1.0000
  P   P2        1.0  0.82781  0.74091  0.71880  1.0000
  H   H1        1.0  0.22822  0.00048  0.87148  1.0000
  H   H2        1.0  0.77179  0.99952  0.12851  1.0000
  H   H3        1.0  0.03313  0.96561  0.78236  1.0000
  H   H4        1.0  0.96687  0.03439  0.21764  1.0000
  H   H5        1.0  0.27924  0.92058  0.32942  1.0000
  H   H6        1.0  0.72076  0.07942  0.67058  1.0000
  H   H7        1.0  0.08505  0.04077  0.38131  1.0000
  H   H8        1.0  0.91494  0.95923  0.61869  1.0000
  H   H9        1.0  0.17803  0.90231  0.47310  1.0000
  H   H10       1.0  0.82197  0.09769  0.52690  1.0000
  H   H11       1.0  0.30621  0.92699  0.61036  1.0000
  H   H12       1.0  0.69378  0.07300  0.38964  1.0000
  H   H13       1.0  0.39596  0.06745  0.71477  1.0000
  H   H14       1.0  0.60405  0.93255  0.28523  1.0000
  H   H15       1.0  0.38082  0.29746  0.63334  1.0000
  H   H16       1.0  0.61919  0.70253  0.36666  1.0000
  H   H17       1.0  0.27900  0.38105  0.44767  1.0000
  H   H18       1.0  0.72100  0.61895  0.55234  1.0000
  H   H19       1.0  0.57365  0.28836  0.09885  1.0000
  H   H20       1.0  0.42634  0.71164  0.90115  1.0000
  H   H21       1.0  0.46236  0.19207  0.12836  1.0000
  H   H22       1.0  0.53764  0.80794  0.87164  1.0000
  H   H23       1.0  0.52421  0.23715  0.24815  1.0000
  H   H24       1.0  0.47579  0.76285  0.75185  1.0000
  H   H25       1.0  0.45901  0.53802  0.11571  1.0000
  H   H26       1.0  0.54098  0.46198  0.88429  1.0000
  H   H27       1.0  0.23594  0.76576  0.16147  1.0000
  H   H28       1.0  0.76406  0.23424  0.83853  1.0000
  H   H29       1.0  0.98027  0.77587  0.26392  1.0000
  H   H30       1.0  0.01973  0.22413  0.73608  1.0000
  H   H31       1.0  0.95944  0.55571  0.31662  1.0000
  H   H32       1.0  0.04056  0.44429  0.68338  1.0000
  H   H33       1.0  0.87855  0.37831  0.03676  1.0000
  H   H34       1.0  0.12146  0.62168  0.96325  1.0000
  H   H35       1.0  0.06558  0.30349  0.06770  1.0000
  H   H36       1.0  0.93443  0.69651  0.93230  1.0000
  H   H37       1.0  0.94795  0.48643  0.09236  1.0000
  H   H38       1.0  0.05205  0.51357  0.90764  1.0000
  H   H39       1.0  0.65754  0.44061  0.19020  1.0000
  H   H40       1.0  0.34247  0.55939  0.80980  1.0000
  H   H41       1.0  0.53073  0.42705  0.40122  1.0000
  H   H42       1.0  0.46927  0.57295  0.59878  1.0000
  H   H43       1.0  0.68275  0.35368  0.56420  1.0000
  H   H44       1.0  0.31725  0.64632  0.43580  1.0000
  H   H45       1.0  0.95782  0.28687  0.51107  1.0000
  H   H46       1.0  0.04218  0.71313  0.48894  1.0000
  C   C1        1.0  0.12649  0.99881  0.92865  1.0000
  C   C2        1.0  0.87352  0.00119  0.07134  1.0000
  C   C3        1.0  0.01810  0.98120  0.88008  1.0000
  C   C4        1.0  0.98190  0.01880  0.11992  1.0000
  C   C5        1.0  0.23655  0.20096  0.42281  1.0000
  C   C6        1.0  0.76345  0.79905  0.57719  1.0000
  C   C7        1.0  0.24279  0.07169  0.46940  1.0000
  C   C8        1.0  0.75720  0.92832  0.53060  1.0000
  C   C9        1.0  0.19297  0.97979  0.41018  1.0000
  C   C10       1.0  0.80703  0.02021  0.58982  1.0000
  C   C11       1.0  0.29992  0.02737  0.57496  1.0000
  C   C12       1.0  0.70008  0.97263  0.42504  1.0000
  C   C13       1.0  0.35104  0.10590  0.63343  1.0000
  C   C14       1.0  0.64896  0.89409  0.36656  1.0000
  C   C15       1.0  0.34388  0.23355  0.58737  1.0000
  C   C16       1.0  0.65612  0.76644  0.41263  1.0000
  C   C17       1.0  0.28669  0.28045  0.48277  1.0000
  C   C18       1.0  0.71331  0.71955  0.51724  1.0000
  C   C19       1.0  0.19742  0.41927  0.24695  1.0000
  C   C20       1.0  0.80258  0.58073  0.75305  1.0000
  C   C21       1.0  0.34112  0.41272  0.19005  1.0000
  C   C22       1.0  0.65888  0.58727  0.80995  1.0000
  C   C23       1.0  0.48266  0.27588  0.16433  1.0000
  C   C24       1.0  0.51734  0.72412  0.83567  1.0000
  C   C25       1.0  0.34994  0.53994  0.16015  1.0000
  C   C26       1.0  0.65006  0.46005  0.83986  1.0000
  C   C27       1.0  0.22250  0.67015  0.18571  1.0000
  C   C28       1.0  0.77750  0.32985  0.81430  1.0000
  C   C29       1.0  0.08173  0.67563  0.24244  1.0000
  C   C30       1.0  0.91827  0.32437  0.75756  1.0000
  C   C31       1.0  0.06978  0.55067  0.27254  1.0000
  C   C32       1.0  0.93022  0.44933  0.72746  1.0000
  C   C33       1.0  0.96582  0.32097  0.31977  1.0000
  C   C34       1.0  0.03418  0.67904  0.68023  1.0000
  C   C35       1.0  0.88032  0.36558  0.22751  1.0000
  C   C36       1.0  0.11969  0.63442  0.77249  1.0000
  C   C37       1.0  0.94728  0.38237  0.09930  1.0000
  C   C38       1.0  0.05272  0.61763  0.90070  1.0000
  C   C39       1.0  0.72402  0.40328  0.26031  1.0000
  C   C40       1.0  0.27599  0.59671  0.73968  1.0000
  C   C41       1.0  0.65240  0.39789  0.37935  1.0000
  C   C42       1.0  0.34760  0.60211  0.62065  1.0000
  C   C43       1.0  0.73674  0.35671  0.47011  1.0000
  C   C44       1.0  0.26326  0.64329  0.52989  1.0000
  C   C45       1.0  0.89244  0.31874  0.43996  1.0000
  C   C46       1.0  0.10756  0.68126  0.56004  1.0000
  N   N1        1.0  0.42182  0.19473  0.89685  1.0000
  N   N2        1.0  0.57818  0.80527  0.10315  1.0000
  N   N3        1.0  0.10873  0.01715  0.04889  1.0000
  N   N4        1.0  0.89127  0.98285  0.95111  1.0000
  O   O1        1.0  0.39921  0.08345  0.91661  1.0000
  O   O2        1.0  0.60079  0.91655  0.08339  1.0000
  O   O3        1.0  0.55947  0.17727  0.86126  1.0000
  O   O4        1.0  0.44053  0.82273  0.13874  1.0000
  O   O5        1.0  0.31413  0.31499  0.91171  1.0000
  O   O6        1.0  0.68587  0.68501  0.08829  1.0000
