data_image0
_chemical_formula_structural       Sn2H74C52N2O6
_chemical_formula_sum              "Sn2 H74 C52 N2 O6"
_cell_length_a       9.51645
_cell_length_b       11.5396
_cell_length_c       12.3773
_cell_angle_alpha    96.439
_cell_angle_beta     107.762
_cell_angle_gamma    101.705

_space_group_name_H-M_alt    "P 1"
_space_group_IT_number       1

loop_
  _space_group_symop_operation_xyz
  'x, y, z'

loop_
  _atom_site_type_symbol
  _atom_site_label
  _atom_site_symmetry_multiplicity
  _atom_site_fract_x
  _atom_site_fract_y
  _atom_site_fract_z
  _atom_site_occupancy
  Sn  Sn1       1.0  0.22133  0.23342  0.55707  1.0000
  Sn  Sn2       1.0  0.77867  0.76658  0.44293  1.0000
  H   H1        1.0  0.84293  0.36699  0.67336  1.0000
  H   H2        1.0  0.15707  0.63301  0.32663  1.0000
  H   H3        1.0  0.31552  0.05056  0.46742  1.0000
  H   H4        1.0  0.68448  0.94943  0.53258  1.0000
  H   H5        1.0  0.11582  0.00847  0.43345  1.0000
  H   H6        1.0  0.88418  0.99153  0.56655  1.0000
  H   H7        1.0  0.07946  0.13888  0.28401  1.0000
  H   H8        1.0  0.92054  0.86112  0.71599  1.0000
  H   H9        1.0  0.27647  0.18750  0.31382  1.0000
  H   H10       1.0  0.72353  0.81250  0.68618  1.0000
  H   H11       1.0  0.09319  0.92490  0.22588  1.0000
  H   H12       1.0  0.90681  0.07510  0.77412  1.0000
  H   H13       1.0  0.13697  0.02486  0.13585  1.0000
  H   H14       1.0  0.86302  0.97514  0.86415  1.0000
  H   H15       1.0  0.32222  0.89321  0.17902  1.0000
  H   H16       1.0  0.67778  0.10679  0.82098  1.0000
  H   H17       1.0  0.37727  0.95131  0.32829  1.0000
  H   H18       1.0  0.62273  0.04869  0.67171  1.0000
  H   H19       1.0  0.41655  0.04773  0.23342  1.0000
  H   H20       1.0  0.58344  0.95226  0.76658  1.0000
  H   H21       1.0  0.30499  0.39023  0.43160  1.0000
  H   H22       1.0  0.69501  0.60977  0.56840  1.0000
  H   H23       1.0  0.16157  0.43089  0.47979  1.0000
  H   H24       1.0  0.83843  0.56911  0.52021  1.0000
  H   H25       1.0  0.49704  0.48071  0.63741  1.0000
  H   H26       1.0  0.50296  0.51929  0.36259  1.0000
  H   H27       1.0  0.42210  0.58507  0.55927  1.0000
  H   H28       1.0  0.57790  0.41494  0.44073  1.0000
  H   H29       1.0  0.30767  0.47888  0.74195  1.0000
  H   H30       1.0  0.69233  0.52112  0.25805  1.0000
  H   H31       1.0  0.23049  0.57994  0.66071  1.0000
  H   H32       1.0  0.76951  0.42007  0.33929  1.0000
  H   H33       1.0  0.41348  0.69431  0.85151  1.0000
  H   H34       1.0  0.58652  0.30569  0.14849  1.0000
  H   H35       1.0  0.48955  0.73321  0.74285  1.0000
  H   H36       1.0  0.51045  0.26679  0.25716  1.0000
  H   H37       1.0  0.56088  0.63192  0.82961  1.0000
  H   H38       1.0  0.43912  0.36808  0.17040  1.0000
  H   H39       1.0  0.30766  0.26916  0.78871  1.0000
  H   H40       1.0  0.69234  0.73084  0.21129  1.0000
  H   H41       1.0  0.11260  0.18898  0.73030  1.0000
  H   H42       1.0  0.88740  0.81102  0.26970  1.0000
  H   H43       1.0  0.19158  0.00213  0.66607  1.0000
  H   H44       1.0  0.80842  0.99787  0.33393  1.0000
  H   H45       1.0  0.38472  0.08292  0.72693  1.0000
  H   H46       1.0  0.61528  0.91708  0.27307  1.0000
  H   H47       1.0  0.16252  0.01991  0.85859  1.0000
  H   H48       1.0  0.83747  0.98009  0.14141  1.0000
  H   H49       1.0  0.30521  0.94637  0.84979  1.0000
  H   H50       1.0  0.69479  0.05363  0.15020  1.0000
  H   H51       1.0  0.39396  0.08960  0.03771  1.0000
  H   H52       1.0  0.60603  0.91040  0.96229  1.0000
  H   H53       1.0  0.36385  0.21082  0.96554  1.0000
  H   H54       1.0  0.63615  0.78918  0.03446  1.0000
  H   H55       1.0  0.50814  0.13872  0.95390  1.0000
  H   H56       1.0  0.49186  0.86128  0.04610  1.0000
  H   H57       1.0  0.69454  0.15420  0.38660  1.0000
  H   H58       1.0  0.30546  0.84579  0.61341  1.0000
  H   H59       1.0  0.50258  0.18018  0.45837  1.0000
  H   H60       1.0  0.49742  0.81982  0.54163  1.0000
  H   H61       1.0  0.59184  0.30441  0.84273  1.0000
  H   H62       1.0  0.40816  0.69559  0.15727  1.0000
  H   H63       1.0  0.62501  0.42666  0.03046  1.0000
  H   H64       1.0  0.37499  0.57334  0.96954  1.0000
  H   H65       1.0  0.81887  0.62305  0.10480  1.0000
  H   H66       1.0  0.18113  0.37695  0.89520  1.0000
  H   H67       1.0  0.01479  0.77811  0.07923  1.0000
  H   H68       1.0  0.98521  0.22189  0.92077  1.0000
  H   H69       1.0  0.17141  0.85752  0.96356  1.0000
  H   H70       1.0  0.82859  0.14248  0.03644  1.0000
  H   H71       1.0  0.13879  0.73729  0.77260  1.0000
  H   H72       1.0  0.86122  0.26271  0.22740  1.0000
  H   H73       1.0  0.95680  0.54001  0.69999  1.0000
  H   H74       1.0  0.04321  0.45999  0.30001  1.0000
  C   C1        1.0  0.21102  0.08083  0.43360  1.0000
  C   C2        1.0  0.78898  0.91917  0.56640  1.0000
  C   C3        1.0  0.18595  0.10982  0.31265  1.0000
  C   C4        1.0  0.81405  0.89018  0.68735  1.0000
  C   C5        1.0  0.17875  0.00375  0.22293  1.0000
  C   C6        1.0  0.82125  0.99625  0.77707  1.0000
  C   C7        1.0  0.33156  0.97207  0.24183  1.0000
  C   C8        1.0  0.66844  0.02793  0.75817  1.0000
  C   C9        1.0  0.27173  0.40751  0.50830  1.0000
  C   C10       1.0  0.72827  0.59249  0.49170  1.0000
  C   C11       1.0  0.39101  0.50834  0.60051  1.0000
  C   C12       1.0  0.60899  0.49166  0.39949  1.0000
  C   C13       1.0  0.33760  0.55346  0.69808  1.0000
  C   C14       1.0  0.66240  0.44654  0.30192  1.0000
  C   C15       1.0  0.45660  0.65860  0.78543  1.0000
  C   C16       1.0  0.54340  0.34140  0.21457  1.0000
  C   C17       1.0  0.22601  0.19289  0.72385  1.0000
  C   C18       1.0  0.77399  0.80711  0.27615  1.0000
  C   C19       1.0  0.27192  0.07436  0.73673  1.0000
  C   C20       1.0  0.72808  0.92564  0.26327  1.0000
  C   C21       1.0  0.27735  0.03463  0.85169  1.0000
  C   C22       1.0  0.72264  0.96537  0.14831  1.0000
  C   C23       1.0  0.39181  0.12313  0.95771  1.0000
  C   C24       1.0  0.60819  0.87687  0.04229  1.0000
  C   C25       1.0  0.89864  0.25271  0.52614  1.0000
  C   C26       1.0  0.10136  0.74729  0.47386  1.0000
  C   C27       1.0  0.73022  0.20963  0.47239  1.0000
  C   C28       1.0  0.26978  0.79037  0.52761  1.0000
  C   C29       1.0  0.61880  0.22455  0.51455  1.0000
  C   C30       1.0  0.38121  0.77545  0.48545  1.0000
  C   C31       1.0  0.61841  0.28497  0.62647  1.0000
  C   C32       1.0  0.38159  0.71503  0.37353  1.0000
  C   C33       1.0  0.76336  0.43011  0.80703  1.0000
  C   C34       1.0  0.23664  0.56989  0.19297  1.0000
  C   C35       1.0  0.67535  0.39070  0.87328  1.0000
  C   C36       1.0  0.32465  0.60930  0.12671  1.0000
  C   C37       1.0  0.69492  0.46060  0.98012  1.0000
  C   C38       1.0  0.30509  0.53940  0.01988  1.0000
  C   C39       1.0  0.80185  0.56959  0.02122  1.0000
  C   C40       1.0  0.19815  0.43041  0.97878  1.0000
  C   C41       1.0  0.89307  0.61347  0.95568  1.0000
  C   C42       1.0  0.10694  0.38653  0.04432  1.0000
  C   C43       1.0  0.00186  0.72640  0.99588  1.0000
  C   C44       1.0  0.99814  0.27360  0.00412  1.0000
  C   C45       1.0  0.08898  0.77023  0.93165  1.0000
  C   C46       1.0  0.91102  0.22977  0.06835  1.0000
  C   C47       1.0  0.07097  0.70194  0.82403  1.0000
  C   C48       1.0  0.92903  0.29806  0.17597  1.0000
  C   C49       1.0  0.96726  0.59105  0.78271  1.0000
  C   C50       1.0  0.03275  0.40895  0.21729  1.0000
  C   C51       1.0  0.87521  0.54365  0.84647  1.0000
  C   C52       1.0  0.12479  0.45635  0.15353  1.0000
  N   N1        1.0  0.74772  0.36096  0.70080  1.0000
  N   N2        1.0  0.25228  0.63904  0.29920  1.0000
  O   O1        1.0  0.97064  0.19525  0.47448  1.0000
  O   O2        1.0  0.02936  0.80475  0.52552  1.0000
  O   O3        1.0  0.96369  0.33653  0.61281  1.0000
  O   O4        1.0  0.03631  0.66347  0.38719  1.0000
  O   O5        1.0  0.49484  0.26392  0.64749  1.0000
  O   O6        1.0  0.50516  0.73608  0.35251  1.0000
