data_image0
_chemical_formula_structural       Dy2H32C30O22
_chemical_formula_sum              "Dy2 H32 C30 O22"
_cell_length_a       8.04888
_cell_length_b       9.33781
_cell_length_c       12.7625
_cell_angle_alpha    104.41
_cell_angle_beta     95.3099
_cell_angle_gamma    109.613

_space_group_name_H-M_alt    "P 1"
_space_group_IT_number       1

loop_
  _space_group_symop_operation_xyz
  'x, y, z'

loop_
  _atom_site_type_symbol
  _atom_site_label
  _atom_site_symmetry_multiplicity
  _atom_site_fract_x
  _atom_site_fract_y
  _atom_site_fract_z
  _atom_site_occupancy
  Dy  Dy1       1.0  0.63485  0.22113  0.51207  1.0000
  Dy  Dy2       1.0  0.36517  0.77888  0.48793  1.0000
  H   H1        1.0  0.96142  0.22107  0.47390  1.0000
  H   H2        1.0  0.03860  0.77891  0.52610  1.0000
  H   H3        1.0  0.04986  0.36005  0.58807  1.0000
  H   H4        1.0  0.95014  0.63993  0.41193  1.0000
  H   H5        1.0  0.86807  0.55332  0.55911  1.0000
  H   H6        1.0  0.13195  0.44669  0.44090  1.0000
  H   H7        1.0  0.68262  0.56654  0.58090  1.0000
  H   H8        1.0  0.31739  0.43347  0.41911  1.0000
  H   H9        1.0  0.92981  0.81007  0.32575  1.0000
  H   H10       1.0  0.07019  0.18991  0.67425  1.0000
  H   H11       1.0  0.74958  0.76184  0.21739  1.0000
  H   H12       1.0  0.25041  0.23815  0.78261  1.0000
  H   H13       1.0  0.09479  0.26260  0.23365  1.0000
  H   H14       1.0  0.90523  0.73738  0.76635  1.0000
  H   H15       1.0  0.03897  0.33527  0.06175  1.0000
  H   H16       1.0  0.96103  0.66473  0.93826  1.0000
  H   H17       1.0  0.59061  0.88722  0.92932  1.0000
  H   H18       1.0  0.40939  0.11278  0.07068  1.0000
  H   H19       1.0  0.65555  0.81054  0.09188  1.0000
  H   H20       1.0  0.34446  0.18945  0.90811  1.0000
  H   H21       1.0  0.53999  0.01075  0.80469  1.0000
  H   H22       1.0  0.46005  0.98928  0.19529  1.0000
  H   H23       1.0  0.71594  0.93999  0.77532  1.0000
  H   H24       1.0  0.28407  0.06004  0.22468  1.0000
  H   H25       1.0  0.35683  0.34304  0.22194  1.0000
  H   H26       1.0  0.64314  0.65695  0.77807  1.0000
  H   H27       1.0  0.51106  0.53424  0.30443  1.0000
  H   H28       1.0  0.48891  0.46575  0.69558  1.0000
  H   H29       1.0  0.74210  0.39148  0.00542  1.0000
  H   H30       1.0  0.25784  0.60852  0.99458  1.0000
  H   H31       1.0  0.34656  0.54025  0.15909  1.0000
  H   H32       1.0  0.65338  0.45975  0.84091  1.0000
  C   C1        1.0  0.72688  0.90077  0.37443  1.0000
  C   C2        1.0  0.27314  0.09923  0.62557  1.0000
  C   C3        1.0  0.83830  0.85794  0.28990  1.0000
  C   C4        1.0  0.16171  0.14205  0.71009  1.0000
  C   C5        1.0  0.88742  0.02892  0.17218  1.0000
  C   C6        1.0  0.11259  0.97106  0.82781  1.0000
  C   C7        1.0  0.98932  0.17910  0.16430  1.0000
  C   C8        1.0  0.01069  0.82090  0.83570  1.0000
  C   C9        1.0  0.95585  0.22088  0.06985  1.0000
  C   C10       1.0  0.04415  0.77913  0.93015  1.0000
  C   C11       1.0  0.81658  0.11423  0.98225  1.0000
  C   C12       1.0  0.18342  0.88576  0.01775  1.0000
  C   C13       1.0  0.70580  0.96947  0.99319  1.0000
  C   C14       1.0  0.29419  0.03053  0.00682  1.0000
  C   C15       1.0  0.74185  0.92647  0.08811  1.0000
  C   C16       1.0  0.25815  0.07352  0.91189  1.0000
  C   C17       1.0  0.68189  0.04751  0.79460  1.0000
  C   C18       1.0  0.31814  0.95252  0.20540  1.0000
  C   C19       1.0  0.69236  0.10655  0.69449  1.0000
  C   C20       1.0  0.30766  0.89346  0.30551  1.0000
  C   C21       1.0  0.54864  0.33965  0.34547  1.0000
  C   C22       1.0  0.45136  0.66036  0.65452  1.0000
  C   C23       1.0  0.49934  0.41241  0.26069  1.0000
  C   C24       1.0  0.50064  0.58759  0.73930  1.0000
  C   C25       1.0  0.55181  0.46012  0.09295  1.0000
  C   C26       1.0  0.44814  0.53990  0.90705  1.0000
  C   C27       1.0  0.63753  0.44080  0.00323  1.0000
  C   C28       1.0  0.36241  0.55921  0.99677  1.0000
  C   C29       1.0  0.41400  0.52046  0.08991  1.0000
  C   C30       1.0  0.58593  0.47953  0.91010  1.0000
  O   O1        1.0  0.77248  0.04712  0.42711  1.0000
  O   O2        1.0  0.22753  0.95287  0.57288  1.0000
  O   O3        1.0  0.59779  0.78707  0.38734  1.0000
  O   O4        1.0  0.40221  0.21293  0.61266  1.0000
  O   O5        1.0  0.94929  0.99278  0.26363  1.0000
  O   O6        1.0  0.05073  0.00721  0.73637  1.0000
  O   O7        1.0  0.79973  0.16426  0.88988  1.0000
  O   O8        1.0  0.20026  0.83574  0.11012  1.0000
  O   O9        1.0  0.78708  0.24584  0.69599  1.0000
  O   O10       1.0  0.21296  0.75417  0.30401  1.0000
  O   O11       1.0  0.59092  0.00513  0.60380  1.0000
  O   O12       1.0  0.40912  0.99489  0.39619  1.0000
  O   O13       1.0  0.44701  0.32617  0.41779  1.0000
  O   O14       1.0  0.55300  0.67382  0.58222  1.0000
  O   O15       1.0  0.68096  0.29564  0.34811  1.0000
  O   O16       1.0  0.31903  0.70436  0.65188  1.0000
  O   O17       1.0  0.60915  0.41473  0.18009  1.0000
  O   O18       1.0  0.39081  0.58527  0.81990  1.0000
  O   O19       1.0  0.98137  0.33331  0.51414  1.0000
  O   O20       1.0  0.01864  0.66667  0.48586  1.0000
  O   O21       1.0  0.75946  0.50213  0.58688  1.0000
  O   O22       1.0  0.24056  0.49788  0.41312  1.0000
