data_image0
_chemical_formula_structural       Ho2H32C30O22
_chemical_formula_sum              "Ho2 H32 C30 O22"
_cell_length_a       8.04924
_cell_length_b       9.30445
_cell_length_c       12.7426
_cell_angle_alpha    104.591
_cell_angle_beta     94.9511
_cell_angle_gamma    110.069

_space_group_name_H-M_alt    "P 1"
_space_group_IT_number       1

loop_
  _space_group_symop_operation_xyz
  'x, y, z'

loop_
  _atom_site_type_symbol
  _atom_site_label
  _atom_site_symmetry_multiplicity
  _atom_site_fract_x
  _atom_site_fract_y
  _atom_site_fract_z
  _atom_site_occupancy
  Ho  Ho1       1.0  0.36519  0.77807  0.98791  1.0000
  Ho  Ho2       1.0  0.63481  0.22193  0.01209  1.0000
  H   H1        1.0  0.49320  0.46837  0.19658  1.0000
  H   H2        1.0  0.50679  0.53162  0.80342  1.0000
  H   H3        1.0  0.64344  0.66300  0.27975  1.0000
  H   H4        1.0  0.35656  0.33700  0.72025  1.0000
  H   H5        1.0  0.25358  0.60294  0.49470  1.0000
  H   H6        1.0  0.74644  0.39707  0.50531  1.0000
  H   H7        1.0  0.65589  0.46404  0.34091  1.0000
  H   H8        1.0  0.34412  0.53597  0.65910  1.0000
  H   H9        1.0  0.53954  0.00953  0.30562  1.0000
  H   H10       1.0  0.46047  0.99047  0.69438  1.0000
  H   H11       1.0  0.71688  0.94125  0.27485  1.0000
  H   H12       1.0  0.28312  0.05873  0.72515  1.0000
  H   H13       1.0  0.59250  0.88514  0.42794  1.0000
  H   H14       1.0  0.40749  0.11489  0.57208  1.0000
  H   H15       1.0  0.65781  0.80772  0.58985  1.0000
  H   H16       1.0  0.34214  0.19229  0.41016  1.0000
  H   H17       1.0  0.03472  0.34203  0.56400  1.0000
  H   H18       1.0  0.96532  0.65796  0.43598  1.0000
  H   H19       1.0  0.09085  0.26860  0.73537  1.0000
  H   H20       1.0  0.90918  0.73139  0.26462  1.0000
  H   H21       1.0  0.74919  0.76143  0.71745  1.0000
  H   H22       1.0  0.25081  0.23857  0.28253  1.0000
  H   H23       1.0  0.93007  0.81123  0.82545  1.0000
  H   H24       1.0  0.06995  0.18877  0.17454  1.0000
  H   H25       1.0  0.31827  0.43263  0.91926  1.0000
  H   H26       1.0  0.68172  0.56736  0.08074  1.0000
  H   H27       1.0  0.13402  0.44660  0.94377  1.0000
  H   H28       1.0  0.86597  0.55339  0.05624  1.0000
  H   H29       1.0  0.95366  0.63510  0.90713  1.0000
  H   H30       1.0  0.04633  0.36489  0.09288  1.0000
  H   H31       1.0  0.03729  0.77635  0.02169  1.0000
  H   H32       1.0  0.96271  0.22364  0.97832  1.0000
  C   C1        1.0  0.45102  0.66075  0.15453  1.0000
  C   C2        1.0  0.54899  0.33925  0.84547  1.0000
  C   C3        1.0  0.50150  0.58985  0.24002  1.0000
  C   C4        1.0  0.49850  0.41017  0.75999  1.0000
  C   C5        1.0  0.44716  0.53918  0.40704  1.0000
  C   C6        1.0  0.55286  0.46082  0.59296  1.0000
  C   C7        1.0  0.36005  0.55612  0.49678  1.0000
  C   C8        1.0  0.63996  0.44388  0.50323  1.0000
  C   C9        1.0  0.58729  0.48189  0.41010  1.0000
  C   C10       1.0  0.41272  0.51811  0.58991  1.0000
  C   C11       1.0  0.69053  0.10774  0.19459  1.0000
  C   C12       1.0  0.30946  0.89224  0.80540  1.0000
  C   C13       1.0  0.68147  0.04830  0.29472  1.0000
  C   C14       1.0  0.31853  0.95171  0.70528  1.0000
  C   C15       1.0  0.81616  0.11643  0.48238  1.0000
  C   C16       1.0  0.18383  0.88358  0.51762  1.0000
  C   C17       1.0  0.70697  0.96900  0.49228  1.0000
  C   C18       1.0  0.29303  0.03101  0.50771  1.0000
  C   C19       1.0  0.74300  0.92565  0.58698  1.0000
  C   C20       1.0  0.25700  0.07436  0.41302  1.0000
  C   C21       1.0  0.95320  0.22545  0.57102  1.0000
  C   C22       1.0  0.04681  0.77456  0.42896  1.0000
  C   C23       1.0  0.98669  0.18344  0.66531  1.0000
  C   C24       1.0  0.01332  0.81656  0.33467  1.0000
  C   C25       1.0  0.72712  0.90148  0.87502  1.0000
  C   C26       1.0  0.27287  0.09851  0.12497  1.0000
  C   C27       1.0  0.83846  0.85871  0.78982  1.0000
  C   C28       1.0  0.16152  0.14129  0.21017  1.0000
  C   C29       1.0  0.88693  0.03058  0.67199  1.0000
  C   C30       1.0  0.11308  0.96942  0.32800  1.0000
  O   O1        1.0  0.31783  0.70327  0.15147  1.0000
  O   O2        1.0  0.68217  0.29673  0.84853  1.0000
  O   O3        1.0  0.55291  0.67458  0.08194  1.0000
  O   O4        1.0  0.44709  0.32541  0.91806  1.0000
  O   O5        1.0  0.38939  0.58426  0.31993  1.0000
  O   O6        1.0  0.61062  0.41574  0.68008  1.0000
  O   O7        1.0  0.58861  0.00519  0.10389  1.0000
  O   O8        1.0  0.41138  0.99479  0.89611  1.0000
  O   O9        1.0  0.78501  0.24832  0.19603  1.0000
  O   O10       1.0  0.21498  0.75167  0.80397  1.0000
  O   O11       1.0  0.79952  0.16668  0.39007  1.0000
  O   O12       1.0  0.20048  0.83332  0.60993  1.0000
  O   O13       1.0  0.24121  0.49675  0.91356  1.0000
  O   O14       1.0  0.75879  0.50324  0.08644  1.0000
  O   O15       1.0  0.01791  0.66323  0.98241  1.0000
  O   O16       1.0  0.98207  0.33676  0.01759  1.0000
  O   O17       1.0  0.77409  0.04869  0.92881  1.0000
  O   O18       1.0  0.22591  0.95131  0.07118  1.0000
  O   O19       1.0  0.59638  0.78670  0.88717  1.0000
  O   O20       1.0  0.40363  0.21329  0.11284  1.0000
  O   O21       1.0  0.94961  0.99461  0.76315  1.0000
  O   O22       1.0  0.05037  0.00539  0.23686  1.0000
