data_image0
_chemical_formula_structural       K4H20C28O16
_chemical_formula_sum              "K4 H20 C28 O16"
_cell_length_a       3.84963
_cell_length_b       13.2176
_cell_length_c       14.9991
_cell_angle_alpha    90.0001
_cell_angle_beta     89.9998
_cell_angle_gamma    97.9233

_space_group_name_H-M_alt    "P 1"
_space_group_IT_number       1

loop_
  _space_group_symop_operation_xyz
  'x, y, z'

loop_
  _atom_site_type_symbol
  _atom_site_label
  _atom_site_symmetry_multiplicity
  _atom_site_fract_x
  _atom_site_fract_y
  _atom_site_fract_z
  _atom_site_occupancy
  K   K1        1.0  0.95621  0.10515  0.14575  1.0000
  K   K2        1.0  0.54377  0.39485  0.64575  1.0000
  K   K3        1.0  0.04378  0.89485  0.85425  1.0000
  K   K4        1.0  0.45621  0.60515  0.35425  1.0000
  H   H1        1.0  0.51100  0.90206  0.02219  1.0000
  H   H2        1.0  0.98900  0.59794  0.52219  1.0000
  H   H3        1.0  0.48900  0.09794  0.97781  1.0000
  H   H4        1.0  0.01100  0.40206  0.47781  1.0000
  H   H5        1.0  0.50069  0.64165  0.94939  1.0000
  H   H6        1.0  0.99932  0.85835  0.44938  1.0000
  H   H7        1.0  0.49930  0.35836  0.05061  1.0000
  H   H8        1.0  0.00068  0.14164  0.55061  1.0000
  H   H9        1.0  0.24699  0.50109  0.05108  1.0000
  H   H10       1.0  0.25302  0.99891  0.55108  1.0000
  H   H11       1.0  0.75300  0.49891  0.94892  1.0000
  H   H12       1.0  0.74699  0.00109  0.44891  1.0000
  H   H13       1.0  0.98739  0.53800  0.19639  1.0000
  H   H14       1.0  0.51262  0.96200  0.69639  1.0000
  H   H15       1.0  0.01261  0.46200  0.80361  1.0000
  H   H16       1.0  0.48739  0.03800  0.30361  1.0000
  H   H17       1.0  0.01141  0.80401  0.26201  1.0000
  H   H18       1.0  0.48859  0.69599  0.76201  1.0000
  H   H19       1.0  0.98858  0.19599  0.73799  1.0000
  H   H20       1.0  0.51141  0.30401  0.23799  1.0000
  C   C1        1.0  0.25849  0.88991  0.15260  1.0000
  C   C2        1.0  0.24150  0.61009  0.65260  1.0000
  C   C3        1.0  0.74150  0.11009  0.84741  1.0000
  C   C4        1.0  0.75850  0.38991  0.34741  1.0000
  C   C5        1.0  0.25998  0.78313  0.12467  1.0000
  C   C6        1.0  0.24002  0.71687  0.62467  1.0000
  C   C7        1.0  0.74002  0.21687  0.87533  1.0000
  C   C8        1.0  0.75998  0.28313  0.37533  1.0000
  C   C9        1.0  0.39915  0.75948  0.04094  1.0000
  C   C10       1.0  0.10086  0.74052  0.54094  1.0000
  C   C11       1.0  0.60085  0.24052  0.95907  1.0000
  C   C12       1.0  0.89914  0.25948  0.45906  1.0000
  C   C13       1.0  0.39310  0.65808  0.01415  1.0000
  C   C14       1.0  0.10692  0.84192  0.51415  1.0000
  C   C15       1.0  0.60691  0.34192  0.98585  1.0000
  C   C16       1.0  0.89308  0.15808  0.48585  1.0000
  C   C17       1.0  0.25176  0.58027  0.07167  1.0000
  C   C18       1.0  0.24825  0.91973  0.57167  1.0000
  C   C19       1.0  0.74824  0.41973  0.92833  1.0000
  C   C20       1.0  0.75176  0.08027  0.42833  1.0000
  C   C21       1.0  0.11019  0.60033  0.15440  1.0000
  C   C22       1.0  0.38982  0.89967  0.65439  1.0000
  C   C23       1.0  0.88981  0.39967  0.84560  1.0000
  C   C24       1.0  0.61018  0.10033  0.34560  1.0000
  C   C25       1.0  0.11444  0.70192  0.18069  1.0000
  C   C26       1.0  0.38557  0.79808  0.68069  1.0000
  C   C27       1.0  0.88556  0.29808  0.81931  1.0000
  C   C28       1.0  0.61444  0.20192  0.31931  1.0000
  O   O1        1.0  0.11541  0.90880  0.22683  1.0000
  O   O2        1.0  0.38457  0.59121  0.72683  1.0000
  O   O3        1.0  0.88457  0.09120  0.77318  1.0000
  O   O4        1.0  0.61542  0.40880  0.27318  1.0000
  O   O5        1.0  0.39734  0.96223  0.10040  1.0000
  O   O6        1.0  0.10265  0.53777  0.60040  1.0000
  O   O7        1.0  0.60264  0.03778  0.89960  1.0000
  O   O8        1.0  0.89736  0.46222  0.39960  1.0000
  O   O9        1.0  0.53597  0.83666  0.98581  1.0000
  O   O10       1.0  0.96404  0.66334  0.48581  1.0000
  O   O11       1.0  0.46403  0.16334  0.01419  1.0000
  O   O12       1.0  0.03596  0.33665  0.51419  1.0000
  O   O13       1.0  0.98343  0.72386  0.26183  1.0000
  O   O14       1.0  0.51658  0.77614  0.76183  1.0000
  O   O15       1.0  0.01657  0.27613  0.73818  1.0000
  O   O16       1.0  0.48343  0.22386  0.23817  1.0000
