data_image0
_chemical_formula_structural       Cd4H32C36N8Cl8
_chemical_formula_sum              "Cd4 H32 C36 N8 Cl8"
_cell_length_a       7.35227
_cell_length_b       12.3764
_cell_length_c       12.3763
_cell_angle_alpha    80.744
_cell_angle_beta     81.3866
_cell_angle_gamma    81.3888

_space_group_name_H-M_alt    "P 1"
_space_group_IT_number       1

loop_
  _space_group_symop_operation_xyz
  'x, y, z'

loop_
  _atom_site_type_symbol
  _atom_site_label
  _atom_site_symmetry_multiplicity
  _atom_site_fract_x
  _atom_site_fract_y
  _atom_site_fract_z
  _atom_site_occupancy
  Cd  Cd1       1.0  0.45137  0.73349  0.34607  1.0000
  Cd  Cd2       1.0  0.04864  0.65393  0.26652  1.0000
  Cd  Cd3       1.0  0.54863  0.26651  0.65394  1.0000
  Cd  Cd4       1.0  0.95136  0.34605  0.73348  1.0000
  H   H1        1.0  0.57723  0.61472  0.55600  1.0000
  H   H2        1.0  0.92276  0.44400  0.38528  1.0000
  H   H3        1.0  0.42275  0.38530  0.44402  1.0000
  H   H4        1.0  0.07726  0.55597  0.61471  1.0000
  H   H5        1.0  0.71811  0.70433  0.49382  1.0000
  H   H6        1.0  0.78190  0.50619  0.29567  1.0000
  H   H7        1.0  0.28187  0.29569  0.50621  1.0000
  H   H8        1.0  0.21813  0.49378  0.70432  1.0000
  H   H9        1.0  0.60008  0.67980  0.73337  1.0000
  H   H10       1.0  0.89995  0.26663  0.32019  1.0000
  H   H11       1.0  0.39987  0.32023  0.26665  1.0000
  H   H12       1.0  0.10009  0.73334  0.67978  1.0000
  H   H13       1.0  0.45240  0.81609  0.85826  1.0000
  H   H14       1.0  0.04763  0.14176  0.18389  1.0000
  H   H15       1.0  0.54752  0.18394  0.14175  1.0000
  H   H16       1.0  0.95242  0.85823  0.81608  1.0000
  H   H17       1.0  0.26781  0.99082  0.78372  1.0000
  H   H18       1.0  0.23220  0.21632  0.00916  1.0000
  H   H19       1.0  0.73208  0.00921  0.21628  1.0000
  H   H20       1.0  0.76787  0.78368  0.99081  1.0000
  H   H21       1.0  0.13927  0.11017  0.62190  1.0000
  H   H22       1.0  0.36075  0.37815  0.88981  1.0000
  H   H23       1.0  0.86063  0.88984  0.37809  1.0000
  H   H24       1.0  0.63933  0.62186  0.11018  1.0000
  H   H25       1.0  0.10826  0.13809  0.42129  1.0000
  H   H26       1.0  0.39175  0.57876  0.86191  1.0000
  H   H27       1.0  0.89169  0.86191  0.57869  1.0000
  H   H28       1.0  0.60831  0.42125  0.13810  1.0000
  H   H29       1.0  0.24234  0.98423  0.30934  1.0000
  H   H30       1.0  0.25767  0.69069  0.01578  1.0000
  H   H31       1.0  0.75765  0.01576  0.69065  1.0000
  H   H32       1.0  0.74237  0.30930  0.98424  1.0000
  C   C1        1.0  0.49248  0.77114  0.59009  1.0000
  C   C2        1.0  0.00753  0.40993  0.22886  1.0000
  C   C3        1.0  0.50747  0.22888  0.40993  1.0000
  C   C4        1.0  0.99252  0.59005  0.77113  1.0000
  C   C5        1.0  0.51381  0.75397  0.70105  1.0000
  C   C6        1.0  0.98622  0.29896  0.24602  1.0000
  C   C7        1.0  0.48613  0.24606  0.29896  1.0000
  C   C8        1.0  0.01383  0.70102  0.75395  1.0000
  C   C9        1.0  0.43041  0.83174  0.77160  1.0000
  C   C10       1.0  0.06963  0.22842  0.16825  1.0000
  C   C11       1.0  0.56952  0.16829  0.22841  1.0000
  C   C12       1.0  0.93043  0.77157  0.83172  1.0000
  C   C13       1.0  0.32706  0.92815  0.73119  1.0000
  C   C14       1.0  0.17296  0.26885  0.07183  1.0000
  C   C15       1.0  0.67284  0.07187  0.26882  1.0000
  C   C16       1.0  0.82712  0.73114  0.92815  1.0000
  C   C17       1.0  0.30124  0.94879  0.61808  1.0000
  C   C18       1.0  0.19878  0.38196  0.05120  1.0000
  C   C19       1.0  0.69869  0.05122  0.38193  1.0000
  C   C20       1.0  0.80129  0.61803  0.94880  1.0000
  C   C21       1.0  0.20136  0.04729  0.57021  1.0000
  C   C22       1.0  0.29866  0.42983  0.95269  1.0000
  C   C23       1.0  0.79856  0.95271  0.42978  1.0000
  C   C24       1.0  0.70141  0.57017  0.04730  1.0000
  C   C25       1.0  0.18396  0.06272  0.45930  1.0000
  C   C26       1.0  0.31604  0.54075  0.93728  1.0000
  C   C27       1.0  0.81597  0.93728  0.54070  1.0000
  C   C28       1.0  0.68402  0.45925  0.06273  1.0000
  C   C29       1.0  0.26054  0.97804  0.39620  1.0000
  C   C30       1.0  0.23947  0.60384  0.02197  1.0000
  C   C31       1.0  0.73943  0.02196  0.60380  1.0000
  C   C32       1.0  0.76058  0.39616  0.97804  1.0000
  C   C33       1.0  0.38176  0.86887  0.54697  1.0000
  C   C34       1.0  0.11825  0.45305  0.13112  1.0000
  C   C35       1.0  0.61818  0.13114  0.45304  1.0000
  C   C36       1.0  0.88181  0.54693  0.86887  1.0000
  N   N1        1.0  0.35497  0.88499  0.43852  1.0000
  N   N2        1.0  0.14503  0.56151  0.11501  1.0000
  N   N3        1.0  0.64498  0.11502  0.56149  1.0000
  N   N4        1.0  0.85502  0.43848  0.88499  1.0000
  N   N5        1.0  0.57963  0.69466  0.51632  1.0000
  N   N6        1.0  0.92038  0.48369  0.30534  1.0000
  N   N7        1.0  0.42034  0.30536  0.48370  1.0000
  N   N8        1.0  0.07965  0.51628  0.69465  1.0000
  Cl  Cl1       1.0  0.45244  0.53428  0.31653  1.0000
  Cl  Cl2       1.0  0.04754  0.68348  0.46574  1.0000
  Cl  Cl3       1.0  0.54759  0.46572  0.68348  1.0000
  Cl  Cl4       1.0  0.95243  0.31651  0.53427  1.0000
  Cl  Cl5       1.0  0.75001  0.78128  0.21872  1.0000
  Cl  Cl6       1.0  0.25000  0.21871  0.78129  1.0000
  Cl  Cl7       1.0  0.25000  0.81307  0.18695  1.0000
  Cl  Cl8       1.0  0.75000  0.18692  0.81306  1.0000
