data_image0
_chemical_formula_structural       Li2H32C26N2O10
_chemical_formula_sum              "Li2 H32 C26 N2 O10"
_cell_length_a       5.36138
_cell_length_b       10.3878
_cell_length_c       11.6078
_cell_angle_alpha    90.0011
_cell_angle_beta     99.8809
_cell_angle_gamma    89.9997

_space_group_name_H-M_alt    "P 1"
_space_group_IT_number       1

loop_
  _space_group_symop_operation_xyz
  'x, y, z'

loop_
  _atom_site_type_symbol
  _atom_site_label
  _atom_site_symmetry_multiplicity
  _atom_site_fract_x
  _atom_site_fract_y
  _atom_site_fract_z
  _atom_site_occupancy
  Li  Li1       1.0  0.01585  0.28646  0.64138  1.0000
  Li  Li2       1.0  0.98414  0.78645  0.35863  1.0000
  H   H1        1.0  0.41622  0.88658  0.97223  1.0000
  H   H2        1.0  0.58382  0.38656  0.02777  1.0000
  H   H3        1.0  0.80298  0.92235  0.11691  1.0000
  H   H4        1.0  0.19706  0.42232  0.88308  1.0000
  H   H5        1.0  0.09613  0.10400  0.09057  1.0000
  H   H6        1.0  0.90390  0.60397  0.90941  1.0000
  H   H7        1.0  0.97864  0.25577  0.92342  1.0000
  H   H8        1.0  0.02138  0.75574  0.07657  1.0000
  H   H9        1.0  0.20721  0.83860  0.78472  1.0000
  H   H10       1.0  0.79281  0.33859  0.21529  1.0000
  H   H11       1.0  0.95926  0.93947  0.70971  1.0000
  H   H12       1.0  0.04075  0.43946  0.29031  1.0000
  H   H13       1.0  0.01985  0.93380  0.86664  1.0000
  H   H14       1.0  0.98017  0.43379  0.13338  1.0000
  H   H15       1.0  0.49501  0.09563  0.56764  1.0000
  H   H16       1.0  0.50496  0.59564  0.43235  1.0000
  H   H17       1.0  0.67586  0.98766  0.43503  1.0000
  H   H18       1.0  0.32412  0.48767  0.56497  1.0000
  H   H19       1.0  0.38459  0.93450  0.37065  1.0000
  H   H20       1.0  0.61538  0.43450  0.62935  1.0000
  H   H21       1.0  0.45717  0.03325  0.21347  1.0000
  H   H22       1.0  0.54280  0.53324  0.78653  1.0000
  H   H23       1.0  0.71205  0.12215  0.29419  1.0000
  H   H24       1.0  0.28793  0.62217  0.70581  1.0000
  H   H25       1.0  0.14628  0.18725  0.26489  1.0000
  H   H26       1.0  0.85370  0.68724  0.73512  1.0000
  H   H27       1.0  0.39520  0.29254  0.24482  1.0000
  H   H28       1.0  0.60481  0.79254  0.75519  1.0000
  H   H29       1.0  0.24072  0.30031  0.45505  1.0000
  H   H30       1.0  0.75927  0.80030  0.54496  1.0000
  H   H31       1.0  0.57392  0.28073  0.45797  1.0000
  H   H32       1.0  0.42606  0.78075  0.54204  1.0000
  C   C1        1.0  0.55781  0.26183  0.76353  1.0000
  C   C2        1.0  0.44219  0.76183  0.23647  1.0000
  C   C3        1.0  0.62979  0.16106  0.85624  1.0000
  C   C4        1.0  0.37022  0.66104  0.14376  1.0000
  C   C5        1.0  0.47309  0.05369  0.86758  1.0000
  C   C6        1.0  0.52695  0.55368  0.13241  1.0000
  C   C7        1.0  0.53718  0.96856  0.96189  1.0000
  C   C8        1.0  0.46286  0.46855  0.03810  1.0000
  C   C9        1.0  0.75842  0.98850  0.04321  1.0000
  C   C10       1.0  0.24162  0.48848  0.95677  1.0000
  C   C11       1.0  0.91916  0.09117  0.02995  1.0000
  C   C12       1.0  0.08086  0.59113  0.97004  1.0000
  C   C13       1.0  0.85435  0.17603  0.93639  1.0000
  C   C14       1.0  0.14566  0.67599  0.06361  1.0000
  C   C15       1.0  0.10586  0.93046  0.78732  1.0000
  C   C16       1.0  0.89417  0.43044  0.21270  1.0000
  C   C17       1.0  0.10556  0.06076  0.49103  1.0000
  C   C18       1.0  0.89444  0.56077  0.50896  1.0000
  C   C19       1.0  0.37756  0.10263  0.48063  1.0000
  C   C20       1.0  0.62240  0.60264  0.51937  1.0000
  C   C21       1.0  0.51314  0.09488  0.28985  1.0000
  C   C22       1.0  0.48685  0.59489  0.71015  1.0000
  C   C23       1.0  0.34578  0.21164  0.29731  1.0000
  C   C24       1.0  0.65422  0.71165  0.70269  1.0000
  C   C25       1.0  0.38613  0.23822  0.42875  1.0000
  C   C26       1.0  0.61384  0.73823  0.57126  1.0000
  N   N1        1.0  0.49370  0.01820  0.39824  1.0000
  N   N2        1.0  0.50628  0.51820  0.60175  1.0000
  O   O1        1.0  0.33061  0.29851  0.73973  1.0000
  O   O2        1.0  0.66937  0.79851  0.26026  1.0000
  O   O3        1.0  0.73577  0.31050  0.71677  1.0000
  O   O4        1.0  0.26422  0.81048  0.28324  1.0000
  O   O5        1.0  0.26974  0.03750  0.78112  1.0000
  O   O6        1.0  0.73029  0.53748  0.21888  1.0000
  O   O7        1.0  0.97718  0.14037  0.53830  1.0000
  O   O8        1.0  0.02281  0.64036  0.46170  1.0000
  O   O9        1.0  0.02568  0.95099  0.45225  1.0000
  O   O10       1.0  0.97428  0.45098  0.54774  1.0000
