data_image0
_chemical_formula_structural       Li4H56C48N4O16
_chemical_formula_sum              "Li4 H56 C48 N4 O16"
_cell_length_a       10.0631
_cell_length_b       10.5363
_cell_length_c       11.7023
_cell_angle_alpha    90
_cell_angle_beta     90
_cell_angle_gamma    90

_space_group_name_H-M_alt    "P 1"
_space_group_IT_number       1

loop_
  _space_group_symop_operation_xyz
  'x, y, z'

loop_
  _atom_site_type_symbol
  _atom_site_label
  _atom_site_symmetry_multiplicity
  _atom_site_fract_x
  _atom_site_fract_y
  _atom_site_fract_z
  _atom_site_occupancy
  Li  Li1       1.0  0.50000  0.50000  0.61664  1.0000
  Li  Li2       1.0  0.00000  0.00000  0.38336  1.0000
  Li  Li3       1.0  0.50000  0.00000  0.67345  1.0000
  Li  Li4       1.0  0.00000  0.50000  0.32655  1.0000
  H   H1        1.0  0.19439  0.24357  0.44645  1.0000
  H   H2        1.0  0.80561  0.75643  0.44645  1.0000
  H   H3        1.0  0.69439  0.25643  0.55355  1.0000
  H   H4        1.0  0.30561  0.74357  0.55355  1.0000
  H   H5        1.0  0.35341  0.29538  0.63575  1.0000
  H   H6        1.0  0.64659  0.70462  0.63575  1.0000
  H   H7        1.0  0.85341  0.20462  0.36425  1.0000
  H   H8        1.0  0.14659  0.79538  0.36425  1.0000
  H   H9        1.0  0.29344  0.15079  0.59585  1.0000
  H   H10       1.0  0.70656  0.84921  0.59585  1.0000
  H   H11       1.0  0.79344  0.34921  0.40415  1.0000
  H   H12       1.0  0.20656  0.65079  0.40415  1.0000
  H   H13       1.0  0.24099  0.27028  0.79691  1.0000
  H   H14       1.0  0.75901  0.72972  0.79691  1.0000
  H   H15       1.0  0.74099  0.22972  0.20309  1.0000
  H   H16       1.0  0.25901  0.77028  0.20309  1.0000
  H   H17       1.0  0.15388  0.13871  0.73789  1.0000
  H   H18       1.0  0.84612  0.86129  0.73789  1.0000
  H   H19       1.0  0.65388  0.36129  0.26211  1.0000
  H   H20       1.0  0.34612  0.63871  0.26211  1.0000
  H   H21       1.0  0.97289  0.29152  0.74819  1.0000
  H   H22       1.0  0.02711  0.70848  0.74819  1.0000
  H   H23       1.0  0.47289  0.20848  0.25181  1.0000
  H   H24       1.0  0.52711  0.79152  0.25181  1.0000
  H   H25       1.0  0.08022  0.42017  0.71619  1.0000
  H   H26       1.0  0.91978  0.57983  0.71619  1.0000
  H   H27       1.0  0.58022  0.07983  0.28380  1.0000
  H   H28       1.0  0.41978  0.92017  0.28381  1.0000
  H   H29       1.0  0.97871  0.37133  0.52839  1.0000
  H   H30       1.0  0.02129  0.62867  0.52839  1.0000
  H   H31       1.0  0.47871  0.12867  0.47161  1.0000
  H   H32       1.0  0.52129  0.87133  0.47161  1.0000
  H   H33       1.0  0.99811  0.20518  0.55254  1.0000
  H   H34       1.0  0.00189  0.79482  0.55254  1.0000
  H   H35       1.0  0.49811  0.29482  0.44746  1.0000
  H   H36       1.0  0.50189  0.70518  0.44746  1.0000
  H   H37       1.0  0.29170  0.90532  0.86914  1.0000
  H   H38       1.0  0.70830  0.09468  0.86914  1.0000
  H   H39       1.0  0.79170  0.59468  0.13086  1.0000
  H   H40       1.0  0.20830  0.40532  0.13086  1.0000
  H   H41       1.0  0.09790  0.85737  0.99675  1.0000
  H   H42       1.0  0.90210  0.14263  0.99675  1.0000
  H   H43       1.0  0.59790  0.64263  0.00325  1.0000
  H   H44       1.0  0.40210  0.35737  0.00325  1.0000
  H   H45       1.0  0.03365  0.63263  0.03244  1.0000
  H   H46       1.0  0.96635  0.36737  0.03244  1.0000
  H   H47       1.0  0.53365  0.86737  0.96756  1.0000
  H   H48       1.0  0.46635  0.13263  0.96755  1.0000
  H   H49       1.0  0.15233  0.45829  0.93176  1.0000
  H   H50       1.0  0.84767  0.54171  0.93175  1.0000
  H   H51       1.0  0.65233  0.04171  0.06825  1.0000
  H   H52       1.0  0.34767  0.95829  0.06824  1.0000
  H   H53       1.0  0.34600  0.50750  0.80572  1.0000
  H   H54       1.0  0.65400  0.49250  0.80572  1.0000
  H   H55       1.0  0.84601  0.99250  0.19428  1.0000
  H   H56       1.0  0.15400  0.00750  0.19428  1.0000
  C   C1        1.0  0.23244  0.43765  0.49194  1.0000
  C   C2        1.0  0.76756  0.56235  0.49194  1.0000
  C   C3        1.0  0.73244  0.06235  0.50806  1.0000
  C   C4        1.0  0.26756  0.93765  0.50806  1.0000
  C   C5        1.0  0.18375  0.30297  0.52312  1.0000
  C   C6        1.0  0.81625  0.69703  0.52312  1.0000
  C   C7        1.0  0.68375  0.19703  0.47688  1.0000
  C   C8        1.0  0.31625  0.80297  0.47688  1.0000
  C   C9        1.0  0.18099  0.23849  0.72423  1.0000
  C   C10       1.0  0.81901  0.76151  0.72423  1.0000
  C   C11       1.0  0.68099  0.26151  0.27577  1.0000
  C   C12       1.0  0.31901  0.73849  0.27577  1.0000
  C   C13       1.0  0.05954  0.31978  0.69751  1.0000
  C   C14       1.0  0.94046  0.68022  0.69751  1.0000
  C   C15       1.0  0.55954  0.18022  0.30249  1.0000
  C   C16       1.0  0.44046  0.81978  0.30249  1.0000
  C   C17       1.0  0.04103  0.29933  0.56916  1.0000
  C   C18       1.0  0.95897  0.70067  0.56915  1.0000
  C   C19       1.0  0.54103  0.20067  0.43085  1.0000
  C   C20       1.0  0.45897  0.79933  0.43085  1.0000
  C   C21       1.0  0.45148  0.74080  0.76061  1.0000
  C   C22       1.0  0.54852  0.25920  0.76061  1.0000
  C   C23       1.0  0.95148  0.75920  0.23939  1.0000
  C   C24       1.0  0.04852  0.24080  0.23939  1.0000
  C   C25       1.0  0.33071  0.70955  0.83105  1.0000
  C   C26       1.0  0.66929  0.29045  0.83104  1.0000
  C   C27       1.0  0.83071  0.79045  0.16895  1.0000
  C   C28       1.0  0.16929  0.20955  0.16895  1.0000
  C   C29       1.0  0.25955  0.80785  0.88385  1.0000
  C   C30       1.0  0.74045  0.19215  0.88385  1.0000
  C   C31       1.0  0.75955  0.69215  0.11615  1.0000
  C   C32       1.0  0.24045  0.30785  0.11615  1.0000
  C   C33       1.0  0.15194  0.78050  0.95489  1.0000
  C   C34       1.0  0.84806  0.21950  0.95489  1.0000
  C   C35       1.0  0.65194  0.71950  0.04511  1.0000
  C   C36       1.0  0.34806  0.28050  0.04511  1.0000
  C   C37       1.0  0.11432  0.65433  0.97342  1.0000
  C   C38       1.0  0.88568  0.34567  0.97342  1.0000
  C   C39       1.0  0.61431  0.84567  0.02658  1.0000
  C   C40       1.0  0.38568  0.15433  0.02658  1.0000
  C   C41       1.0  0.18273  0.55638  0.91830  1.0000
  C   C42       1.0  0.81727  0.44362  0.91830  1.0000
  C   C43       1.0  0.68273  0.94362  0.08170  1.0000
  C   C44       1.0  0.31727  0.05638  0.08170  1.0000
  C   C45       1.0  0.29050  0.58343  0.84745  1.0000
  C   C46       1.0  0.70950  0.41657  0.84745  1.0000
  C   C47       1.0  0.79050  0.91657  0.15255  1.0000
  C   C48       1.0  0.20950  0.08343  0.15255  1.0000
  N   N1        1.0  0.26480  0.24455  0.61741  1.0000
  N   N2        1.0  0.73520  0.75545  0.61741  1.0000
  N   N3        1.0  0.76480  0.25545  0.38259  1.0000
  N   N4        1.0  0.23520  0.74455  0.38259  1.0000
  O   O1        1.0  0.34080  0.47768  0.53105  1.0000
  O   O2        1.0  0.65920  0.52232  0.53105  1.0000
  O   O3        1.0  0.84080  0.02232  0.46895  1.0000
  O   O4        1.0  0.15920  0.97768  0.46895  1.0000
  O   O5        1.0  0.15692  0.49985  0.42470  1.0000
  O   O6        1.0  0.84308  0.50015  0.42470  1.0000
  O   O7        1.0  0.65692  0.00015  0.57530  1.0000
  O   O8        1.0  0.34308  0.99985  0.57530  1.0000
  O   O9        1.0  0.50556  0.65123  0.70319  1.0000
  O   O10       1.0  0.49443  0.34877  0.70319  1.0000
  O   O11       1.0  0.00557  0.84877  0.29681  1.0000
  O   O12       1.0  0.99443  0.15123  0.29681  1.0000
  O   O13       1.0  0.49517  0.85303  0.76309  1.0000
  O   O14       1.0  0.50483  0.14697  0.76309  1.0000
  O   O15       1.0  0.99517  0.64697  0.23691  1.0000
  O   O16       1.0  0.00483  0.35303  0.23691  1.0000
