data_image0
_chemical_formula_structural       Ni2H8C8O12
_chemical_formula_sum              "Ni2 H8 C8 O12"
_cell_length_a       4.91207
_cell_length_b       7.77576
_cell_length_c       7.77574
_cell_angle_alpha    72.1388
_cell_angle_beta     71.5898
_cell_angle_gamma    71.5893

_space_group_name_H-M_alt    "P 1"
_space_group_IT_number       1

loop_
  _space_group_symop_operation_xyz
  'x, y, z'

loop_
  _atom_site_type_symbol
  _atom_site_label
  _atom_site_symmetry_multiplicity
  _atom_site_fract_x
  _atom_site_fract_y
  _atom_site_fract_z
  _atom_site_occupancy
  Ni  Ni1       1.0  0.71340  0.28748  0.28773  1.0000
  Ni  Ni2       1.0  0.28660  0.71228  0.71252  1.0000
  H   H1        1.0  0.38751  0.06546  0.78843  1.0000
  H   H2        1.0  0.24277  0.93611  0.21161  1.0000
  H   H3        1.0  0.61249  0.21158  0.93454  1.0000
  H   H4        1.0  0.75723  0.78839  0.06389  1.0000
  H   H5        1.0  0.24527  0.22077  0.53197  1.0000
  H   H6        1.0  0.99839  0.78048  0.46730  1.0000
  H   H7        1.0  0.75473  0.46804  0.77923  1.0000
  H   H8        1.0  0.00161  0.53270  0.21952  1.0000
  C   C1        1.0  0.83009  0.07270  0.63770  1.0000
  C   C2        1.0  0.54289  0.92637  0.36277  1.0000
  C   C3        1.0  0.16991  0.36232  0.92728  1.0000
  C   C4        1.0  0.45710  0.63725  0.07362  1.0000
  C   C5        1.0  0.50795  0.17237  0.70279  1.0000
  C   C6        1.0  0.38404  0.82820  0.29689  1.0000
  C   C7        1.0  0.49205  0.29721  0.82762  1.0000
  C   C8        1.0  0.61596  0.70311  0.17180  1.0000
  O   O1        1.0  0.97717  0.13683  0.47395  1.0000
  O   O2        1.0  0.58536  0.86358  0.52770  1.0000
  O   O3        1.0  0.02283  0.52605  0.86317  1.0000
  O   O4        1.0  0.41464  0.47229  0.13643  1.0000
  O   O5        1.0  0.93578  0.93710  0.75577  1.0000
  O   O6        1.0  0.63690  0.05990  0.24423  1.0000
  O   O7        1.0  0.06421  0.24423  0.06291  1.0000
  O   O8        1.0  0.36310  0.75576  0.94012  1.0000
  O   O9        1.0  0.38366  0.28142  0.54669  1.0000
  O   O10       1.0  0.21170  0.71929  0.45255  1.0000
  O   O11       1.0  0.61635  0.45331  0.71857  1.0000
  O   O12       1.0  0.78830  0.54745  0.28071  1.0000
