data_image0
_chemical_formula_structural       Ca4P4H28C24O16
_chemical_formula_sum              "Ca4 P4 H28 C24 O16"
_cell_length_a       5.8752
_cell_length_b       10.3122
_cell_length_c       14.9037
_cell_angle_alpha    89.9989
_cell_angle_beta     95.8322
_cell_angle_gamma    89.9995

_space_group_name_H-M_alt    "P 1"
_space_group_IT_number       1

loop_
  _space_group_symop_operation_xyz
  'x, y, z'

loop_
  _atom_site_type_symbol
  _atom_site_label
  _atom_site_symmetry_multiplicity
  _atom_site_fract_x
  _atom_site_fract_y
  _atom_site_fract_z
  _atom_site_occupancy
  Ca  Ca1       1.0  0.12330  0.35432  0.46057  1.0000
  Ca  Ca2       1.0  0.37674  0.85431  0.53944  1.0000
  Ca  Ca3       1.0  0.87674  0.64568  0.53943  1.0000
  Ca  Ca4       1.0  0.62330  0.14567  0.46057  1.0000
  P   P1        1.0  0.58173  0.45767  0.36433  1.0000
  P   P2        1.0  0.91830  0.95766  0.63568  1.0000
  P   P3        1.0  0.41829  0.54232  0.63568  1.0000
  P   P4        1.0  0.08174  0.04233  0.36432  1.0000
  H   H1        1.0  0.38695  0.32578  0.19961  1.0000
  H   H2        1.0  0.11304  0.82576  0.80041  1.0000
  H   H3        1.0  0.61305  0.67423  0.80039  1.0000
  H   H4        1.0  0.88695  0.17424  0.19962  1.0000
  H   H5        1.0  0.99553  0.54453  0.28842  1.0000
  H   H6        1.0  0.50448  0.04452  0.71156  1.0000
  H   H7        1.0  0.00447  0.45546  0.71158  1.0000
  H   H8        1.0  0.49556  0.95548  0.28842  1.0000
  H   H9        1.0  0.50904  0.31741  0.04507  1.0000
  H   H10       1.0  0.99087  0.81739  0.95494  1.0000
  H   H11       1.0  0.49093  0.68261  0.95493  1.0000
  H   H12       1.0  0.00903  0.18263  0.04507  1.0000
  H   H13       1.0  0.12188  0.52987  0.13625  1.0000
  H   H14       1.0  0.37805  0.02987  0.86372  1.0000
  H   H15       1.0  0.87810  0.47014  0.86374  1.0000
  H   H16       1.0  0.62190  0.97016  0.13625  1.0000
  H   H17       1.0  0.87418  0.41938  0.01243  1.0000
  H   H18       1.0  0.62572  0.91936  0.98756  1.0000
  H   H19       1.0  0.12578  0.58064  0.98756  1.0000
  H   H20       1.0  0.37418  0.08066  0.01244  1.0000
  H   H21       1.0  0.93943  0.20795  0.60873  1.0000
  H   H22       1.0  0.56060  0.70795  0.39127  1.0000
  H   H23       1.0  0.06059  0.79205  0.39127  1.0000
  H   H24       1.0  0.43943  0.29204  0.60873  1.0000
  H   H25       1.0  0.77358  0.33766  0.59905  1.0000
  H   H26       1.0  0.72644  0.83767  0.40095  1.0000
  H   H27       1.0  0.22644  0.66233  0.40095  1.0000
  H   H28       1.0  0.27359  0.16233  0.59905  1.0000
  C   C1        1.0  0.68066  0.43763  0.25426  1.0000
  C   C2        1.0  0.81936  0.93763  0.74574  1.0000
  C   C3        1.0  0.31933  0.56237  0.74573  1.0000
  C   C4        1.0  0.18066  0.06238  0.25426  1.0000
  C   C5        1.0  0.54572  0.37262  0.18527  1.0000
  C   C6        1.0  0.95426  0.87260  0.81474  1.0000
  C   C7        1.0  0.45426  0.62738  0.81472  1.0000
  C   C8        1.0  0.04573  0.12739  0.18528  1.0000
  C   C9        1.0  0.88773  0.49447  0.23546  1.0000
  C   C10       1.0  0.61228  0.99447  0.76452  1.0000
  C   C11       1.0  0.11226  0.50553  0.76453  1.0000
  C   C12       1.0  0.38774  0.00554  0.23547  1.0000
  C   C13       1.0  0.61497  0.36754  0.09849  1.0000
  C   C14       1.0  0.88499  0.86751  0.90151  1.0000
  C   C15       1.0  0.38500  0.63247  0.90150  1.0000
  C   C16       1.0  0.11499  0.13249  0.09850  1.0000
  C   C17       1.0  0.95814  0.48745  0.14894  1.0000
  C   C18       1.0  0.54183  0.98744  0.85104  1.0000
  C   C19       1.0  0.04184  0.51255  0.85105  1.0000
  C   C20       1.0  0.45816  0.01257  0.14894  1.0000
  C   C21       1.0  0.82048  0.42516  0.08016  1.0000
  C   C22       1.0  0.67948  0.92513  0.91984  1.0000
  C   C23       1.0  0.17948  0.57485  0.91983  1.0000
  C   C24       1.0  0.32051  0.07487  0.08016  1.0000
  O   O1        1.0  0.79817  0.48334  0.43037  1.0000
  O   O2        1.0  0.70187  0.98332  0.56963  1.0000
  O   O3        1.0  0.20184  0.51665  0.56962  1.0000
  O   O4        1.0  0.29820  0.01665  0.43039  1.0000
  O   O5        1.0  0.45937  0.33173  0.38960  1.0000
  O   O6        1.0  0.04067  0.83173  0.61041  1.0000
  O   O7        1.0  0.54068  0.66827  0.61040  1.0000
  O   O8        1.0  0.95936  0.16828  0.38961  1.0000
  O   O9        1.0  0.41568  0.57306  0.35935  1.0000
  O   O10       1.0  0.08435  0.07306  0.64065  1.0000
  O   O11       1.0  0.58435  0.42691  0.64065  1.0000
  O   O12       1.0  0.91567  0.92692  0.35936  1.0000
  O   O13       1.0  0.86734  0.27554  0.56630  1.0000
  O   O14       1.0  0.63269  0.77554  0.43370  1.0000
  O   O15       1.0  0.13269  0.72446  0.43371  1.0000
  O   O16       1.0  0.36733  0.22445  0.56630  1.0000
