data_image0
_chemical_formula_structural       Ca2P4H36C16O12
_chemical_formula_sum              "Ca2 P4 H36 C16 O12"
_cell_length_a       5.50116
_cell_length_b       7.56206
_cell_length_c       16.8779
_cell_angle_alpha    96.9727
_cell_angle_beta     90.7937
_cell_angle_gamma    101.844

_space_group_name_H-M_alt    "P 1"
_space_group_IT_number       1

loop_
  _space_group_symop_operation_xyz
  'x, y, z'

loop_
  _atom_site_type_symbol
  _atom_site_label
  _atom_site_symmetry_multiplicity
  _atom_site_fract_x
  _atom_site_fract_y
  _atom_site_fract_z
  _atom_site_occupancy
  Ca  Ca1       1.0  0.79001  0.78373  0.00735  1.0000
  Ca  Ca2       1.0  0.20998  0.21627  0.99265  1.0000
  P   P1        1.0  0.77406  0.33792  0.87557  1.0000
  P   P2        1.0  0.22593  0.66209  0.12443  1.0000
  P   P3        1.0  0.29576  0.80488  0.88419  1.0000
  P   P4        1.0  0.70423  0.19513  0.11581  1.0000
  H   H1        1.0  0.22933  0.35742  0.59579  1.0000
  H   H2        1.0  0.77065  0.64254  0.40421  1.0000
  H   H3        1.0  0.01859  0.35040  0.51429  1.0000
  H   H4        1.0  0.98140  0.64955  0.48571  1.0000
  H   H5        1.0  0.01326  0.15306  0.56209  1.0000
  H   H6        1.0  0.98672  0.84690  0.43792  1.0000
  H   H7        1.0  0.65970  0.29998  0.60751  1.0000
  H   H8        1.0  0.34030  0.70001  0.39250  1.0000
  H   H9        1.0  0.86793  0.50817  0.63701  1.0000
  H   H10       1.0  0.13207  0.49182  0.36298  1.0000
  H   H11       1.0  0.07448  0.36815  0.73822  1.0000
  H   H12       1.0  0.92552  0.63188  0.26179  1.0000
  H   H13       1.0  0.87935  0.15535  0.70876  1.0000
  H   H14       1.0  0.12066  0.84465  0.29125  1.0000
  H   H15       1.0  0.51040  0.25956  0.75832  1.0000
  H   H16       1.0  0.48958  0.74044  0.24168  1.0000
  H   H17       1.0  0.66442  0.48992  0.77014  1.0000
  H   H18       1.0  0.33556  0.51009  0.22986  1.0000
  H   H19       1.0  0.48446  0.66244  0.56592  1.0000
  H   H20       1.0  0.51555  0.33757  0.43408  1.0000
  H   H21       1.0  0.48791  0.86510  0.52258  1.0000
  H   H22       1.0  0.51214  0.13491  0.47742  1.0000
  H   H23       1.0  0.70709  0.86292  0.60040  1.0000
  H   H24       1.0  0.29295  0.13707  0.39961  1.0000
  H   H25       1.0  0.36130  0.01600  0.65160  1.0000
  H   H26       1.0  0.63874  0.98401  0.34840  1.0000
  H   H27       1.0  0.14079  0.81568  0.61908  1.0000
  H   H28       1.0  0.85923  0.18433  0.38091  1.0000
  H   H29       1.0  0.34117  0.64605  0.71158  1.0000
  H   H30       1.0  0.65882  0.35394  0.28842  1.0000
  H   H31       1.0  0.57007  0.84331  0.74156  1.0000
  H   H32       1.0  0.42994  0.15668  0.25843  1.0000
  H   H33       1.0  0.22631  0.00597  0.79433  1.0000
  H   H34       1.0  0.77369  0.99402  0.20567  1.0000
  H   H35       1.0  0.01172  0.79782  0.77515  1.0000
  H   H36       1.0  0.98828  0.20217  0.22484  1.0000
  C   C1        1.0  0.03747  0.30221  0.57244  1.0000
  C   C2        1.0  0.96251  0.69776  0.42756  1.0000
  C   C3        1.0  0.85073  0.35918  0.63116  1.0000
  C   C4        1.0  0.14927  0.64081  0.36884  1.0000
  C   C5        1.0  0.88653  0.30291  0.71372  1.0000
  C   C6        1.0  0.11347  0.69709  0.28628  1.0000
  C   C7        1.0  0.69317  0.35065  0.77238  1.0000
  C   C8        1.0  0.30681  0.64936  0.22763  1.0000
  C   C9        1.0  0.51254  0.81142  0.57907  1.0000
  C   C10       1.0  0.48748  0.18859  0.42093  1.0000
  C   C11       1.0  0.33482  0.86633  0.64159  1.0000
  C   C12       1.0  0.66520  0.13367  0.35841  1.0000
  C   C13       1.0  0.37396  0.79599  0.72097  1.0000
  C   C14       1.0  0.62605  0.20401  0.27903  1.0000
  C   C15       1.0  0.21089  0.85720  0.78719  1.0000
  C   C16       1.0  0.78911  0.14280  0.21281  1.0000
  O   O1        1.0  0.92055  0.55115  0.91087  1.0000
  O   O2        1.0  0.07943  0.44886  0.08913  1.0000
  O   O3        1.0  0.95280  0.21476  0.88208  1.0000
  O   O4        1.0  0.04719  0.78526  0.11793  1.0000
  O   O5        1.0  0.54920  0.32699  0.92590  1.0000
  O   O6        1.0  0.45077  0.67304  0.07411  1.0000
  O   O7        1.0  0.57041  0.81338  0.89206  1.0000
  O   O8        1.0  0.42958  0.18663  0.10795  1.0000
  O   O9        1.0  0.16938  0.90834  0.94823  1.0000
  O   O10       1.0  0.83061  0.09167  0.05177  1.0000
  O   O11       1.0  0.18761  0.58399  0.88667  1.0000
  O   O12       1.0  0.81239  0.41601  0.11332  1.0000
