data_image0
_chemical_formula_structural       Na4H28C8S8O16
_chemical_formula_sum              "Na4 H28 C8 S8 O16"
_cell_length_a       4.94097
_cell_length_b       6.07207
_cell_length_c       23.4537
_cell_angle_alpha    90.0001
_cell_angle_beta     90.0002
_cell_angle_gamma    90.0001

_space_group_name_H-M_alt    "P 1"
_space_group_IT_number       1

loop_
  _space_group_symop_operation_xyz
  'x, y, z'

loop_
  _atom_site_type_symbol
  _atom_site_label
  _atom_site_symmetry_multiplicity
  _atom_site_fract_x
  _atom_site_fract_y
  _atom_site_fract_z
  _atom_site_occupancy
  Na  Na1       1.0  0.33425  0.65939  0.26580  1.0000
  Na  Na2       1.0  0.66576  0.15939  0.73420  1.0000
  Na  Na3       1.0  0.83425  0.15940  0.23421  1.0000
  Na  Na4       1.0  0.16575  0.65940  0.76580  1.0000
  H   H1        1.0  0.90725  0.65927  0.98320  1.0000
  H   H2        1.0  0.09275  0.15927  0.01679  1.0000
  H   H3        1.0  0.40725  0.15927  0.51680  1.0000
  H   H4        1.0  0.59275  0.65927  0.48320  1.0000
  H   H5        1.0  0.80005  0.79049  0.33135  1.0000
  H   H6        1.0  0.19995  0.29049  0.66865  1.0000
  H   H7        1.0  0.30005  0.29049  0.16865  1.0000
  H   H8        1.0  0.69994  0.79050  0.83135  1.0000
  H   H9        1.0  0.80276  0.53511  0.33080  1.0000
  H   H10       1.0  0.19724  0.03511  0.66920  1.0000
  H   H11       1.0  0.30276  0.03511  0.16920  1.0000
  H   H12       1.0  0.69724  0.53511  0.83080  1.0000
  H   H13       1.0  0.02631  0.86425  0.07612  1.0000
  H   H14       1.0  0.97369  0.36425  0.92388  1.0000
  H   H15       1.0  0.52631  0.36425  0.42388  1.0000
  H   H16       1.0  0.47369  0.86426  0.57612  1.0000
  H   H17       1.0  0.71357  0.00440  0.08252  1.0000
  H   H18       1.0  0.28643  0.50441  0.91748  1.0000
  H   H19       1.0  0.21357  0.50440  0.41748  1.0000
  H   H20       1.0  0.78643  0.00441  0.58252  1.0000
  H   H21       1.0  0.78087  0.49831  0.08280  1.0000
  H   H22       1.0  0.21914  0.99831  0.91720  1.0000
  H   H23       1.0  0.28087  0.99830  0.41720  1.0000
  H   H24       1.0  0.71913  0.49831  0.58280  1.0000
  H   H25       1.0  0.46882  0.64229  0.09277  1.0000
  H   H26       1.0  0.53118  0.14229  0.90723  1.0000
  H   H27       1.0  0.96882  0.14229  0.40723  1.0000
  H   H28       1.0  0.03117  0.64229  0.59277  1.0000
  C   C1        1.0  0.80840  0.85097  0.06785  1.0000
  C   C2        1.0  0.19160  0.35098  0.93215  1.0000
  C   C3        1.0  0.30840  0.35097  0.43216  1.0000
  C   C4        1.0  0.69160  0.85098  0.56785  1.0000
  C   C5        1.0  0.68921  0.65226  0.09806  1.0000
  C   C6        1.0  0.31079  0.15227  0.90194  1.0000
  C   C7        1.0  0.18921  0.15226  0.40194  1.0000
  C   C8        1.0  0.81079  0.65227  0.59806  1.0000
  S   S1        1.0  0.74956  0.83903  0.99123  1.0000
  S   S2        1.0  0.25044  0.33903  0.00877  1.0000
  S   S3        1.0  0.24956  0.33903  0.50877  1.0000
  S   S4        1.0  0.75044  0.83903  0.49123  1.0000
  S   S5        1.0  0.74761  0.65917  0.17312  1.0000
  S   S6        1.0  0.25239  0.15917  0.82688  1.0000
  S   S7        1.0  0.24761  0.15915  0.32688  1.0000
  S   S8        1.0  0.75239  0.65916  0.67312  1.0000
  O   O1        1.0  0.61238  0.46020  0.19615  1.0000
  O   O2        1.0  0.38763  0.96020  0.80385  1.0000
  O   O3        1.0  0.11238  0.96019  0.30385  1.0000
  O   O4        1.0  0.88762  0.46019  0.69615  1.0000
  O   O5        1.0  0.04014  0.66045  0.18260  1.0000
  O   O6        1.0  0.95988  0.16044  0.81740  1.0000
  O   O7        1.0  0.54014  0.16044  0.31740  1.0000
  O   O8        1.0  0.45986  0.66044  0.68260  1.0000
  O   O9        1.0  0.68268  0.66177  0.33679  1.0000
  O   O10       1.0  0.31732  0.16177  0.66321  1.0000
  O   O11       1.0  0.18268  0.16177  0.16321  1.0000
  O   O12       1.0  0.81732  0.66177  0.83679  1.0000
  O   O13       1.0  0.61215  0.86060  0.19472  1.0000
  O   O14       1.0  0.38785  0.36060  0.80528  1.0000
  O   O15       1.0  0.11215  0.36059  0.30528  1.0000
  O   O16       1.0  0.88785  0.86059  0.69473  1.0000
