data_image0
_chemical_formula_structural       Cu2H28C32N4O22
_chemical_formula_sum              "Cu2 H28 C32 N4 O22"
_cell_length_a       6.19041
_cell_length_b       7.22833
_cell_length_c       23.081
_cell_angle_alpha    89.4166
_cell_angle_beta     88.6104
_cell_angle_gamma    64.603

_space_group_name_H-M_alt    "P 1"
_space_group_IT_number       1

loop_
  _space_group_symop_operation_xyz
  'x, y, z'

loop_
  _atom_site_type_symbol
  _atom_site_label
  _atom_site_symmetry_multiplicity
  _atom_site_fract_x
  _atom_site_fract_y
  _atom_site_fract_z
  _atom_site_occupancy
  Cu  Cu1       1.0  0.20157  0.59640  0.24997  1.0000
  Cu  Cu2       1.0  0.79844  0.40359  0.75003  1.0000
  H   H1        1.0  0.65534  0.94050  0.90696  1.0000
  H   H2        1.0  0.40358  0.94071  0.59311  1.0000
  H   H3        1.0  0.34467  0.05949  0.09304  1.0000
  H   H4        1.0  0.59641  0.05930  0.40689  1.0000
  H   H5        1.0  0.09758  0.03536  0.26437  1.0000
  H   H6        1.0  0.86703  0.03555  0.23560  1.0000
  H   H7        1.0  0.90243  0.96464  0.73563  1.0000
  H   H8        1.0  0.13297  0.96445  0.76440  1.0000
  H   H9        1.0  0.66007  0.47869  0.03963  1.0000
  H   H10       1.0  0.86044  0.47925  0.46033  1.0000
  H   H11       1.0  0.33993  0.52131  0.96037  1.0000
  H   H12       1.0  0.13956  0.52076  0.53967  1.0000
  H   H13       1.0  0.91660  0.94956  0.03751  1.0000
  H   H14       1.0  0.13211  0.94989  0.46256  1.0000
  H   H15       1.0  0.08340  0.05043  0.96249  1.0000
  H   H16       1.0  0.86788  0.05010  0.53744  1.0000
  H   H17       1.0  0.05356  0.85060  0.13932  1.0000
  H   H18       1.0  0.09439  0.85110  0.36070  1.0000
  H   H19       1.0  0.94644  0.14939  0.86068  1.0000
  H   H20       1.0  0.90561  0.14890  0.63930  1.0000
  H   H21       1.0  0.97558  0.25322  0.16619  1.0000
  H   H22       1.0  0.77076  0.25380  0.33374  1.0000
  H   H23       1.0  0.02442  0.74677  0.83381  1.0000
  H   H24       1.0  0.22925  0.74620  0.66626  1.0000
  H   H25       1.0  0.80314  0.23276  0.10713  1.0000
  H   H26       1.0  0.96363  0.23325  0.39281  1.0000
  H   H27       1.0  0.19685  0.76724  0.89287  1.0000
  H   H28       1.0  0.03637  0.76676  0.60719  1.0000
  C   C1        1.0  0.74637  0.56531  0.05923  1.0000
  C   C2        1.0  0.68736  0.56583  0.44074  1.0000
  C   C3        1.0  0.25364  0.43469  0.94077  1.0000
  C   C4        1.0  0.31263  0.43418  0.55926  1.0000
  C   C5        1.0  0.77359  0.72324  0.03063  1.0000
  C   C6        1.0  0.50192  0.72369  0.46938  1.0000
  C   C7        1.0  0.22641  0.27675  0.96937  1.0000
  C   C8        1.0  0.49807  0.27631  0.53062  1.0000
  C   C9        1.0  0.89041  0.82654  0.05951  1.0000
  C   C10       1.0  0.28163  0.82698  0.44053  1.0000
  C   C11       1.0  0.10959  0.17346  0.94049  1.0000
  C   C12       1.0  0.71836  0.17302  0.55947  1.0000
  C   C13       1.0  0.96590  0.77461  0.11517  1.0000
  C   C14       1.0  0.25816  0.77514  0.38484  1.0000
  C   C15       1.0  0.03410  0.22538  0.88483  1.0000
  C   C16       1.0  0.74183  0.22486  0.61516  1.0000
  C   C17       1.0  0.93093  0.61498  0.14488  1.0000
  C   C18       1.0  0.45309  0.61559  0.35510  1.0000
  C   C19       1.0  0.06907  0.38501  0.85512  1.0000
  C   C20       1.0  0.54691  0.38441  0.64490  1.0000
  C   C21       1.0  0.67792  0.77236  0.97206  1.0000
  C   C22       1.0  0.54881  0.77267  0.52793  1.0000
  C   C23       1.0  0.32209  0.22763  0.02794  1.0000
  C   C24       1.0  0.45118  0.22734  0.47207  1.0000
  C   C25       1.0  0.81300  0.33294  0.14113  1.0000
  C   C26       1.0  0.85352  0.33348  0.35882  1.0000
  C   C27       1.0  0.18700  0.66706  0.85887  1.0000
  C   C28       1.0  0.14649  0.66652  0.64118  1.0000
  C   C29       1.0  0.59951  0.37880  0.18292  1.0000
  C   C30       1.0  0.02129  0.37912  0.31705  1.0000
  C   C31       1.0  0.40049  0.62120  0.81708  1.0000
  C   C32       1.0  0.97871  0.62088  0.68295  1.0000
  N   N1        1.0  0.82772  0.50958  0.11314  1.0000
  N   N2        1.0  0.66187  0.51014  0.38683  1.0000
  N   N3        1.0  0.17228  0.49042  0.88686  1.0000
  N   N4        1.0  0.33813  0.48987  0.61317  1.0000
  O   O1        1.0  0.73461  0.91411  0.94449  1.0000
  O   O2        1.0  0.35042  0.91456  0.55559  1.0000
  O   O3        1.0  0.26540  0.08589  0.05551  1.0000
  O   O4        1.0  0.64957  0.08544  0.44441  1.0000
  O   O5        1.0  0.55732  0.69755  0.94879  1.0000
  O   O6        1.0  0.74452  0.69760  0.55112  1.0000
  O   O7        1.0  0.44269  0.30244  0.05121  1.0000
  O   O8        1.0  0.25547  0.30242  0.44888  1.0000
  O   O9        1.0  0.98356  0.55611  0.19620  1.0000
  O   O10       1.0  0.45959  0.55671  0.30376  1.0000
  O   O11       1.0  0.01645  0.44389  0.80380  1.0000
  O   O12       1.0  0.54041  0.44329  0.69624  1.0000
  O   O13       1.0  0.60100  0.22791  0.21012  1.0000
  O   O14       1.0  0.17088  0.22806  0.28989  1.0000
  O   O15       1.0  0.39900  0.77208  0.78989  1.0000
  O   O16       1.0  0.82912  0.77194  0.71011  1.0000
  O   O17       1.0  0.43868  0.56439  0.18556  1.0000
  O   O18       1.0  0.99638  0.56466  0.31438  1.0000
  O   O19       1.0  0.56132  0.43561  0.81444  1.0000
  O   O20       1.0  0.00362  0.43535  0.68562  1.0000
  O   O21       1.0  0.02818  0.94374  0.24997  1.0000
  O   O22       1.0  0.97182  0.05626  0.75003  1.0000
