data_image0
_chemical_formula_structural       Ni2H22C26N4O12
_chemical_formula_sum              "Ni2 H22 C26 N4 O12"
_cell_length_a       8.07714
_cell_length_b       9.93089
_cell_length_c       10.8052
_cell_angle_alpha    113.316
_cell_angle_beta     103.445
_cell_angle_gamma    98.1441

_space_group_name_H-M_alt    "P 1"
_space_group_IT_number       1

loop_
  _space_group_symop_operation_xyz
  'x, y, z'

loop_
  _atom_site_type_symbol
  _atom_site_label
  _atom_site_symmetry_multiplicity
  _atom_site_fract_x
  _atom_site_fract_y
  _atom_site_fract_z
  _atom_site_occupancy
  Ni  Ni1       1.0  0.19620  0.12762  0.86331  1.0000
  Ni  Ni2       1.0  0.80380  0.87237  0.13668  1.0000
  H   H1        1.0  0.64626  0.95013  0.42067  1.0000
  H   H2        1.0  0.35372  0.04988  0.57935  1.0000
  H   H3        1.0  0.40525  0.75629  0.41894  1.0000
  H   H4        1.0  0.59473  0.24371  0.58105  1.0000
  H   H5        1.0  0.45337  0.69870  0.62920  1.0000
  H   H6        1.0  0.54662  0.30130  0.37078  1.0000
  H   H7        1.0  0.53480  0.08858  0.97017  1.0000
  H   H8        1.0  0.46521  0.91142  0.02982  1.0000
  H   H9        1.0  0.84333  0.19932  0.99631  1.0000
  H   H10       1.0  0.15668  0.80069  0.00369  1.0000
  H   H11       1.0  0.03830  0.34723  0.92396  1.0000
  H   H12       1.0  0.96171  0.65280  0.07604  1.0000
  H   H13       1.0  0.95733  0.45965  0.84145  1.0000
  H   H14       1.0  0.04267  0.54037  0.15856  1.0000
  H   H15       1.0  0.65196  0.49845  0.83118  1.0000
  H   H16       1.0  0.34804  0.50157  0.16884  1.0000
  H   H17       1.0  0.34648  0.37340  0.80849  1.0000
  H   H18       1.0  0.65353  0.62660  0.19152  1.0000
  H   H19       1.0  0.10472  0.75373  0.73581  1.0000
  H   H20       1.0  0.89529  0.24626  0.26419  1.0000
  H   H21       1.0  0.15445  0.79356  0.62125  1.0000
  H   H22       1.0  0.84556  0.20641  0.37874  1.0000
  C   C1        1.0  0.94955  0.11499  0.62137  1.0000
  C   C2        1.0  0.05045  0.88502  0.37863  1.0000
  C   C3        1.0  0.81553  0.99345  0.62121  1.0000
  C   C4        1.0  0.18448  0.00655  0.37880  1.0000
  C   C5        1.0  0.65970  0.91839  0.50713  1.0000
  C   C6        1.0  0.34029  0.08162  0.49288  1.0000
  C   C7        1.0  0.52846  0.81112  0.50652  1.0000
  C   C8        1.0  0.47154  0.18888  0.49347  1.0000
  C   C9        1.0  0.55509  0.77719  0.62196  1.0000
  C   C10       1.0  0.44490  0.22281  0.37804  1.0000
  C   C11       1.0  0.71292  0.84756  0.73216  1.0000
  C   C12       1.0  0.28707  0.15242  0.26783  1.0000
  C   C13       1.0  0.56549  0.17912  0.94029  1.0000
  C   C14       1.0  0.43452  0.82089  0.05971  1.0000
  C   C15       1.0  0.73749  0.24184  0.95441  1.0000
  C   C16       1.0  0.26251  0.75817  0.04560  1.0000
  C   C17       1.0  0.77323  0.35728  0.91339  1.0000
  C   C18       1.0  0.22677  0.64272  0.08661  1.0000
  C   C19       1.0  0.95765  0.42825  0.92827  1.0000
  C   C20       1.0  0.04236  0.57177  0.07174  1.0000
  C   C21       1.0  0.63026  0.40697  0.86206  1.0000
  C   C22       1.0  0.36975  0.59304  0.13795  1.0000
  C   C23       1.0  0.46105  0.34005  0.85063  1.0000
  C   C24       1.0  0.53895  0.65996  0.14937  1.0000
  C   C25       1.0  0.76521  0.80853  0.85531  1.0000
  C   C26       1.0  0.23480  0.19146  0.14468  1.0000
  N   N1        1.0  0.42831  0.22661  0.88822  1.0000
  N   N2        1.0  0.57169  0.77340  0.11177  1.0000
  N   N3        1.0  0.83892  0.95402  0.73071  1.0000
  N   N4        1.0  0.16108  0.04597  0.26927  1.0000
  O   O1        1.0  0.11154  0.15814  0.70412  1.0000
  O   O2        1.0  0.88845  0.84187  0.29589  1.0000
  O   O3        1.0  0.89962  0.16867  0.53710  1.0000
  O   O4        1.0  0.10038  0.83134  0.46291  1.0000
  O   O5        1.0  0.97981  0.01831  0.84743  1.0000
  O   O6        1.0  0.02019  0.98165  0.15255  1.0000
  O   O7        1.0  0.20519  0.78532  0.70907  1.0000
  O   O8        1.0  0.79481  0.21465  0.29091  1.0000
  O   O9        1.0  0.71836  0.88774  0.96250  1.0000
  O   O10       1.0  0.28163  0.11225  0.03749  1.0000
  O   O11       1.0  0.84219  0.70618  0.84026  1.0000
  O   O12       1.0  0.15785  0.29382  0.15973  1.0000
