data_image0
_chemical_formula_structural       K4H44C24N16O20
_chemical_formula_sum              "K4 H44 C24 N16 O20"
_cell_length_a       7.43952
_cell_length_b       10.0429
_cell_length_c       15.751
_cell_angle_alpha    108.589
_cell_angle_beta     103.661
_cell_angle_gamma    90.0031

_space_group_name_H-M_alt    "P 1"
_space_group_IT_number       1

loop_
  _space_group_symop_operation_xyz
  'x, y, z'

loop_
  _atom_site_type_symbol
  _atom_site_label
  _atom_site_symmetry_multiplicity
  _atom_site_fract_x
  _atom_site_fract_y
  _atom_site_fract_z
  _atom_site_occupancy
  K   K1        1.0  0.76859  0.76881  0.53758  1.0000
  K   K2        1.0  0.23134  0.23137  0.46238  1.0000
  K   K3        1.0  0.26094  0.76108  0.52239  1.0000
  K   K4        1.0  0.73914  0.23878  0.47760  1.0000
  H   H1        1.0  0.56574  0.32715  0.72100  1.0000
  H   H2        1.0  0.15514  0.39388  0.72107  1.0000
  H   H3        1.0  0.43397  0.60618  0.27898  1.0000
  H   H4        1.0  0.84516  0.67287  0.27898  1.0000
  H   H5        1.0  0.75625  0.36276  0.98782  1.0000
  H   H6        1.0  0.23146  0.62496  0.98789  1.0000
  H   H7        1.0  0.24370  0.37503  0.01213  1.0000
  H   H8        1.0  0.76847  0.63713  0.01212  1.0000
  H   H9        1.0  0.41131  0.07962  0.72170  1.0000
  H   H10       1.0  0.31017  0.64206  0.72176  1.0000
  H   H11       1.0  0.58846  0.35804  0.27829  1.0000
  H   H12       1.0  0.69014  0.92036  0.27834  1.0000
  H   H13       1.0  0.83594  0.08573  0.76118  1.0000
  H   H14       1.0  0.92512  0.67551  0.76138  1.0000
  H   H15       1.0  0.16380  0.32436  0.23863  1.0000
  H   H16       1.0  0.07514  0.91434  0.23870  1.0000
  H   H17       1.0  0.68444  0.93077  0.70845  1.0000
  H   H18       1.0  0.02383  0.77774  0.70861  1.0000
  H   H19       1.0  0.31542  0.22222  0.29141  1.0000
  H   H20       1.0  0.97635  0.06929  0.29145  1.0000
  H   H21       1.0  0.61400  0.93285  0.84529  1.0000
  H   H22       1.0  0.23148  0.91236  0.84541  1.0000
  H   H23       1.0  0.38614  0.08760  0.15461  1.0000
  H   H24       1.0  0.76860  0.06699  0.15469  1.0000
  H   H25       1.0  0.84127  0.01491  0.88878  1.0000
  H   H26       1.0  0.04760  0.87399  0.88892  1.0000
  H   H27       1.0  0.15881  0.12599  0.11107  1.0000
  H   H28       1.0  0.95242  0.98515  0.11112  1.0000
  H   H29       1.0  0.65626  0.15032  0.98613  1.0000
  H   H30       1.0  0.32985  0.83568  0.98624  1.0000
  H   H31       1.0  0.34383  0.16435  0.01381  1.0000
  H   H32       1.0  0.67013  0.84958  0.01388  1.0000
  H   H33       1.0  0.47273  0.14940  0.89102  1.0000
  H   H34       1.0  0.41821  0.74143  0.89112  1.0000
  H   H35       1.0  0.52727  0.25859  0.10895  1.0000
  H   H36       1.0  0.58190  0.85032  0.10902  1.0000
  H   H37       1.0  0.59174  0.59683  0.66031  1.0000
  H   H38       1.0  0.06850  0.06347  0.66037  1.0000
  H   H39       1.0  0.40832  0.93658  0.33965  1.0000
  H   H40       1.0  0.93154  0.40326  0.33966  1.0000
  H   H41       1.0  0.52234  0.54561  0.55128  1.0000
  H   H42       1.0  0.02918  0.00553  0.55136  1.0000
  H   H43       1.0  0.47758  0.99447  0.44868  1.0000
  H   H44       1.0  0.97095  0.45436  0.44868  1.0000
  C   C1        1.0  0.53290  0.09969  0.61646  1.0000
  C   C2        1.0  0.08323  0.51690  0.61657  1.0000
  C   C3        1.0  0.46669  0.48317  0.38347  1.0000
  C   C4        1.0  0.91703  0.90032  0.38352  1.0000
  C   C5        1.0  0.54827  0.11977  0.72006  1.0000
  C   C6        1.0  0.17155  0.60032  0.72016  1.0000
  C   C7        1.0  0.45142  0.39974  0.27988  1.0000
  C   C8        1.0  0.82877  0.88025  0.27995  1.0000
  C   C9        1.0  0.70135  0.03766  0.75851  1.0000
  C   C10       1.0  0.05701  0.72089  0.75866  1.0000
  C   C11       1.0  0.29849  0.27907  0.24137  1.0000
  C   C12       1.0  0.94321  0.96238  0.24143  1.0000
  C   C13       1.0  0.69950  0.02772  0.85363  1.0000
  C   C14       1.0  0.15416  0.82591  0.85377  1.0000
  C   C15       1.0  0.30052  0.17406  0.14626  1.0000
  C   C16       1.0  0.84595  0.97221  0.14632  1.0000
  C   C17       1.0  0.62488  0.15338  0.91530  1.0000
  C   C18       1.0  0.29035  0.76181  0.91540  1.0000
  C   C19       1.0  0.37513  0.23819  0.08465  1.0000
  C   C20       1.0  0.70972  0.84648  0.08471  1.0000
  C   C21       1.0  0.65958  0.34716  0.85460  1.0000
  C   C22       1.0  0.19473  0.50743  0.85466  1.0000
  C   C23       1.0  0.34016  0.49261  0.14536  1.0000
  C   C24       1.0  0.80546  0.65284  0.14538  1.0000
  N   N1        1.0  0.57546  0.27281  0.76749  1.0000
  N   N2        1.0  0.19183  0.49469  0.76757  1.0000
  N   N3        1.0  0.42426  0.50537  0.23248  1.0000
  N   N4        1.0  0.80853  0.72721  0.23250  1.0000
  N   N5        1.0  0.70427  0.29098  0.92262  1.0000
  N   N6        1.0  0.21809  0.63159  0.92269  1.0000
  N   N7        1.0  0.29559  0.36843  0.07734  1.0000
  N   N8        1.0  0.78197  0.70896  0.07734  1.0000
  N   N9        1.0  0.70093  0.49169  0.88677  1.0000
  N   N10       1.0  0.18553  0.39506  0.88681  1.0000
  N   N11       1.0  0.29887  0.60498  0.11321  1.0000
  N   N12       1.0  0.81455  0.50831  0.11321  1.0000
  N   N13       1.0  0.69047  0.56332  0.82828  1.0000
  N   N14       1.0  0.13754  0.26495  0.82831  1.0000
  N   N15       1.0  0.30944  0.73510  0.17171  1.0000
  N   N16       1.0  0.86239  0.43666  0.17169  1.0000
  O   O1        1.0  0.52101  0.97361  0.56167  1.0000
  O   O2        1.0  0.04005  0.58825  0.56183  1.0000
  O   O3        1.0  0.47860  0.41182  0.43824  1.0000
  O   O4        1.0  0.96030  0.02639  0.43830  1.0000
  O   O5        1.0  0.52977  0.20924  0.59335  1.0000
  O   O6        1.0  0.06354  0.38421  0.59338  1.0000
  O   O7        1.0  0.46991  0.61584  0.40662  1.0000
  O   O8        1.0  0.93655  0.79077  0.40668  1.0000
  O   O9        1.0  0.65947  0.50485  0.74076  1.0000
  O   O10       1.0  0.08106  0.23596  0.74079  1.0000
  O   O11       1.0  0.34039  0.76413  0.25924  1.0000
  O   O12       1.0  0.91881  0.49516  0.25922  1.0000
  O   O13       1.0  0.71514  0.69530  0.86352  1.0000
  O   O14       1.0  0.14812  0.16817  0.86351  1.0000
  O   O15       1.0  0.28497  0.83187  0.13650  1.0000
  O   O16       1.0  0.85174  0.30468  0.13645  1.0000
  O   O17       1.0  0.54615  0.63090  0.60748  1.0000
  O   O18       1.0  0.06123  0.97649  0.60758  1.0000
  O   O19       1.0  0.45394  0.02351  0.39246  1.0000
  O   O20       1.0  0.93881  0.36910  0.39246  1.0000
