data_image0
_chemical_formula_structural       Cd3H12C20S6N14
_chemical_formula_sum              "Cd3 H12 C20 S6 N14"
_cell_length_a       7.01231
_cell_length_b       8.45096
_cell_length_c       13.7962
_cell_angle_alpha    87.0256
_cell_angle_beta     84.4565
_cell_angle_gamma    68.4466

_space_group_name_H-M_alt    "P 1"
_space_group_IT_number       1

loop_
  _space_group_symop_operation_xyz
  'x, y, z'

loop_
  _atom_site_type_symbol
  _atom_site_label
  _atom_site_symmetry_multiplicity
  _atom_site_fract_x
  _atom_site_fract_y
  _atom_site_fract_z
  _atom_site_occupancy
  Cd  Cd1       1.0  0.50001  0.00001  1.00000  1.0000
  Cd  Cd2       1.0  0.35864  0.46706  0.31604  1.0000
  Cd  Cd3       1.0  0.64137  0.53294  0.68396  1.0000
  H   H1        1.0  0.07620  0.62927  0.55157  1.0000
  H   H2        1.0  0.92379  0.37072  0.44843  1.0000
  H   H3        1.0  0.78202  0.95381  0.55864  1.0000
  H   H4        1.0  0.21798  0.04618  0.44136  1.0000
  H   H5        1.0  0.70433  0.03566  0.36823  1.0000
  H   H6        1.0  0.29567  0.96433  0.63177  1.0000
  H   H7        1.0  0.24863  0.51798  0.07452  1.0000
  H   H8        1.0  0.75136  0.48201  0.92549  1.0000
  H   H9        1.0  0.95925  0.70024  0.97408  1.0000
  H   H10       1.0  0.04075  0.29975  0.02592  1.0000
  H   H11       1.0  0.63913  0.95987  0.22257  1.0000
  H   H12       1.0  0.36087  0.04014  0.77743  1.0000
  C   C1        1.0  0.00138  0.71021  0.49216  1.0000
  C   C2        1.0  0.99861  0.28978  0.50785  1.0000
  C   C3        1.0  0.85127  0.87658  0.49514  1.0000
  C   C4        1.0  0.14873  0.12341  0.50486  1.0000
  C   C5        1.0  0.80906  0.92001  0.39976  1.0000
  C   C6        1.0  0.19094  0.07998  0.60024  1.0000
  C   C7        1.0  0.93946  0.76299  0.24423  1.0000
  C   C8        1.0  0.06054  0.23701  0.75577  1.0000
  C   C9        1.0  0.11270  0.61749  0.10734  1.0000
  C   C10       1.0  0.88729  0.38251  0.89267  1.0000
  C   C11       1.0  0.95345  0.71637  0.05232  1.0000
  C   C12       1.0  0.04655  0.28363  0.94768  1.0000
  C   C13       1.0  0.50968  0.29925  0.53383  1.0000
  C   C14       1.0  0.49031  0.70076  0.46617  1.0000
  C   C15       1.0  0.24395  0.15191  0.21934  1.0000
  C   C16       1.0  0.75607  0.84808  0.78066  1.0000
  C   C17       1.0  0.60729  0.30435  0.10460  1.0000
  C   C18       1.0  0.39272  0.69566  0.89540  1.0000
  C   C19       1.0  0.77694  0.86287  0.18950  1.0000
  C   C20       1.0  0.22307  0.13714  0.81050  1.0000
  S   S1        1.0  0.68596  0.40089  0.18246  1.0000
  S   S2        1.0  0.31404  0.59912  0.81754  1.0000
  S   S3        1.0  0.22016  0.00781  0.15225  1.0000
  S   S4        1.0  0.77985  0.99220  0.84775  1.0000
  S   S5        1.0  0.53021  0.26069  0.65001  1.0000
  S   S6        1.0  0.46977  0.73933  0.34998  1.0000
  N   N1        1.0  0.50075  0.32115  0.44873  1.0000
  N   N2        1.0  0.49926  0.67885  0.55127  1.0000
  N   N3        1.0  0.54661  0.23926  0.04671  1.0000
  N   N4        1.0  0.45340  0.76074  0.95329  1.0000
  N   N5        1.0  0.26308  0.25344  0.26952  1.0000
  N   N6        1.0  0.73693  0.74656  0.73047  1.0000
  N   N7        1.0  0.10479  0.64093  0.20318  1.0000
  N   N8        1.0  0.89521  0.35907  0.79682  1.0000
  N   N9        1.0  0.04971  0.65390  0.40106  1.0000
  N   N10       1.0  0.95030  0.34609  0.59894  1.0000
  N   N11       1.0  0.93211  0.78400  0.34440  1.0000
  N   N12       1.0  0.06789  0.21600  0.65560  1.0000
  N   N13       1.0  0.78648  0.83755  0.09434  1.0000
  N   N14       1.0  0.21352  0.16246  0.90567  1.0000
