data_image0
_chemical_formula_structural       Hg4H40C44S8Br8N8
_chemical_formula_sum              "Hg4 H40 C44 S8 Br8 N8"
_cell_length_a       7.57439
_cell_length_b       8.21453
_cell_length_c       23.8754
_cell_angle_alpha    90.0001
_cell_angle_beta     90.0001
_cell_angle_gamma    94.0499

_space_group_name_H-M_alt    "P 1"
_space_group_IT_number       1

loop_
  _space_group_symop_operation_xyz
  'x, y, z'

loop_
  _atom_site_type_symbol
  _atom_site_label
  _atom_site_symmetry_multiplicity
  _atom_site_fract_x
  _atom_site_fract_y
  _atom_site_fract_z
  _atom_site_occupancy
  Hg  Hg1       1.0  0.04937  0.51969  0.79468  1.0000
  Hg  Hg2       1.0  0.54937  0.51967  0.70532  1.0000
  Hg  Hg3       1.0  0.95063  0.48032  0.20532  1.0000
  Hg  Hg4       1.0  0.45063  0.48032  0.29468  1.0000
  H   H1        1.0  0.13016  0.93236  0.90482  1.0000
  H   H2        1.0  0.63016  0.93236  0.59518  1.0000
  H   H3        1.0  0.86984  0.06764  0.09518  1.0000
  H   H4        1.0  0.36984  0.06764  0.40482  1.0000
  H   H5        1.0  0.35509  0.02358  0.89691  1.0000
  H   H6        1.0  0.85510  0.02358  0.60309  1.0000
  H   H7        1.0  0.64491  0.97642  0.10309  1.0000
  H   H8        1.0  0.14491  0.97642  0.39691  1.0000
  H   H9        1.0  0.25006  0.91297  0.81176  1.0000
  H   H10       1.0  0.75005  0.91297  0.68824  1.0000
  H   H11       1.0  0.74995  0.08703  0.18824  1.0000
  H   H12       1.0  0.24995  0.08703  0.31176  1.0000
  H   H13       1.0  0.26508  0.85785  0.70995  1.0000
  H   H14       1.0  0.76508  0.85784  0.79005  1.0000
  H   H15       1.0  0.73493  0.14215  0.29005  1.0000
  H   H16       1.0  0.23493  0.14215  0.20995  1.0000
  H   H17       1.0  0.16477  0.06816  0.64163  1.0000
  H   H18       1.0  0.66477  0.06816  0.85837  1.0000
  H   H19       1.0  0.83523  0.93184  0.35837  1.0000
  H   H20       1.0  0.33523  0.93185  0.14163  1.0000
  H   H21       1.0  0.06630  0.33011  0.67995  1.0000
  H   H22       1.0  0.56630  0.33011  0.82005  1.0000
  H   H23       1.0  0.93371  0.66988  0.32005  1.0000
  H   H24       1.0  0.43370  0.66988  0.17995  1.0000
  H   H25       1.0  0.38044  0.28363  0.07218  1.0000
  H   H26       1.0  0.88044  0.28363  0.42782  1.0000
  H   H27       1.0  0.61956  0.71637  0.92782  1.0000
  H   H28       1.0  0.11955  0.71637  0.57219  1.0000
  H   H29       1.0  0.67566  0.43624  0.08112  1.0000
  H   H30       1.0  0.17566  0.43624  0.41888  1.0000
  H   H31       1.0  0.32435  0.56376  0.91887  1.0000
  H   H32       1.0  0.82434  0.56376  0.58113  1.0000
  H   H33       1.0  0.88529  0.43957  0.99900  1.0000
  H   H34       1.0  0.38529  0.43958  0.50100  1.0000
  H   H35       1.0  0.11471  0.56042  0.00100  1.0000
  H   H36       1.0  0.61471  0.56042  0.49900  1.0000
  H   H37       1.0  0.78864  0.29175  0.91208  1.0000
  H   H38       1.0  0.28864  0.29175  0.58792  1.0000
  H   H39       1.0  0.21136  0.70825  0.08792  1.0000
  H   H40       1.0  0.71136  0.70825  0.41208  1.0000
  C   C1        1.0  0.21903  0.04288  0.90977  1.0000
  C   C2        1.0  0.71904  0.04288  0.59023  1.0000
  C   C3        1.0  0.78097  0.95712  0.09023  1.0000
  C   C4        1.0  0.28097  0.95711  0.40977  1.0000
  C   C5        1.0  0.15379  0.15325  0.80025  1.0000
  C   C6        1.0  0.65379  0.15324  0.69974  1.0000
  C   C7        1.0  0.84621  0.84676  0.19975  1.0000
  C   C8        1.0  0.34621  0.84676  0.30026  1.0000
  C   C9        1.0  0.21095  0.00367  0.78190  1.0000
  C   C10       1.0  0.71094  0.00367  0.71810  1.0000
  C   C11       1.0  0.78905  0.99633  0.21810  1.0000
  C   C12       1.0  0.28905  0.99633  0.28190  1.0000
  C   C13       1.0  0.21841  0.97274  0.72477  1.0000
  C   C14       1.0  0.71840  0.97273  0.77523  1.0000
  C   C15       1.0  0.78159  0.02727  0.27523  1.0000
  C   C16       1.0  0.28159  0.02727  0.22478  1.0000
  C   C17       1.0  0.16543  0.08890  0.68665  1.0000
  C   C18       1.0  0.66544  0.08889  0.81335  1.0000
  C   C19       1.0  0.83456  0.91110  0.31335  1.0000
  C   C20       1.0  0.33456  0.91111  0.18665  1.0000
  C   C21       1.0  0.11001  0.23459  0.70738  1.0000
  C   C22       1.0  0.61001  0.23458  0.79262  1.0000
  C   C23       1.0  0.88999  0.76541  0.29262  1.0000
  C   C24       1.0  0.38999  0.76542  0.20738  1.0000
  C   C25       1.0  0.43271  0.20776  0.98678  1.0000
  C   C26       1.0  0.93272  0.20775  0.51322  1.0000
  C   C27       1.0  0.56729  0.79225  0.01322  1.0000
  C   C28       1.0  0.06728  0.79225  0.48678  1.0000
  C   C29       1.0  0.47519  0.28630  0.03774  1.0000
  C   C30       1.0  0.97519  0.28630  0.46225  1.0000
  C   C31       1.0  0.52481  0.71370  0.96225  1.0000
  C   C32       1.0  0.02480  0.71370  0.53775  1.0000
  C   C33       1.0  0.63955  0.37158  0.04245  1.0000
  C   C34       1.0  0.13955  0.37158  0.45755  1.0000
  C   C35       1.0  0.36046  0.62842  0.95755  1.0000
  C   C36       1.0  0.86045  0.62842  0.54245  1.0000
  C   C37       1.0  0.75554  0.37441  0.99696  1.0000
  C   C38       1.0  0.25554  0.37442  0.50304  1.0000
  C   C39       1.0  0.24446  0.62558  0.00304  1.0000
  C   C40       1.0  0.74446  0.62558  0.49696  1.0000
  C   C41       1.0  0.70091  0.29226  0.94839  1.0000
  C   C42       1.0  0.20092  0.29226  0.55161  1.0000
  C   C43       1.0  0.29908  0.70774  0.05161  1.0000
  C   C44       1.0  0.79908  0.70774  0.44839  1.0000
  S   S1        1.0  0.13821  0.21232  0.87023  1.0000
  S   S2        1.0  0.63822  0.21232  0.62977  1.0000
  S   S3        1.0  0.86179  0.78768  0.12977  1.0000
  S   S4        1.0  0.36179  0.78768  0.37023  1.0000
  S   S5        1.0  0.22207  0.09879  0.98222  1.0000
  S   S6        1.0  0.72208  0.09879  0.51778  1.0000
  S   S7        1.0  0.77793  0.90121  0.01778  1.0000
  S   S8        1.0  0.27793  0.90121  0.48222  1.0000
  Br  Br1       1.0  0.91447  0.62372  0.69649  1.0000
  Br  Br2       1.0  0.41448  0.62373  0.80351  1.0000
  Br  Br3       1.0  0.08553  0.37627  0.30351  1.0000
  Br  Br4       1.0  0.58552  0.37628  0.19649  1.0000
  Br  Br5       1.0  0.92071  0.66463  0.87678  1.0000
  Br  Br6       1.0  0.42071  0.66463  0.62322  1.0000
  Br  Br7       1.0  0.07928  0.33537  0.12322  1.0000
  Br  Br8       1.0  0.57929  0.33537  0.37678  1.0000
  N   N1        1.0  0.10630  0.26612  0.76278  1.0000
  N   N2        1.0  0.60631  0.26612  0.73722  1.0000
  N   N3        1.0  0.89370  0.73388  0.23722  1.0000
  N   N4        1.0  0.39370  0.73389  0.26278  1.0000
  N   N5        1.0  0.54195  0.21012  0.94286  1.0000
  N   N6        1.0  0.04195  0.21011  0.55714  1.0000
  N   N7        1.0  0.45805  0.78988  0.05714  1.0000
  N   N8        1.0  0.95806  0.78988  0.44286  1.0000
