data_image0
_chemical_formula_structural       Hg4H20C22S4N4Cl8
_chemical_formula_sum              "Hg4 H20 C22 S4 N4 Cl8"
_cell_length_a       7.74631
_cell_length_b       9.10439
_cell_length_c       14.1685
_cell_angle_alpha    85.6209
_cell_angle_beta     79.6056
_cell_angle_gamma    64.7989

_space_group_name_H-M_alt    "P 1"
_space_group_IT_number       1

loop_
  _space_group_symop_operation_xyz
  'x, y, z'

loop_
  _atom_site_type_symbol
  _atom_site_label
  _atom_site_symmetry_multiplicity
  _atom_site_fract_x
  _atom_site_fract_y
  _atom_site_fract_z
  _atom_site_occupancy
  Hg  Hg1       1.0  0.03234  0.93085  0.87622  1.0000
  Hg  Hg2       1.0  0.96312  0.06899  0.37621  1.0000
  Hg  Hg3       1.0  0.96767  0.06914  0.12378  1.0000
  Hg  Hg4       1.0  0.03688  0.93101  0.62380  1.0000
  H   H1        1.0  0.44767  0.33590  0.74551  1.0000
  H   H2        1.0  0.78325  0.66403  0.24569  1.0000
  H   H3        1.0  0.55233  0.66410  0.25449  1.0000
  H   H4        1.0  0.21675  0.33597  0.75431  1.0000
  H   H5        1.0  0.61755  0.34633  0.86086  1.0000
  H   H6        1.0  0.96361  0.65340  0.36086  1.0000
  H   H7        1.0  0.38246  0.65367  0.13914  1.0000
  H   H8        1.0  0.03638  0.34661  0.63914  1.0000
  H   H9        1.0  0.86475  0.43898  0.88429  1.0000
  H   H10       1.0  0.30345  0.56064  0.38449  1.0000
  H   H11       1.0  0.13526  0.56101  0.11571  1.0000
  H   H12       1.0  0.69654  0.43936  0.61551  1.0000
  H   H13       1.0  0.76555  0.73943  0.90728  1.0000
  H   H14       1.0  0.50471  0.26022  0.40757  1.0000
  H   H15       1.0  0.23446  0.26056  0.09272  1.0000
  H   H16       1.0  0.49528  0.73979  0.59243  1.0000
  H   H17       1.0  0.42048  0.93164  0.90225  1.0000
  H   H18       1.0  0.35196  0.06811  0.40237  1.0000
  H   H19       1.0  0.57954  0.06836  0.09774  1.0000
  H   H20       1.0  0.64804  0.93189  0.59762  1.0000
  C   C1        1.0  0.29276  0.41481  0.74996  1.0000
  C   C2        1.0  0.70724  0.58519  0.25004  1.0000
  C   C3        1.0  0.38896  0.58989  0.86702  1.0000
  C   C4        1.0  0.97863  0.40990  0.36701  1.0000
  C   C5        1.0  0.61105  0.41011  0.13298  1.0000
  C   C6        1.0  0.02136  0.59010  0.63299  1.0000
  C   C7        1.0  0.57918  0.47546  0.86814  1.0000
  C   C8        1.0  0.05438  0.52428  0.36818  1.0000
  C   C9        1.0  0.42083  0.52454  0.13186  1.0000
  C   C10       1.0  0.94561  0.47573  0.63182  1.0000
  C   C11       1.0  0.71740  0.52852  0.88119  1.0000
  C   C12       1.0  0.24568  0.47115  0.38132  1.0000
  C   C13       1.0  0.28261  0.47148  0.11881  1.0000
  C   C14       1.0  0.75431  0.52886  0.61868  1.0000
  C   C15       1.0  0.66326  0.69333  0.89460  1.0000
  C   C16       1.0  0.35634  0.30634  0.39477  1.0000
  C   C17       1.0  0.33675  0.30667  0.10540  1.0000
  C   C18       1.0  0.64365  0.69367  0.60523  1.0000
  C   C19       1.0  0.47223  0.80119  0.89254  1.0000
  C   C20       1.0  0.27324  0.19854  0.39264  1.0000
  C   C21       1.0  0.52778  0.19881  0.10746  1.0000
  C   C22       1.0  0.72675  0.80147  0.60736  1.0000
  S   S1        1.0  0.20007  0.53376  0.85983  1.0000
  S   S2        1.0  0.73359  0.46605  0.35978  1.0000
  S   S3        1.0  0.79994  0.46623  0.14017  1.0000
  S   S4        1.0  0.26641  0.53395  0.64022  1.0000
  N   N1        1.0  0.33961  0.74996  0.87797  1.0000
  N   N2        1.0  0.08939  0.24981  0.37799  1.0000
  N   N3        1.0  0.66040  0.25003  0.12203  1.0000
  N   N4        1.0  0.91060  0.75019  0.62201  1.0000
  Cl  Cl1       1.0  0.73075  0.04600  0.81515  1.0000
  Cl  Cl2       1.0  0.77684  0.95375  0.31514  1.0000
  Cl  Cl3       1.0  0.26925  0.95400  0.18485  1.0000
  Cl  Cl4       1.0  0.22316  0.04625  0.68486  1.0000
  Cl  Cl5       1.0  0.08741  0.16996  0.94570  1.0000
  Cl  Cl6       1.0  0.25739  0.82979  0.44565  1.0000
  Cl  Cl7       1.0  0.91260  0.83003  0.05430  1.0000
  Cl  Cl8       1.0  0.74260  0.17021  0.55435  1.0000
