data_image0
_chemical_formula_structural       Cd2P4H64C62Cl4O4
_chemical_formula_sum              "Cd2 P4 H64 C62 Cl4 O4"
_cell_length_a       10.1137
_cell_length_b       11.1708
_cell_length_c       13.7334
_cell_angle_alpha    90
_cell_angle_beta     90.0004
_cell_angle_gamma    108.366

_space_group_name_H-M_alt    "P 1"
_space_group_IT_number       1

loop_
  _space_group_symop_operation_xyz
  'x, y, z'

loop_
  _atom_site_type_symbol
  _atom_site_label
  _atom_site_symmetry_multiplicity
  _atom_site_fract_x
  _atom_site_fract_y
  _atom_site_fract_z
  _atom_site_occupancy
  Cd  Cd1       1.0  0.88388  0.79222  0.74886  1.0000
  Cd  Cd2       1.0  0.11612  0.20778  0.24886  1.0000
  P   P1        1.0  0.26221  0.16970  0.10081  1.0000
  P   P2        1.0  0.73779  0.83030  0.60081  1.0000
  P   P3        1.0  0.77816  0.87867  0.89350  1.0000
  P   P4        1.0  0.22184  0.12133  0.39350  1.0000
  H   H1        1.0  0.09509  0.33189  0.06027  1.0000
  H   H2        1.0  0.90491  0.66811  0.56027  1.0000
  H   H3        1.0  0.02552  0.41404  0.90696  1.0000
  H   H4        1.0  0.97448  0.58596  0.40696  1.0000
  H   H5        1.0  0.10518  0.35917  0.74753  1.0000
  H   H6        1.0  0.89483  0.64083  0.24754  1.0000
  H   H7        1.0  0.25862  0.22267  0.74023  1.0000
  H   H8        1.0  0.74138  0.77732  0.24022  1.0000
  H   H9        1.0  0.32783  0.13976  0.89198  1.0000
  H   H10       1.0  0.67217  0.86024  0.39197  1.0000
  H   H11       1.0  0.41177  0.36252  0.23631  1.0000
  H   H12       1.0  0.58824  0.63748  0.73631  1.0000
  H   H13       1.0  0.65980  0.44866  0.28272  1.0000
  H   H14       1.0  0.34021  0.55135  0.78272  1.0000
  H   H15       1.0  0.83897  0.37730  0.19542  1.0000
  H   H16       1.0  0.16104  0.62270  0.69542  1.0000
  H   H17       1.0  0.76739  0.22521  0.05858  1.0000
  H   H18       1.0  0.23261  0.77479  0.55859  1.0000
  H   H19       1.0  0.52076  0.13894  0.01123  1.0000
  H   H20       1.0  0.47924  0.86106  0.51123  1.0000
  H   H21       1.0  0.31044  0.99621  0.01328  1.0000
  H   H22       1.0  0.68955  0.00379  0.51328  1.0000
  H   H23       1.0  0.31216  0.98321  0.14189  1.0000
  H   H24       1.0  0.68784  0.01678  0.64189  1.0000
  H   H25       1.0  0.04739  0.92132  0.14188  1.0000
  H   H26       1.0  0.95261  0.07868  0.64188  1.0000
  H   H27       1.0  0.09864  0.93603  0.92224  1.0000
  H   H28       1.0  0.90136  0.06397  0.42223  1.0000
  H   H29       1.0  0.21694  0.79137  0.90256  1.0000
  H   H30       1.0  0.78306  0.20863  0.40256  1.0000
  H   H31       1.0  0.10091  0.64186  0.86809  1.0000
  H   H32       1.0  0.89908  0.35814  0.36809  1.0000
  H   H33       1.0  0.23178  0.65227  0.95841  1.0000
  H   H34       1.0  0.76822  0.34773  0.45841  1.0000
  H   H35       1.0  0.03431  0.53231  0.08622  1.0000
  H   H36       1.0  0.96569  0.46770  0.58622  1.0000
  H   H37       1.0  0.91333  0.51741  0.98766  1.0000
  H   H38       1.0  0.08667  0.48259  0.48766  1.0000
  H   H39       1.0  0.88975  0.59086  0.09769  1.0000
  H   H40       1.0  0.11025  0.40913  0.59769  1.0000
  H   H41       1.0  0.95466  0.06036  0.96262  1.0000
  H   H42       1.0  0.04534  0.93964  0.46262  1.0000
  H   H43       1.0  0.86246  0.95648  0.05482  1.0000
  H   H44       1.0  0.13754  0.04352  0.55482  1.0000
  H   H45       1.0  0.56744  0.89019  0.03928  1.0000
  H   H46       1.0  0.43256  0.10982  0.53928  1.0000
  H   H47       1.0  0.37774  0.72227  0.11943  1.0000
  H   H48       1.0  0.62227  0.27773  0.61943  1.0000
  H   H49       1.0  0.35272  0.49766  0.09186  1.0000
  H   H50       1.0  0.64728  0.50235  0.59186  1.0000
  H   H51       1.0  0.51519  0.43813  0.97791  1.0000
  H   H52       1.0  0.48481  0.56188  0.47791  1.0000
  H   H53       1.0  0.70022  0.60496  0.89273  1.0000
  H   H54       1.0  0.29978  0.39504  0.39274  1.0000
  H   H55       1.0  0.88215  0.15403  0.86083  1.0000
  H   H56       1.0  0.11785  0.84597  0.36083  1.0000
  H   H57       1.0  0.76756  0.30635  0.80435  1.0000
  H   H58       1.0  0.23243  0.69365  0.30435  1.0000
  H   H59       1.0  0.51451  0.23375  0.76626  1.0000
  H   H60       1.0  0.48548  0.76625  0.26626  1.0000
  H   H61       1.0  0.37810  0.00430  0.77729  1.0000
  H   H62       1.0  0.62189  0.99569  0.27729  1.0000
  H   H63       1.0  0.49074  0.85249  0.83740  1.0000
  H   H64       1.0  0.50926  0.14751  0.33741  1.0000
  C   C1        1.0  0.21651  0.23009  0.98659  1.0000
  C   C2        1.0  0.78349  0.76991  0.48659  1.0000
  C   C3        1.0  0.13113  0.30788  0.99019  1.0000
  C   C4        1.0  0.86887  0.69212  0.49019  1.0000
  C   C5        1.0  0.09266  0.35470  0.90421  1.0000
  C   C6        1.0  0.90734  0.64530  0.40421  1.0000
  C   C7        1.0  0.13837  0.32437  0.81432  1.0000
  C   C8        1.0  0.86164  0.67564  0.31432  1.0000
  C   C9        1.0  0.22392  0.24772  0.81028  1.0000
  C   C10       1.0  0.77608  0.75228  0.31028  1.0000
  C   C11       1.0  0.26261  0.20069  0.89608  1.0000
  C   C12       1.0  0.73739  0.79931  0.39608  1.0000
  C   C13       1.0  0.48948  0.33217  0.19705  1.0000
  C   C14       1.0  0.51053  0.66783  0.69704  1.0000
  C   C15       1.0  0.62971  0.38124  0.22299  1.0000
  C   C16       1.0  0.37030  0.61877  0.72298  1.0000
  C   C17       1.0  0.72973  0.34216  0.17382  1.0000
  C   C18       1.0  0.27027  0.65784  0.67382  1.0000
  C   C19       1.0  0.68960  0.25615  0.09695  1.0000
  C   C20       1.0  0.31040  0.74386  0.59695  1.0000
  C   C21       1.0  0.54976  0.20689  0.07073  1.0000
  C   C22       1.0  0.45024  0.79312  0.57073  1.0000
  C   C23       1.0  0.44811  0.24332  0.12176  1.0000
  C   C24       1.0  0.55189  0.75668  0.62176  1.0000
  C   C25       1.0  0.25392  0.00454  0.08014  1.0000
  C   C26       1.0  0.74608  0.99546  0.58014  1.0000
  C   C27       1.0  0.10923  0.90689  0.07929  1.0000
  C   C28       1.0  0.89077  0.09311  0.57929  1.0000
  C   C29       1.0  0.02671  0.89950  0.98375  1.0000
  C   C30       1.0  0.97328  0.10051  0.48375  1.0000
  C   C31       1.0  0.05473  0.70483  0.00817  1.0000
  C   C32       1.0  0.94527  0.29517  0.50817  1.0000
  C   C33       1.0  0.15805  0.69719  0.92957  1.0000
  C   C34       1.0  0.84195  0.30281  0.42957  1.0000
  C   C35       1.0  0.96823  0.57785  0.04748  1.0000
  C   C36       1.0  0.03177  0.42215  0.54748  1.0000
  C   C37       1.0  0.91197  0.96072  0.98306  1.0000
  C   C38       1.0  0.08803  0.03928  0.48306  1.0000
  C   C39       1.0  0.64537  0.75844  0.95976  1.0000
  C   C40       1.0  0.35463  0.24156  0.45976  1.0000
  C   C41       1.0  0.55611  0.79123  0.02543  1.0000
  C   C42       1.0  0.44389  0.20878  0.52544  1.0000
  C   C43       1.0  0.45062  0.69688  0.07170  1.0000
  C   C44       1.0  0.54938  0.30312  0.57170  1.0000
  C   C45       1.0  0.43567  0.56992  0.05480  1.0000
  C   C46       1.0  0.56433  0.43008  0.55480  1.0000
  C   C47       1.0  0.52586  0.53702  0.99084  1.0000
  C   C48       1.0  0.47414  0.46297  0.49085  1.0000
  C   C49       1.0  0.63002  0.63093  0.94291  1.0000
  C   C50       1.0  0.36997  0.36907  0.44291  1.0000
  C   C51       1.0  0.69354  0.99293  0.85693  1.0000
  C   C52       1.0  0.30646  0.00707  0.35694  1.0000
  C   C53       1.0  0.77095  0.12064  0.84517  1.0000
  C   C54       1.0  0.22905  0.87936  0.34518  1.0000
  C   C55       1.0  0.70672  0.20709  0.81290  1.0000
  C   C56       1.0  0.29328  0.79291  0.31290  1.0000
  C   C57       1.0  0.56487  0.16599  0.79048  1.0000
  C   C58       1.0  0.43513  0.83401  0.29048  1.0000
  C   C59       1.0  0.48802  0.03806  0.79785  1.0000
  C   C60       1.0  0.51198  0.96194  0.29786  1.0000
  C   C61       1.0  0.55170  0.95183  0.83131  1.0000
  C   C62       1.0  0.44830  0.04817  0.33131  1.0000
  Cl  Cl1       1.0  0.85739  0.56322  0.74780  1.0000
  Cl  Cl2       1.0  0.14261  0.43678  0.24780  1.0000
  Cl  Cl3       1.0  0.12578  0.92835  0.72241  1.0000
  Cl  Cl4       1.0  0.87421  0.07165  0.22241  1.0000
  O   O1        1.0  0.96025  0.76653  0.97210  1.0000
  O   O2        1.0  0.03975  0.23347  0.47210  1.0000
  O   O3        1.0  0.12581  0.78376  0.08827  1.0000
  O   O4        1.0  0.87419  0.21624  0.58827  1.0000
