data_image0
_chemical_formula_structural       Cu4Mo8H32C32N16O26
_chemical_formula_sum              "Cu4 Mo8 H32 C32 N16 O26"
_cell_length_a       10.6204
_cell_length_b       11.6033
_cell_length_c       12.0664
_cell_angle_alpha    93.9094
_cell_angle_beta     115.91
_cell_angle_gamma    97.5955

_space_group_name_H-M_alt    "P 1"
_space_group_IT_number       1

loop_
  _space_group_symop_operation_xyz
  'x, y, z'

loop_
  _atom_site_type_symbol
  _atom_site_label
  _atom_site_symmetry_multiplicity
  _atom_site_fract_x
  _atom_site_fract_y
  _atom_site_fract_z
  _atom_site_occupancy
  Cu  Cu1       1.0  0.16494  0.25325  0.13533  1.0000
  Cu  Cu2       1.0  0.83506  0.74675  0.86467  1.0000
  Cu  Cu3       1.0  0.12324  0.51152  0.30874  1.0000
  Cu  Cu4       1.0  0.87676  0.48848  0.69126  1.0000
  Mo  Mo1       1.0  0.37873  0.75117  0.97354  1.0000
  Mo  Mo2       1.0  0.62127  0.24884  0.02646  1.0000
  Mo  Mo3       1.0  0.64150  0.96577  0.13416  1.0000
  Mo  Mo4       1.0  0.35851  0.03423  0.86584  1.0000
  Mo  Mo5       1.0  0.28522  0.98077  0.09244  1.0000
  Mo  Mo6       1.0  0.71478  0.01923  0.90756  1.0000
  Mo  Mo7       1.0  0.54673  0.19977  0.26282  1.0000
  Mo  Mo8       1.0  0.45328  0.80023  0.73718  1.0000
  H   H1        1.0  0.22999  0.54064  0.57349  1.0000
  H   H2        1.0  0.77001  0.45936  0.42650  1.0000
  H   H3        1.0  0.94695  0.28379  0.28175  1.0000
  H   H4        1.0  0.05305  0.71621  0.71825  1.0000
  H   H5        1.0  0.89586  0.16521  0.42509  1.0000
  H   H6        1.0  0.10414  0.83478  0.57491  1.0000
  H   H7        1.0  0.02003  0.23945  0.65591  1.0000
  H   H8        1.0  0.97997  0.76055  0.34409  1.0000
  H   H9        1.0  0.32434  0.42647  0.80752  1.0000
  H   H10       1.0  0.67566  0.57353  0.19248  1.0000
  H   H11       1.0  0.22949  0.54458  0.77533  1.0000
  H   H12       1.0  0.77051  0.45542  0.22467  1.0000
  H   H13       1.0  0.90879  0.36904  0.93256  1.0000
  H   H14       1.0  0.09121  0.63096  0.06744  1.0000
  H   H15       1.0  0.32451  0.34325  0.98733  1.0000
  H   H16       1.0  0.67549  0.65675  0.01267  1.0000
  H   H17       1.0  0.34704  0.29219  0.40600  1.0000
  H   H18       1.0  0.65296  0.70781  0.59400  1.0000
  H   H19       1.0  0.99588  0.05158  0.14910  1.0000
  H   H20       1.0  0.00412  0.94842  0.85089  1.0000
  H   H21       1.0  0.00904  0.92393  0.30731  1.0000
  H   H22       1.0  0.99096  0.07606  0.69269  1.0000
  H   H23       1.0  0.21152  0.98013  0.52697  1.0000
  H   H24       1.0  0.78848  0.01987  0.47303  1.0000
  H   H25       1.0  0.36087  0.18138  0.67671  1.0000
  H   H26       1.0  0.63913  0.81862  0.32329  1.0000
  H   H27       1.0  0.47398  0.10416  0.64118  1.0000
  H   H28       1.0  0.52602  0.89585  0.35882  1.0000
  H   H29       1.0  0.70079  0.23079  0.65764  1.0000
  H   H30       1.0  0.29921  0.76921  0.34236  1.0000
  H   H31       1.0  0.58463  0.56009  0.69312  1.0000
  H   H32       1.0  0.41537  0.43991  0.30688  1.0000
  C   C1        1.0  0.15712  0.45664  0.54480  1.0000
  C   C2        1.0  0.84288  0.54336  0.45520  1.0000
  C   C3        1.0  0.99965  0.31281  0.38161  1.0000
  C   C4        1.0  0.00035  0.68719  0.61839  1.0000
  C   C5        1.0  0.97220  0.24707  0.46298  1.0000
  C   C6        1.0  0.02780  0.75292  0.53702  1.0000
  C   C7        1.0  0.04012  0.28878  0.59003  1.0000
  C   C8        1.0  0.95988  0.71121  0.40997  1.0000
  C   C9        1.0  0.13437  0.39590  0.63223  1.0000
  C   C10       1.0  0.86562  0.60410  0.36777  1.0000
  C   C11       1.0  0.21687  0.44847  0.76723  1.0000
  C   C12       1.0  0.78313  0.55153  0.23277  1.0000
  C   C13       1.0  0.00507  0.37599  0.92067  1.0000
  C   C14       1.0  0.99493  0.62401  0.07933  1.0000
  C   C15       1.0  0.21681  0.36111  0.95102  1.0000
  C   C16       1.0  0.78319  0.63889  0.04898  1.0000
  C   C17       1.0  0.27594  0.20917  0.38842  1.0000
  C   C18       1.0  0.72406  0.79083  0.61158  1.0000
  C   C19       1.0  0.07792  0.07572  0.24466  1.0000
  C   C20       1.0  0.92208  0.92428  0.75534  1.0000
  C   C21       1.0  0.08841  0.00336  0.33419  1.0000
  C   C22       1.0  0.91159  0.99664  0.66581  1.0000
  C   C23       1.0  0.19815  0.03504  0.45412  1.0000
  C   C24       1.0  0.80185  0.96496  0.54588  1.0000
  C   C25       1.0  0.29420  0.14045  0.48227  1.0000
  C   C26       1.0  0.70580  0.85955  0.51773  1.0000
  C   C27       1.0  0.40996  0.17364  0.61390  1.0000
  C   C28       1.0  0.59004  0.82637  0.38610  1.0000
  C   C29       1.0  0.64283  0.30066  0.65875  1.0000
  C   C30       1.0  0.35717  0.69934  0.34125  1.0000
  C   C31       1.0  0.57989  0.46628  0.67432  1.0000
  C   C32       1.0  0.42011  0.53372  0.32569  1.0000
  N   N1        1.0  0.09161  0.41667  0.42157  1.0000
  N   N2        1.0  0.90839  0.58333  0.57843  1.0000
  N   N3        1.0  0.15382  0.40783  0.84644  1.0000
  N   N4        1.0  0.84618  0.59217  0.15356  1.0000
  N   N5        1.0  0.01835  0.41884  0.82582  1.0000
  N   N6        1.0  0.98165  0.58116  0.17418  1.0000
  N   N7        1.0  0.12580  0.34034  0.00017  1.0000
  N   N8        1.0  0.87420  0.65966  0.99983  1.0000
  N   N9        1.0  0.17042  0.17721  0.27103  1.0000
  N   N10       1.0  0.82958  0.82279  0.72897  1.0000
  N   N11       1.0  0.50654  0.28335  0.63861  1.0000
  N   N12       1.0  0.49346  0.71665  0.36139  1.0000
  N   N13       1.0  0.46470  0.38813  0.64895  1.0000
  N   N14       1.0  0.53530  0.61187  0.35105  1.0000
  N   N15       1.0  0.69286  0.41646  0.68124  1.0000
  N   N16       1.0  0.30714  0.58354  0.31877  1.0000
  O   O1        1.0  0.22643  0.67980  0.97343  1.0000
  O   O2        1.0  0.77357  0.32020  0.02657  1.0000
  O   O3        1.0  0.49721  0.65694  0.02812  1.0000
  O   O4        1.0  0.50278  0.34306  0.97188  1.0000
  O   O5        1.0  0.46358  0.87154  0.12288  1.0000
  O   O6        1.0  0.53643  0.12846  0.87712  1.0000
  O   O7        1.0  0.26079  0.91812  0.92424  1.0000
  O   O8        1.0  0.73921  0.08188  0.07576  1.0000
  O   O9        1.0  0.46630  0.09474  0.05190  1.0000
  O   O10       1.0  0.53370  0.90527  0.94810  1.0000
  O   O11       1.0  0.32768  0.72875  0.80051  1.0000
  O   O12       1.0  0.67232  0.27125  0.19949  1.0000
  O   O13       1.0  0.67356  0.05987  0.27071  1.0000
  O   O14       1.0  0.32644  0.94013  0.72929  1.0000
  O   O15       1.0  0.19408  0.87046  0.13023  1.0000
  O   O16       1.0  0.80591  0.12955  0.86976  1.0000
  O   O17       1.0  0.41927  0.05968  0.25276  1.0000
  O   O18       1.0  0.58073  0.94032  0.74724  1.0000
  O   O19       1.0  0.17302  0.08195  0.04036  1.0000
  O   O20       1.0  0.82698  0.91805  0.95964  1.0000
  O   O21       1.0  0.41626  0.28630  0.20337  1.0000
  O   O22       1.0  0.58374  0.71370  0.79663  1.0000
  O   O23       1.0  0.63916  0.24982  0.41899  1.0000
  O   O24       1.0  0.36085  0.75018  0.58101  1.0000
  O   O25       1.0  0.75656  0.86980  0.18835  1.0000
  O   O26       1.0  0.24344  0.13020  0.81164  1.0000
