data_image0
_chemical_formula_structural       NiMo8H22C16N8O28
_chemical_formula_sum              "Ni1 Mo8 H22 C16 N8 O28"
_cell_length_a       9.83839
_cell_length_b       10.1975
_cell_length_c       10.5244
_cell_angle_alpha    107.922
_cell_angle_beta     91.1456
_cell_angle_gamma    116.206

_space_group_name_H-M_alt    "P 1"
_space_group_IT_number       1

loop_
  _space_group_symop_operation_xyz
  'x, y, z'

loop_
  _atom_site_type_symbol
  _atom_site_label
  _atom_site_symmetry_multiplicity
  _atom_site_fract_x
  _atom_site_fract_y
  _atom_site_fract_z
  _atom_site_occupancy
  Ni  Ni1       1.0  1.00000  0.00000  0.00000  1.0000
  Mo  Mo1       1.0  0.80906  0.71881  0.63661  1.0000
  Mo  Mo2       1.0  0.19094  0.28119  0.36339  1.0000
  Mo  Mo3       1.0  0.48633  0.52891  0.78277  1.0000
  Mo  Mo4       1.0  0.51367  0.47109  0.21723  1.0000
  Mo  Mo5       1.0  0.26955  0.15863  0.59596  1.0000
  Mo  Mo6       1.0  0.73045  0.84138  0.40404  1.0000
  Mo  Mo7       1.0  0.58442  0.36452  0.45727  1.0000
  Mo  Mo8       1.0  0.41558  0.63548  0.54273  1.0000
  H   H1        1.0  0.53745  0.22405  0.92955  1.0000
  H   H2        1.0  0.46255  0.77595  0.07045  1.0000
  H   H3        1.0  0.50326  0.06378  0.77904  1.0000
  H   H4        1.0  0.49673  0.93622  0.22096  1.0000
  H   H5        1.0  0.79380  0.10956  0.21975  1.0000
  H   H6        1.0  0.20620  0.89044  0.78025  1.0000
  H   H7        1.0  0.67341  0.10055  0.60713  1.0000
  H   H8        1.0  0.32659  0.89945  0.39287  1.0000
  H   H9        1.0  0.01767  0.64236  0.90648  1.0000
  H   H10       1.0  0.98233  0.35764  0.09352  1.0000
  H   H11       1.0  0.79278  0.47620  0.99121  1.0000
  H   H12       1.0  0.20722  0.52380  0.00879  1.0000
  H   H13       1.0  0.06739  0.52038  0.67445  1.0000
  H   H14       1.0  0.93260  0.47961  0.32555  1.0000
  H   H15       1.0  0.77223  0.00713  0.79700  1.0000
  H   H16       1.0  0.22777  0.99286  0.20301  1.0000
  H   H17       1.0  0.89395  0.26611  0.54467  1.0000
  H   H18       1.0  0.10605  0.73388  0.45533  1.0000
  H   H19       1.0  0.79949  0.74815  0.02782  1.0000
  H   H20       1.0  0.20051  0.25185  0.97218  1.0000
  H   H21       1.0  0.90727  0.83749  0.17504  1.0000
  H   H22       1.0  0.09273  0.16251  0.82496  1.0000
  C   C1        1.0  0.59184  0.16473  0.86174  1.0000
  C   C2        1.0  0.40816  0.83527  0.13826  1.0000
  C   C3        1.0  0.76375  0.09822  0.11558  1.0000
  C   C4        1.0  0.23625  0.90179  0.88442  1.0000
  C   C5        1.0  0.74590  0.21770  0.67973  1.0000
  C   C6        1.0  0.25410  0.78230  0.32027  1.0000
  C   C7        1.0  0.71687  0.27424  0.80826  1.0000
  C   C8        1.0  0.28313  0.72576  0.19175  1.0000
  C   C9        1.0  0.94152  0.52141  0.84427  1.0000
  C   C10       1.0  0.05848  0.47859  0.15572  1.0000
  C   C11       1.0  0.81536  0.42940  0.89062  1.0000
  C   C12       1.0  0.18464  0.57060  0.10938  1.0000
  C   C13       1.0  0.96959  0.45794  0.71728  1.0000
  C   C14       1.0  0.03041  0.54205  0.28272  1.0000
  C   C15       1.0  0.75440  0.04413  0.90068  1.0000
  C   C16       1.0  0.24560  0.95587  0.09932  1.0000
  N   N1        1.0  0.66843  0.14572  0.07890  1.0000
  N   N2        1.0  0.33157  0.85429  0.92110  1.0000
  N   N3        1.0  0.87051  0.30968  0.63948  1.0000
  N   N4        1.0  0.12949  0.69032  0.36052  1.0000
  N   N5        1.0  0.81977  0.03539  0.00827  1.0000
  N   N6        1.0  0.18023  0.96461  0.99173  1.0000
  N   N7        1.0  0.66451  0.11047  0.94248  1.0000
  N   N8        1.0  0.33549  0.88953  0.05752  1.0000
  O   O1        1.0  0.95626  0.69713  0.56516  1.0000
  O   O2        1.0  0.04374  0.30287  0.43484  1.0000
  O   O3        1.0  0.11898  0.17615  0.66816  1.0000
  O   O4        1.0  0.88102  0.82386  0.33184  1.0000
  O   O5        1.0  0.62591  0.62155  0.92736  1.0000
  O   O6        1.0  0.37410  0.37845  0.07263  1.0000
  O   O7        1.0  0.47996  0.19484  0.49745  1.0000
  O   O8        1.0  0.52004  0.80516  0.50255  1.0000
  O   O9        1.0  0.25492  0.98701  0.60281  1.0000
  O   O10       1.0  0.74508  0.01299  0.39719  1.0000
  O   O11       1.0  0.32534  0.53260  0.83676  1.0000
  O   O12       1.0  0.67466  0.46740  0.16324  1.0000
  O   O13       1.0  0.55762  0.69630  0.70543  1.0000
  O   O14       1.0  0.44238  0.30370  0.29456  1.0000
  O   O15       1.0  0.88605  0.82058  0.80846  1.0000
  O   O16       1.0  0.11395  0.17942  0.19154  1.0000
  O   O17       1.0  0.73566  0.34543  0.39478  1.0000
  O   O18       1.0  0.26435  0.65457  0.60523  1.0000
  O   O19       1.0  0.62852  0.58637  0.44776  1.0000
  O   O20       1.0  0.37148  0.41362  0.55224  1.0000
  O   O21       1.0  0.68280  0.50886  0.64304  1.0000
  O   O22       1.0  0.31720  0.49114  0.35696  1.0000
  O   O23       1.0  0.43281  0.31515  0.74453  1.0000
  O   O24       1.0  0.56719  0.68485  0.25547  1.0000
  O   O25       1.0  0.90763  0.82093  0.07675  1.0000
  O   O26       1.0  0.09237  0.17907  0.92325  1.0000
  O   O27       1.0  0.80799  0.88489  0.58968  1.0000
  O   O28       1.0  0.19201  0.11510  0.41032  1.0000
