data_image0
_chemical_formula_structural       Hg2H26C34N10Cl4O4
_chemical_formula_sum              "Hg2 H26 C34 N10 Cl4 O4"
_cell_length_a       8.19048
_cell_length_b       10.2632
_cell_length_c       12.8169
_cell_angle_alpha    106.938
_cell_angle_beta     105.242
_cell_angle_gamma    91.6743

_space_group_name_H-M_alt    "P 1"
_space_group_IT_number       1

loop_
  _space_group_symop_operation_xyz
  'x, y, z'

loop_
  _atom_site_type_symbol
  _atom_site_label
  _atom_site_symmetry_multiplicity
  _atom_site_fract_x
  _atom_site_fract_y
  _atom_site_fract_z
  _atom_site_occupancy
  Hg  Hg1       1.0  0.85580  0.34153  0.05788  1.0000
  Hg  Hg2       1.0  0.14419  0.65848  0.94212  1.0000
  H   H1        1.0  0.82071  0.40907  0.49725  1.0000
  H   H2        1.0  0.17927  0.59093  0.50274  1.0000
  H   H3        1.0  0.69873  0.77998  0.89850  1.0000
  H   H4        1.0  0.30130  0.22003  0.10152  1.0000
  H   H5        1.0  0.90345  0.26201  0.79823  1.0000
  H   H6        1.0  0.09655  0.73797  0.20176  1.0000
  H   H7        1.0  0.66204  0.49974  0.58363  1.0000
  H   H8        1.0  0.33796  0.50026  0.41637  1.0000
  H   H9        1.0  0.63461  0.57425  0.92681  1.0000
  H   H10       1.0  0.36540  0.42572  0.07320  1.0000
  H   H11       1.0  0.06626  0.10499  0.47904  1.0000
  H   H12       1.0  0.93374  0.89502  0.52095  1.0000
  H   H13       1.0  0.14191  0.99451  0.30021  1.0000
  H   H14       1.0  0.85808  0.00549  0.69978  1.0000
  H   H15       1.0  0.06526  0.09838  0.14043  1.0000
  H   H16       1.0  0.93473  0.90163  0.85956  1.0000
  H   H17       1.0  0.85920  0.41399  0.32866  1.0000
  H   H18       1.0  0.14078  0.58600  0.67133  1.0000
  H   H19       1.0  0.31343  0.86783  0.70869  1.0000
  H   H20       1.0  0.68659  0.13217  0.29132  1.0000
  H   H21       1.0  0.24753  0.11231  0.75073  1.0000
  H   H22       1.0  0.75246  0.88768  0.24926  1.0000
  H   H23       1.0  0.45482  0.29398  0.90720  1.0000
  H   H24       1.0  0.54517  0.70601  0.09280  1.0000
  H   H25       1.0  0.77251  0.00760  0.98745  1.0000
  H   H26       1.0  0.22749  0.99242  0.01256  1.0000
  C   C1        1.0  0.82496  0.34206  0.78263  1.0000
  C   C2        1.0  0.17503  0.65793  0.21736  1.0000
  C   C3        1.0  0.79383  0.36851  0.67824  1.0000
  C   C4        1.0  0.20617  0.63149  0.32175  1.0000
  C   C5        1.0  0.69672  0.47475  0.66330  1.0000
  C   C6        1.0  0.30326  0.52524  0.33670  1.0000
  C   C7        1.0  0.64143  0.55337  0.75382  1.0000
  C   C8        1.0  0.35859  0.44663  0.24619  1.0000
  C   C9        1.0  0.67880  0.51867  0.85488  1.0000
  C   C10       1.0  0.32122  0.48133  0.14514  1.0000
  C   C11       1.0  0.87709  0.28224  0.59549  1.0000
  C   C12       1.0  0.12293  0.71776  0.40450  1.0000
  C   C13       1.0  0.95472  0.26774  0.41838  1.0000
  C   C14       1.0  0.04527  0.73227  0.58161  1.0000
  C   C15       1.0  0.04002  0.14988  0.41037  1.0000
  C   C16       1.0  0.95996  0.85013  0.58962  1.0000
  C   C17       1.0  0.08218  0.08898  0.31018  1.0000
  C   C18       1.0  0.91782  0.91104  0.68981  1.0000
  C   C19       1.0  0.04075  0.14586  0.22183  1.0000
  C   C20       1.0  0.95924  0.85415  0.77816  1.0000
  C   C21       1.0  0.92420  0.32209  0.32696  1.0000
  C   C22       1.0  0.07579  0.67792  0.67304  1.0000
  C   C23       1.0  0.54755  0.67287  0.73968  1.0000
  C   C24       1.0  0.45249  0.32713  0.26033  1.0000
  C   C25       1.0  0.54626  0.91792  0.84633  1.0000
  C   C26       1.0  0.45374  0.08207  0.15368  1.0000
  C   C27       1.0  0.39819  0.94889  0.77786  1.0000
  C   C28       1.0  0.60182  0.05111  0.22214  1.0000
  C   C29       1.0  0.36308  0.08464  0.80069  1.0000
  C   C30       1.0  0.63690  0.91536  0.19932  1.0000
  C   C31       1.0  0.47736  0.18650  0.88853  1.0000
  C   C32       1.0  0.52263  0.81351  0.11147  1.0000
  C   C33       1.0  0.65455  0.02681  0.93332  1.0000
  C   C34       1.0  0.34545  0.97320  0.06668  1.0000
  N   N1        1.0  0.76714  0.41374  0.86791  1.0000
  N   N2        1.0  0.23286  0.58623  0.13209  1.0000
  N   N3        1.0  0.89217  0.33257  0.50963  1.0000
  N   N4        1.0  0.10782  0.66744  0.49037  1.0000
  N   N5        1.0  0.96545  0.26157  0.23157  1.0000
  N   N6        1.0  0.03453  0.73844  0.76842  1.0000
  N   N7        1.0  0.59448  0.78584  0.83460  1.0000
  N   N8        1.0  0.40553  0.21416  0.16541  1.0000
  N   N9        1.0  0.62096  0.15703  0.95262  1.0000
  N   N10       1.0  0.37904  0.84298  0.04738  1.0000
  Cl  Cl1       1.0  0.05886  0.20124  0.97043  1.0000
  Cl  Cl2       1.0  0.94116  0.79877  0.02958  1.0000
  Cl  Cl3       1.0  0.74541  0.53620  0.16720  1.0000
  Cl  Cl4       1.0  0.25460  0.46380  0.83281  1.0000
  O   O1        1.0  0.93301  0.17551  0.60808  1.0000
  O   O2        1.0  0.06699  0.82448  0.39190  1.0000
  O   O3        1.0  0.44385  0.66849  0.64828  1.0000
  O   O4        1.0  0.55617  0.33152  0.35172  1.0000
