data_image0
_chemical_formula_structural       Ca2H24C28N4O20
_chemical_formula_sum              "Ca2 H24 C28 N4 O20"
_cell_length_a       7.66507
_cell_length_b       10.1852
_cell_length_c       11.178
_cell_angle_alpha    81.312
_cell_angle_beta     81.7727
_cell_angle_gamma    89.8143

_space_group_name_H-M_alt    "P 1"
_space_group_IT_number       1

loop_
  _space_group_symop_operation_xyz
  'x, y, z'

loop_
  _atom_site_type_symbol
  _atom_site_label
  _atom_site_symmetry_multiplicity
  _atom_site_fract_x
  _atom_site_fract_y
  _atom_site_fract_z
  _atom_site_occupancy
  Ca  Ca1       1.0  0.23997  0.97277  0.04406  1.0000
  Ca  Ca2       1.0  0.76003  0.02723  0.95594  1.0000
  H   H1        1.0  0.98238  0.69239  0.79012  1.0000
  H   H2        1.0  0.01762  0.30761  0.20987  1.0000
  H   H3        1.0  0.92651  0.60894  0.60169  1.0000
  H   H4        1.0  0.07349  0.39106  0.39831  1.0000
  H   H5        1.0  0.04945  0.73332  0.39481  1.0000
  H   H6        1.0  0.95055  0.26669  0.60518  1.0000
  H   H7        1.0  0.22404  0.94268  0.38202  1.0000
  H   H8        1.0  0.77596  0.05732  0.61798  1.0000
  H   H9        1.0  0.38359  0.68642  0.78845  1.0000
  H   H10       1.0  0.61641  0.31358  0.21155  1.0000
  H   H11       1.0  0.57031  0.67426  0.58815  1.0000
  H   H12       1.0  0.42969  0.32574  0.41185  1.0000
  H   H13       1.0  0.68111  0.45354  0.54038  1.0000
  H   H14       1.0  0.31890  0.54646  0.45963  1.0000
  H   H15       1.0  0.59507  0.24861  0.68816  1.0000
  H   H16       1.0  0.40493  0.75139  0.31184  1.0000
  H   H17       1.0  0.14158  0.68740  0.10529  1.0000
  H   H18       1.0  0.85842  0.31260  0.89471  1.0000
  H   H19       1.0  0.97224  0.76984  0.12788  1.0000
  H   H20       1.0  0.02776  0.23016  0.87212  1.0000
  H   H21       1.0  0.46170  0.08922  0.19880  1.0000
  H   H22       1.0  0.53830  0.91077  0.80120  1.0000
  H   H23       1.0  0.27599  0.15153  0.23221  1.0000
  H   H24       1.0  0.72401  0.84847  0.76779  1.0000
  C   C1        1.0  0.13190  0.86479  0.69393  1.0000
  C   C2        1.0  0.86810  0.13521  0.30606  1.0000
  C   C3        1.0  0.03378  0.74731  0.70048  1.0000
  C   C4        1.0  0.96622  0.25269  0.29952  1.0000
  C   C5        1.0  0.00445  0.70003  0.59393  1.0000
  C   C6        1.0  0.99555  0.29997  0.40607  1.0000
  C   C7        1.0  0.07304  0.76859  0.47866  1.0000
  C   C8        1.0  0.92696  0.23141  0.52133  1.0000
  C   C9        1.0  0.17093  0.88542  0.47024  1.0000
  C   C10       1.0  0.82907  0.11458  0.52976  1.0000
  C   C11       1.0  0.19793  0.93208  0.57754  1.0000
  C   C12       1.0  0.80207  0.06793  0.42246  1.0000
  C   C13       1.0  0.16548  0.90779  0.81192  1.0000
  C   C14       1.0  0.83452  0.09221  0.18808  1.0000
  C   C15       1.0  0.38244  0.47494  0.84471  1.0000
  C   C16       1.0  0.61755  0.52506  0.15528  1.0000
  C   C17       1.0  0.42731  0.59134  0.76270  1.0000
  C   C18       1.0  0.57269  0.40866  0.23730  1.0000
  C   C19       1.0  0.53466  0.58362  0.65249  1.0000
  C   C20       1.0  0.46535  0.41638  0.34751  1.0000
  C   C21       1.0  0.59708  0.46041  0.62651  1.0000
  C   C22       1.0  0.40292  0.53959  0.37350  1.0000
  C   C23       1.0  0.55047  0.34510  0.70920  1.0000
  C   C24       1.0  0.44953  0.65490  0.29080  1.0000
  C   C25       1.0  0.44088  0.34990  0.81965  1.0000
  C   C26       1.0  0.55912  0.65010  0.18035  1.0000
  C   C27       1.0  0.38157  0.22050  0.89811  1.0000
  C   C28       1.0  0.61843  0.77949  0.10189  1.0000
  N   N1        1.0  0.29099  0.05975  0.56597  1.0000
  N   N2        1.0  0.70901  0.94025  0.43403  1.0000
  N   N3        1.0  0.28244  0.48889  0.96361  1.0000
  N   N4        1.0  0.71755  0.51110  0.03639  1.0000
  O   O1        1.0  0.37313  0.10662  0.46445  1.0000
  O   O2        1.0  0.62687  0.89338  0.53555  1.0000
  O   O3        1.0  0.27993  0.11625  0.65763  1.0000
  O   O4        1.0  0.72007  0.88375  0.34237  1.0000
  O   O5        1.0  0.03752  0.95129  0.87829  1.0000
  O   O6        1.0  0.96248  0.04871  0.12171  1.0000
  O   O7        1.0  0.31635  0.88821  0.84535  1.0000
  O   O8        1.0  0.68364  0.11179  0.15465  1.0000
  O   O9        1.0  0.18062  0.58448  0.96849  1.0000
  O   O10       1.0  0.81937  0.41552  0.03151  1.0000
  O   O11       1.0  0.30767  0.40822  0.05402  1.0000
  O   O12       1.0  0.69232  0.59178  0.94598  1.0000
  O   O13       1.0  0.21786  0.19725  0.92997  1.0000
  O   O14       1.0  0.78214  0.80275  0.07003  1.0000
  O   O15       1.0  0.49745  0.13617  0.92489  1.0000
  O   O16       1.0  0.50255  0.86383  0.07512  1.0000
  O   O17       1.0  0.09730  0.76398  0.14333  1.0000
  O   O18       1.0  0.90270  0.23602  0.85667  1.0000
  O   O19       1.0  0.33246  0.07351  0.20500  1.0000
  O   O20       1.0  0.66753  0.92649  0.79500  1.0000
