data_image0
_chemical_formula_structural       Cd2H36C38N4O8
_chemical_formula_sum              "Cd2 H36 C38 N4 O8"
_cell_length_a       9.90544
_cell_length_b       10.0186
_cell_length_c       11.2671
_cell_angle_alpha    66.4267
_cell_angle_beta     86.8779
_cell_angle_gamma    63.4331

_space_group_name_H-M_alt    "P 1"
_space_group_IT_number       1

loop_
  _space_group_symop_operation_xyz
  'x, y, z'

loop_
  _atom_site_type_symbol
  _atom_site_label
  _atom_site_symmetry_multiplicity
  _atom_site_fract_x
  _atom_site_fract_y
  _atom_site_fract_z
  _atom_site_occupancy
  Cd  Cd1       1.0  0.92886  0.83484  0.58806  1.0000
  Cd  Cd2       1.0  0.07113  0.16516  0.41194  1.0000
  H   H1        1.0  0.21726  0.75677  0.42723  1.0000
  H   H2        1.0  0.78274  0.24324  0.57277  1.0000
  H   H3        1.0  0.31692  0.64059  0.26065  1.0000
  H   H4        1.0  0.68308  0.35940  0.73935  1.0000
  H   H5        1.0  0.16107  0.54883  0.17275  1.0000
  H   H6        1.0  0.83893  0.45117  0.82725  1.0000
  H   H7        1.0  0.92460  0.52291  0.16646  1.0000
  H   H8        1.0  0.07540  0.47709  0.83355  1.0000
  H   H9        1.0  0.67564  0.56404  0.24052  1.0000
  H   H10       1.0  0.32435  0.43597  0.75948  1.0000
  H   H11       1.0  0.47621  0.67057  0.37355  1.0000
  H   H12       1.0  0.52378  0.32944  0.62644  1.0000
  H   H13       1.0  0.39893  0.79088  0.53806  1.0000
  H   H14       1.0  0.60106  0.20913  0.46193  1.0000
  H   H15       1.0  0.58739  0.84352  0.63053  1.0000
  H   H16       1.0  0.41261  0.15648  0.36947  1.0000
  H   H17       1.0  0.32117  0.93283  0.70536  1.0000
  H   H18       1.0  0.67884  0.06716  0.29464  1.0000
  H   H19       1.0  0.39345  0.72904  0.82971  1.0000
  H   H20       1.0  0.60656  0.27095  0.17029  1.0000
  H   H21       1.0  0.18193  0.81658  0.95296  1.0000
  H   H22       1.0  0.81808  0.18341  0.04704  1.0000
  H   H23       1.0  0.09340  0.01668  0.82790  1.0000
  H   H24       1.0  0.90661  0.98331  0.17210  1.0000
  H   H25       1.0  0.40860  0.85559  0.98996  1.0000
  H   H26       1.0  0.59141  0.14441  0.01004  1.0000
  H   H27       1.0  0.32277  0.05327  0.86081  1.0000
  H   H28       1.0  0.67723  0.94673  0.13919  1.0000
  H   H29       1.0  0.19043  0.94180  0.11375  1.0000
  H   H30       1.0  0.80958  0.05820  0.88625  1.0000
  H   H31       1.0  0.10089  0.13826  0.98364  1.0000
  H   H32       1.0  0.89911  0.86173  0.01636  1.0000
  H   H33       1.0  0.41890  0.98605  0.13658  1.0000
  H   H34       1.0  0.58110  0.01396  0.86342  1.0000
  H   H35       1.0  0.31528  0.19207  0.01734  1.0000
  H   H36       1.0  0.68471  0.80793  0.98266  1.0000
  C   C1        1.0  0.15468  0.71475  0.38680  1.0000
  C   C2        1.0  0.84532  0.28525  0.61321  1.0000
  C   C3        1.0  0.20829  0.65131  0.29283  1.0000
  C   C4        1.0  0.79171  0.34868  0.70718  1.0000
  C   C5        1.0  0.12248  0.60306  0.24292  1.0000
  C   C6        1.0  0.87752  0.39694  0.75709  1.0000
  C   C7        1.0  0.98063  0.62221  0.28529  1.0000
  C   C8        1.0  0.01937  0.37780  0.71471  1.0000
  C   C9        1.0  0.88458  0.57757  0.23612  1.0000
  C   C10       1.0  0.11542  0.42243  0.76387  1.0000
  C   C11       1.0  0.74672  0.60076  0.27743  1.0000
  C   C12       1.0  0.25328  0.39924  0.72256  1.0000
  C   C13       1.0  0.69508  0.66924  0.37084  1.0000
  C   C14       1.0  0.30491  0.33077  0.62916  1.0000
  C   C15       1.0  0.55233  0.69866  0.41419  1.0000
  C   C16       1.0  0.44766  0.30135  0.58581  1.0000
  C   C17       1.0  0.51028  0.76333  0.50593  1.0000
  C   C18       1.0  0.48971  0.23668  0.49406  1.0000
  C   C19       1.0  0.61281  0.79749  0.55495  1.0000
  C   C20       1.0  0.38718  0.20251  0.44504  1.0000
  C   C21       1.0  0.78926  0.71177  0.42386  1.0000
  C   C22       1.0  0.21074  0.28823  0.57614  1.0000
  C   C23       1.0  0.93483  0.68795  0.37997  1.0000
  C   C24       1.0  0.06517  0.31205  0.62003  1.0000
  C   C25       1.0  0.18673  0.81236  0.70884  1.0000
  C   C26       1.0  0.81328  0.18765  0.29115  1.0000
  C   C27       1.0  0.28822  0.84474  0.77809  1.0000
  C   C28       1.0  0.71178  0.15526  0.22191  1.0000
  C   C29       1.0  0.20588  0.91083  0.87710  1.0000
  C   C30       1.0  0.79413  0.08916  0.12290  1.0000
  C   C31       1.0  0.29671  0.96214  0.93877  1.0000
  C   C32       1.0  0.70330  0.03785  0.06123  1.0000
  C   C33       1.0  0.21356  0.03337  0.03387  1.0000
  C   C34       1.0  0.78645  0.96663  0.96613  1.0000
  C   C35       1.0  0.30327  0.08881  0.09299  1.0000
  C   C36       1.0  0.69673  0.91119  0.90701  1.0000
  C   C37       1.0  0.22862  0.13746  0.20068  1.0000
  C   C38       1.0  0.77138  0.86253  0.79932  1.0000
  N   N1        1.0  0.02303  0.73059  0.42983  1.0000
  N   N2        1.0  0.97697  0.26941  0.57017  1.0000
  N   N3        1.0  0.74678  0.77431  0.51408  1.0000
  N   N4        1.0  0.25322  0.22569  0.48592  1.0000
  O   O1        1.0  0.13806  0.71246  0.77516  1.0000
  O   O2        1.0  0.86194  0.28755  0.22483  1.0000
  O   O3        1.0  0.14832  0.89219  0.58301  1.0000
  O   O4        1.0  0.85168  0.10781  0.41699  1.0000
  O   O5        1.0  0.21025  0.02477  0.29720  1.0000
  O   O6        1.0  0.78974  0.97523  0.70280  1.0000
  O   O7        1.0  0.18795  0.27907  0.19420  1.0000
  O   O8        1.0  0.81205  0.72093  0.80580  1.0000
