data_image0
_chemical_formula_structural       Cu2H30C38N4O8
_chemical_formula_sum              "Cu2 H30 C38 N4 O8"
_cell_length_a       8.43003
_cell_length_b       9.20802
_cell_length_c       11.5121
_cell_angle_alpha    110.113
_cell_angle_beta     93.4594
_cell_angle_gamma    87.774

_space_group_name_H-M_alt    "P 1"
_space_group_IT_number       1

loop_
  _space_group_symop_operation_xyz
  'x, y, z'

loop_
  _atom_site_type_symbol
  _atom_site_label
  _atom_site_symmetry_multiplicity
  _atom_site_fract_x
  _atom_site_fract_y
  _atom_site_fract_z
  _atom_site_occupancy
  Cu  Cu1       1.0  0.12255  0.34828  0.21405  1.0000
  Cu  Cu2       1.0  0.87743  0.65172  0.78596  1.0000
  H   H1        1.0  0.80178  0.89710  0.24528  1.0000
  H   H2        1.0  0.19821  0.10290  0.75474  1.0000
  H   H3        1.0  0.65975  0.95390  0.61366  1.0000
  H   H4        1.0  0.34024  0.04609  0.38635  1.0000
  H   H5        1.0  0.95447  0.29284  0.55373  1.0000
  H   H6        1.0  0.04549  0.70717  0.44628  1.0000
  H   H7        1.0  0.50466  0.75284  0.50953  1.0000
  H   H8        1.0  0.49536  0.24715  0.49048  1.0000
  H   H9        1.0  0.70916  0.68957  0.51486  1.0000
  H   H10       1.0  0.29087  0.31040  0.48514  1.0000
  H   H11       1.0  0.79559  0.43071  0.35373  1.0000
  H   H12       1.0  0.20442  0.56927  0.64624  1.0000
  H   H13       1.0  0.70235  0.17970  0.19855  1.0000
  H   H14       1.0  0.29763  0.82029  0.80142  1.0000
  H   H15       1.0  0.41285  0.14811  0.13633  1.0000
  H   H16       1.0  0.58712  0.85190  0.86367  1.0000
  H   H17       1.0  0.30876  0.59465  0.36743  1.0000
  H   H18       1.0  0.69126  0.40535  0.63258  1.0000
  H   H19       1.0  0.78184  0.06408  0.80664  1.0000
  H   H20       1.0  0.21816  0.93593  0.19338  1.0000
  H   H21       1.0  0.60791  0.17507  0.78347  1.0000
  H   H22       1.0  0.39210  0.82492  0.21652  1.0000
  H   H23       1.0  0.59711  0.46512  0.90693  1.0000
  H   H24       1.0  0.40291  0.53489  0.09304  1.0000
  H   H25       1.0  0.68922  0.67326  0.10472  1.0000
  H   H26       1.0  0.31079  0.32675  0.89526  1.0000
  H   H27       1.0  0.92226  0.61906  0.22681  1.0000
  H   H28       1.0  0.07775  0.38095  0.77317  1.0000
  H   H29       1.0  0.96480  0.16645  0.98202  1.0000
  H   H30       1.0  0.03516  0.83354  0.01799  1.0000
  C   C1        1.0  0.97507  0.15672  0.30577  1.0000
  C   C2        1.0  0.02492  0.84330  0.69424  1.0000
  C   C3        1.0  0.88411  0.10161  0.39105  1.0000
  C   C4        1.0  0.11588  0.89839  0.60898  1.0000
  C   C5        1.0  0.79959  0.96427  0.34360  1.0000
  C   C6        1.0  0.20042  0.03572  0.65640  1.0000
  C   C7        1.0  0.72019  0.91167  0.42410  1.0000
  C   C8        1.0  0.27982  0.08832  0.57590  1.0000
  C   C9        1.0  0.72130  0.99566  0.55146  1.0000
  C   C10       1.0  0.27872  0.00434  0.44855  1.0000
  C   C11       1.0  0.80676  0.13278  0.59682  1.0000
  C   C12       1.0  0.19325  0.86722  0.40318  1.0000
  C   C13       1.0  0.88720  0.18673  0.51745  1.0000
  C   C14       1.0  0.11280  0.81329  0.48256  1.0000
  C   C15       1.0  0.60456  0.69254  0.45342  1.0000
  C   C16       1.0  0.39547  0.30745  0.54658  1.0000
  C   C17       1.0  0.55796  0.53344  0.37062  1.0000
  C   C18       1.0  0.44205  0.46655  0.62937  1.0000
  C   C19       1.0  0.67019  0.41468  0.32406  1.0000
  C   C20       1.0  0.32981  0.58530  0.67592  1.0000
  C   C21       1.0  0.61829  0.27415  0.23847  1.0000
  C   C22       1.0  0.38170  0.72586  0.76153  1.0000
  C   C23       1.0  0.45759  0.25590  0.20326  1.0000
  C   C24       1.0  0.54239  0.74410  0.79673  1.0000
  C   C25       1.0  0.39911  0.50507  0.33195  1.0000
  C   C26       1.0  0.60089  0.49494  0.66806  1.0000
  C   C27       1.0  0.73672  0.17833  0.80771  1.0000
  C   C28       1.0  0.26328  0.82165  0.19229  1.0000
  C   C29       1.0  0.77543  0.30072  0.93023  1.0000
  C   C30       1.0  0.22455  0.69928  0.06976  1.0000
  C   C31       1.0  0.69596  0.44435  0.96503  1.0000
  C   C32       1.0  0.30404  0.55565  0.03495  1.0000
  C   C33       1.0  0.74717  0.55966  0.07370  1.0000
  C   C34       1.0  0.25283  0.44033  0.92629  1.0000
  C   C35       1.0  0.87648  0.52972  0.14336  1.0000
  C   C36       1.0  0.12352  0.47029  0.85663  1.0000
  C   C37       1.0  0.90168  0.27775  0.00616  1.0000
  C   C38       1.0  0.09830  0.72224  0.99384  1.0000
  N   N1        1.0  0.34742  0.36920  0.24945  1.0000
  N   N2        1.0  0.65257  0.63081  0.75055  1.0000
  N   N3        1.0  0.95307  0.39036  0.11141  1.0000
  N   N4        1.0  0.04692  0.60965  0.88860  1.0000
  O   O1        1.0  0.97972  0.07517  0.19259  1.0000
  O   O2        1.0  0.02028  0.92485  0.80742  1.0000
  O   O3        1.0  0.04184  0.28905  0.35553  1.0000
  O   O4        1.0  0.95815  0.71098  0.64450  1.0000
  O   O5        1.0  0.64434  0.77320  0.37121  1.0000
  O   O6        1.0  0.35567  0.22680  0.62879  1.0000
  O   O7        1.0  0.81878  0.22370  0.71919  1.0000
  O   O8        1.0  0.18124  0.77629  0.28081  1.0000
