data_image0
_chemical_formula_structural       Cd2H40C36S4N20
_chemical_formula_sum              "Cd2 H40 C36 S4 N20"
_cell_length_a       10.4967
_cell_length_b       10.7998
_cell_length_c       11.8503
_cell_angle_alpha    66.3361
_cell_angle_beta     73.4647
_cell_angle_gamma    61.9298

_space_group_name_H-M_alt    "P 1"
_space_group_IT_number       1

loop_
  _space_group_symop_operation_xyz
  'x, y, z'

loop_
  _atom_site_type_symbol
  _atom_site_label
  _atom_site_symmetry_multiplicity
  _atom_site_fract_x
  _atom_site_fract_y
  _atom_site_fract_z
  _atom_site_occupancy
  Cd  Cd1       1.0  0.50000  0.50000  0.50000  1.0000
  Cd  Cd2       1.0  0.50000  0.50000  0.00000  1.0000
  H   H1        1.0  0.70305  0.29400  0.30576  1.0000
  H   H2        1.0  0.29694  0.70601  0.69424  1.0000
  H   H3        1.0  0.97437  0.41956  0.69631  1.0000
  H   H4        1.0  0.02563  0.58044  0.30369  1.0000
  H   H5        1.0  0.15719  0.38387  0.62135  1.0000
  H   H6        1.0  0.84281  0.61613  0.37865  1.0000
  H   H7        1.0  0.11877  0.24052  0.74465  1.0000
  H   H8        1.0  0.88123  0.75948  0.25535  1.0000
  H   H9        1.0  0.35391  0.99684  0.57439  1.0000
  H   H10       1.0  0.64609  0.00316  0.42561  1.0000
  H   H11       1.0  0.32102  0.14792  0.62044  1.0000
  H   H12       1.0  0.67898  0.85208  0.37956  1.0000
  H   H13       1.0  0.38339  0.15351  0.46422  1.0000
  H   H14       1.0  0.61661  0.84648  0.53578  1.0000
  H   H15       1.0  0.34105  0.04197  0.35335  1.0000
  H   H16       1.0  0.65895  0.95803  0.64665  1.0000
  H   H17       1.0  0.19972  0.08681  0.26965  1.0000
  H   H18       1.0  0.80028  0.91319  0.73035  1.0000
  H   H19       1.0  0.23400  0.93754  0.40972  1.0000
  H   H20       1.0  0.76599  0.06246  0.59028  1.0000
  H   H21       1.0  0.59853  0.13206  0.18577  1.0000
  H   H22       1.0  0.40147  0.86794  0.81423  1.0000
  H   H23       1.0  0.03806  0.50747  0.85871  1.0000
  H   H24       1.0  0.96194  0.49252  0.14129  1.0000
  H   H25       1.0  0.20604  0.35815  0.83352  1.0000
  H   H26       1.0  0.79396  0.64185  0.16648  1.0000
  H   H27       1.0  0.17216  0.41638  0.96222  1.0000
  H   H28       1.0  0.82784  0.58362  0.03778  1.0000
  H   H29       1.0  0.35289  0.97322  0.07360  1.0000
  H   H30       1.0  0.64711  0.02677  0.92640  1.0000
  H   H31       1.0  0.33210  0.15684  0.03931  1.0000
  H   H32       1.0  0.66790  0.84316  0.96069  1.0000
  H   H33       1.0  0.34330  0.09591  0.91831  1.0000
  H   H34       1.0  0.65670  0.90408  0.08169  1.0000
  H   H35       1.0  0.24801  0.83442  0.11030  1.0000
  H   H36       1.0  0.75199  0.16558  0.88970  1.0000
  H   H37       1.0  0.07391  0.82798  0.17029  1.0000
  H   H38       1.0  0.92609  0.17202  0.82971  1.0000
  H   H39       1.0  0.16241  0.85988  0.25545  1.0000
  H   H40       1.0  0.83759  0.14012  0.74455  1.0000
  C   C1        1.0  0.87599  0.31345  0.47461  1.0000
  C   C2        1.0  0.12401  0.68655  0.52538  1.0000
  C   C3        1.0  0.04387  0.29211  0.57521  1.0000
  C   C4        1.0  0.95613  0.70789  0.42479  1.0000
  C   C5        1.0  0.15821  0.18838  0.51744  1.0000
  C   C6        1.0  0.84179  0.81162  0.48256  1.0000
  C   C7        1.0  0.12578  0.15216  0.43227  1.0000
  C   C8        1.0  0.87422  0.84784  0.56773  1.0000
  C   C9        1.0  0.78364  0.28284  0.35381  1.0000
  C   C10       1.0  0.21636  0.71716  0.64618  1.0000
  C   C11       1.0  0.07486  0.33765  0.66450  1.0000
  C   C12       1.0  0.92514  0.66235  0.33550  1.0000
  C   C13       1.0  0.31220  0.11787  0.54605  1.0000
  C   C14       1.0  0.68779  0.88213  0.45395  1.0000
  C   C15       1.0  0.23119  0.04966  0.36214  1.0000
  C   C16       1.0  0.76881  0.95034  0.63786  1.0000
  C   C17       1.0  0.84244  0.25772  0.05721  1.0000
  C   C18       1.0  0.15756  0.74228  0.94279  1.0000
  C   C19       1.0  0.04995  0.29501  0.97912  1.0000
  C   C20       1.0  0.95006  0.70499  0.02088  1.0000
  C   C21       1.0  0.13731  0.14146  0.03335  1.0000
  C   C22       1.0  0.86270  0.85854  0.96665  1.0000
  C   C23       1.0  0.06967  0.04510  0.10029  1.0000
  C   C24       1.0  0.93033  0.95490  0.89971  1.0000
  C   C25       1.0  0.69880  0.14855  0.15030  1.0000
  C   C26       1.0  0.30120  0.85145  0.84970  1.0000
  C   C27       1.0  0.11999  0.40006  0.90397  1.0000
  C   C28       1.0  0.88001  0.59994  0.09603  1.0000
  C   C29       1.0  0.29970  0.08770  0.01599  1.0000
  C   C30       1.0  0.70030  0.91229  0.98401  1.0000
  C   C31       1.0  0.14246  0.88328  0.16132  1.0000
  C   C32       1.0  0.85753  0.11673  0.83868  1.0000
  C   C33       1.0  0.51948  0.67204  0.18180  1.0000
  C   C34       1.0  0.48052  0.32796  0.81820  1.0000
  C   C35       1.0  0.39328  0.40149  0.31509  1.0000
  C   C36       1.0  0.60671  0.59851  0.68490  1.0000
  S   S1        1.0  0.50967  0.73472  0.28995  1.0000
  S   S2        1.0  0.49033  0.26528  0.71005  1.0000
  S   S3        1.0  0.32148  0.40340  0.20885  1.0000
  S   S4        1.0  0.67852  0.59660  0.79115  1.0000
  N   N1        1.0  0.74758  0.35491  0.43687  1.0000
  N   N2        1.0  0.25242  0.64510  0.56313  1.0000
  N   N3        1.0  0.90501  0.35242  0.55435  1.0000
  N   N4        1.0  0.09499  0.64758  0.44565  1.0000
  N   N5        1.0  0.98316  0.21684  0.41270  1.0000
  N   N6        1.0  0.01684  0.78316  0.58730  1.0000
  N   N7        1.0  0.92469  0.19705  0.33517  1.0000
  N   N8        1.0  0.07531  0.80295  0.66483  1.0000
  N   N9        1.0  0.69976  0.28378  0.08346  1.0000
  N   N10       1.0  0.30024  0.71622  0.91654  1.0000
  N   N11       1.0  0.90478  0.35168  0.99202  1.0000
  N   N12       1.0  0.09522  0.64832  0.00798  1.0000
  N   N13       1.0  0.92089  0.10749  0.10997  1.0000
  N   N14       1.0  0.07911  0.89251  0.89003  1.0000
  N   N15       1.0  0.82925  0.03728  0.17007  1.0000
  N   N16       1.0  0.17075  0.96272  0.82993  1.0000
  N   N17       1.0  0.52781  0.63103  0.10015  1.0000
  N   N18       1.0  0.47219  0.36897  0.89985  1.0000
  N   N19       1.0  0.44488  0.39755  0.39392  1.0000
  N   N20       1.0  0.55512  0.60245  0.60608  1.0000
