data_image0
_chemical_formula_structural       K4Zn2H20C8N36O8
_chemical_formula_sum              "K4 Zn2 H20 C8 N36 O8"
_cell_length_a       8.50556
_cell_length_b       9.39209
_cell_length_c       10.7387
_cell_angle_alpha    90
_cell_angle_beta     98.5492
_cell_angle_gamma    90

_space_group_name_H-M_alt    "P 1"
_space_group_IT_number       1

loop_
  _space_group_symop_operation_xyz
  'x, y, z'

loop_
  _atom_site_type_symbol
  _atom_site_label
  _atom_site_symmetry_multiplicity
  _atom_site_fract_x
  _atom_site_fract_y
  _atom_site_fract_z
  _atom_site_occupancy
  K   K1        1.0  0.50986  0.29617  0.12206  1.0000
  K   K2        1.0  0.99014  0.79617  0.87793  1.0000
  K   K3        1.0  0.49014  0.70383  0.87794  1.0000
  K   K4        1.0  0.00986  0.20383  0.12206  1.0000
  Zn  Zn1       1.0  0.50000  0.50000  0.50000  1.0000
  Zn  Zn2       1.0  0.00000  1.00000  0.50000  1.0000
  H   H1        1.0  0.57302  0.96317  0.18795  1.0000
  H   H2        1.0  0.92698  0.46317  0.81205  1.0000
  H   H3        1.0  0.42698  0.03683  0.81205  1.0000
  H   H4        1.0  0.07302  0.53683  0.18795  1.0000
  H   H5        1.0  0.74435  0.01354  0.24227  1.0000
  H   H6        1.0  0.75565  0.51354  0.75773  1.0000
  H   H7        1.0  0.25565  0.98646  0.75773  1.0000
  H   H8        1.0  0.24434  0.48646  0.24227  1.0000
  H   H9        1.0  0.31326  0.98795  0.11243  1.0000
  H   H10       1.0  0.18674  0.48795  0.88757  1.0000
  H   H11       1.0  0.68674  0.01205  0.88757  1.0000
  H   H12       1.0  0.81326  0.51205  0.11243  1.0000
  H   H13       1.0  0.29804  0.03576  0.97235  1.0000
  H   H14       1.0  0.20196  0.53576  0.02765  1.0000
  H   H15       1.0  0.70196  0.96424  0.02765  1.0000
  H   H16       1.0  0.79804  0.46424  0.97235  1.0000
  H   H17       1.0  0.31281  0.93286  0.37370  1.0000
  H   H18       1.0  0.18719  0.43286  0.62630  1.0000
  H   H19       1.0  0.68719  0.06714  0.62630  1.0000
  H   H20       1.0  0.81281  0.56714  0.37370  1.0000
  C   C1        1.0  0.41314  0.75257  0.31239  1.0000
  C   C2        1.0  0.08686  0.25258  0.68761  1.0000
  C   C3        1.0  0.58686  0.24743  0.68761  1.0000
  C   C4        1.0  0.91313  0.74743  0.31239  1.0000
  C   C5        1.0  0.28003  0.76708  0.49576  1.0000
  C   C6        1.0  0.21997  0.26708  0.50424  1.0000
  C   C7        1.0  0.71997  0.23292  0.50424  1.0000
  C   C8        1.0  0.78003  0.73292  0.49576  1.0000
  N   N1        1.0  0.45016  0.61282  0.31899  1.0000
  N   N2        1.0  0.04984  0.11282  0.68101  1.0000
  N   N3        1.0  0.54984  0.38718  0.68101  1.0000
  N   N4        1.0  0.95016  0.88718  0.31899  1.0000
  N   N5        1.0  0.51343  0.58591  0.21157  1.0000
  N   N6        1.0  0.98657  0.08591  0.78843  1.0000
  N   N7        1.0  0.48657  0.41410  0.78843  1.0000
  N   N8        1.0  0.01343  0.91409  0.21157  1.0000
  N   N9        1.0  0.51429  0.70272  0.14655  1.0000
  N   N10       1.0  0.98571  0.20272  0.85345  1.0000
  N   N11       1.0  0.48571  0.29728  0.85345  1.0000
  N   N12       1.0  0.01430  0.79728  0.14655  1.0000
  N   N13       1.0  0.45237  0.81194  0.20717  1.0000
  N   N14       1.0  0.04763  0.31194  0.79283  1.0000
  N   N15       1.0  0.54763  0.18806  0.79283  1.0000
  N   N16       1.0  0.95237  0.68806  0.20717  1.0000
  N   N17       1.0  0.34191  0.82775  0.39793  1.0000
  N   N18       1.0  0.15809  0.32775  0.60207  1.0000
  N   N19       1.0  0.65810  0.17225  0.60207  1.0000
  N   N20       1.0  0.84191  0.67225  0.39793  1.0000
  N   N21       1.0  0.17181  0.82984  0.55783  1.0000
  N   N22       1.0  0.32819  0.32984  0.44217  1.0000
  N   N23       1.0  0.82819  0.17016  0.44217  1.0000
  N   N24       1.0  0.67181  0.67016  0.55783  1.0000
  N   N25       1.0  0.14170  0.73437  0.64574  1.0000
  N   N26       1.0  0.35830  0.23437  0.35426  1.0000
  N   N27       1.0  0.85830  0.26563  0.35426  1.0000
  N   N28       1.0  0.64170  0.76563  0.64575  1.0000
  N   N29       1.0  0.22700  0.62037  0.63708  1.0000
  N   N30       1.0  0.27299  0.12037  0.36292  1.0000
  N   N31       1.0  0.77300  0.37963  0.36292  1.0000
  N   N32       1.0  0.72701  0.87963  0.63708  1.0000
  N   N33       1.0  0.31625  0.63698  0.54352  1.0000
  N   N34       1.0  0.18375  0.13698  0.45648  1.0000
  N   N35       1.0  0.68375  0.36302  0.45648  1.0000
  N   N36       1.0  0.81625  0.86302  0.54352  1.0000
  O   O1        1.0  0.65690  0.03382  0.17451  1.0000
  O   O2        1.0  0.84310  0.53382  0.82550  1.0000
  O   O3        1.0  0.34310  0.96618  0.82549  1.0000
  O   O4        1.0  0.15690  0.46618  0.17450  1.0000
  O   O5        1.0  0.28346  0.06980  0.05734  1.0000
  O   O6        1.0  0.21654  0.56980  0.94266  1.0000
  O   O7        1.0  0.71654  0.93020  0.94266  1.0000
  O   O8        1.0  0.78346  0.43020  0.05734  1.0000
