data_image0
_chemical_formula_structural       Zn4H40C56N12O16
_chemical_formula_sum              "Zn4 H40 C56 N12 O16"
_cell_length_a       8.54535
_cell_length_b       12.8147
_cell_length_c       13.595
_cell_angle_alpha    90
_cell_angle_beta     108.126
_cell_angle_gamma    89.9999

_space_group_name_H-M_alt    "P 1"
_space_group_IT_number       1

loop_
  _space_group_symop_operation_xyz
  'x, y, z'

loop_
  _atom_site_type_symbol
  _atom_site_label
  _atom_site_symmetry_multiplicity
  _atom_site_fract_x
  _atom_site_fract_y
  _atom_site_fract_z
  _atom_site_occupancy
  Zn  Zn1       1.0  0.76567  0.07477  0.63077  1.0000
  Zn  Zn2       1.0  0.23433  0.57477  0.86923  1.0000
  Zn  Zn3       1.0  0.23433  0.92523  0.36923  1.0000
  Zn  Zn4       1.0  0.76567  0.42523  0.13077  1.0000
  H   H1        1.0  0.72992  0.12889  0.04318  1.0000
  H   H2        1.0  0.27008  0.62889  0.45682  1.0000
  H   H3        1.0  0.27008  0.87111  0.95682  1.0000
  H   H4        1.0  0.72991  0.37111  0.54318  1.0000
  H   H5        1.0  0.86874  0.28630  0.32429  1.0000
  H   H6        1.0  0.13126  0.78630  0.17571  1.0000
  H   H7        1.0  0.13127  0.71370  0.67571  1.0000
  H   H8        1.0  0.86873  0.21370  0.82429  1.0000
  H   H9        1.0  0.00454  0.91041  0.88858  1.0000
  H   H10       1.0  0.99546  0.41041  0.61142  1.0000
  H   H11       1.0  0.99545  0.08960  0.11142  1.0000
  H   H12       1.0  0.00454  0.58959  0.38858  1.0000
  H   H13       1.0  0.87195  0.01933  0.84735  1.0000
  H   H14       1.0  0.12805  0.51933  0.65265  1.0000
  H   H15       1.0  0.12805  0.98067  0.15265  1.0000
  H   H16       1.0  0.87195  0.48067  0.34735  1.0000
  H   H17       1.0  0.06486  0.03393  0.94668  1.0000
  H   H18       1.0  0.93514  0.53393  0.55332  1.0000
  H   H19       1.0  0.93514  0.96607  0.05332  1.0000
  H   H20       1.0  0.06486  0.46607  0.44668  1.0000
  H   H21       1.0  0.29855  0.18675  0.13863  1.0000
  H   H22       1.0  0.70145  0.68675  0.36137  1.0000
  H   H23       1.0  0.70145  0.81325  0.86137  1.0000
  H   H24       1.0  0.29854  0.31325  0.63863  1.0000
  H   H25       1.0  0.39812  0.04898  0.71133  1.0000
  H   H26       1.0  0.60188  0.54898  0.78867  1.0000
  H   H27       1.0  0.60188  0.95102  0.28867  1.0000
  H   H28       1.0  0.39813  0.45102  0.21133  1.0000
  H   H29       1.0  0.50424  0.14364  0.87886  1.0000
  H   H30       1.0  0.49575  0.64364  0.62114  1.0000
  H   H31       1.0  0.49575  0.85636  0.12114  1.0000
  H   H32       1.0  0.50424  0.35636  0.37886  1.0000
  H   H33       1.0  0.46275  0.29858  0.05760  1.0000
  H   H34       1.0  0.53726  0.79858  0.44240  1.0000
  H   H35       1.0  0.53726  0.70142  0.94240  1.0000
  H   H36       1.0  0.46274  0.20142  0.55760  1.0000
  H   H37       1.0  0.09192  0.09249  0.56862  1.0000
  H   H38       1.0  0.90808  0.59249  0.93138  1.0000
  H   H39       1.0  0.90808  0.90751  0.43138  1.0000
  H   H40       1.0  0.09193  0.40751  0.06862  1.0000
  C   C1        1.0  0.63163  0.07106  0.02450  1.0000
  C   C2        1.0  0.36836  0.57106  0.47550  1.0000
  C   C3        1.0  0.36837  0.92893  0.97550  1.0000
  C   C4        1.0  0.63163  0.42894  0.52450  1.0000
  C   C5        1.0  0.37387  0.00888  0.90679  1.0000
  C   C6        1.0  0.62613  0.50888  0.59321  1.0000
  C   C7        1.0  0.62613  0.99111  0.09321  1.0000
  C   C8        1.0  0.37386  0.49112  0.40679  1.0000
  C   C9        1.0  0.74192  0.26301  0.28467  1.0000
  C   C10       1.0  0.25808  0.76301  0.21533  1.0000
  C   C11       1.0  0.25809  0.73699  0.71533  1.0000
  C   C12       1.0  0.74191  0.23699  0.78467  1.0000
  C   C13       1.0  0.65862  0.20143  0.33677  1.0000
  C   C14       1.0  0.34138  0.70143  0.16324  1.0000
  C   C15       1.0  0.34138  0.79857  0.66323  1.0000
  C   C16       1.0  0.65862  0.29857  0.83677  1.0000
  C   C17       1.0  0.49461  0.17314  0.28453  1.0000
  C   C18       1.0  0.50540  0.67314  0.21548  1.0000
  C   C19       1.0  0.50540  0.82686  0.71548  1.0000
  C   C20       1.0  0.49460  0.32686  0.78452  1.0000
  C   C21       1.0  0.00113  0.99487  0.87340  1.0000
  C   C22       1.0  0.99887  0.49487  0.62660  1.0000
  C   C23       1.0  0.99887  0.00513  0.12660  1.0000
  C   C24       1.0  0.00113  0.50513  0.37340  1.0000
  C   C25       1.0  0.42511  0.20677  0.18218  1.0000
  C   C26       1.0  0.57490  0.70677  0.31782  1.0000
  C   C27       1.0  0.57490  0.79323  0.81782  1.0000
  C   C28       1.0  0.42510  0.29323  0.68218  1.0000
  C   C29       1.0  0.08082  0.02115  0.79412  1.0000
  C   C30       1.0  0.91918  0.52115  0.70588  1.0000
  C   C31       1.0  0.91918  0.97885  0.20588  1.0000
  C   C32       1.0  0.08082  0.47885  0.29411  1.0000
  C   C33       1.0  0.74468  0.17305  0.44799  1.0000
  C   C34       1.0  0.25532  0.67305  0.05201  1.0000
  C   C35       1.0  0.25532  0.82695  0.55201  1.0000
  C   C36       1.0  0.74468  0.32695  0.94799  1.0000
  C   C37       1.0  0.27529  0.04970  0.71854  1.0000
  C   C38       1.0  0.72471  0.54971  0.78146  1.0000
  C   C39       1.0  0.72471  0.95029  0.28146  1.0000
  C   C40       1.0  0.27529  0.45030  0.21854  1.0000
  C   C41       1.0  0.50482  0.07956  0.93132  1.0000
  C   C42       1.0  0.49518  0.57956  0.56868  1.0000
  C   C43       1.0  0.49517  0.92044  0.06868  1.0000
  C   C44       1.0  0.50482  0.42044  0.43132  1.0000
  C   C45       1.0  0.51604  0.26895  0.13641  1.0000
  C   C46       1.0  0.48397  0.76895  0.36359  1.0000
  C   C47       1.0  0.48397  0.73105  0.86360  1.0000
  C   C48       1.0  0.51603  0.23105  0.63641  1.0000
  C   C49       1.0  0.38819  0.11429  0.33607  1.0000
  C   C50       1.0  0.61182  0.61429  0.16393  1.0000
  C   C51       1.0  0.61182  0.88571  0.66393  1.0000
  C   C52       1.0  0.38818  0.38572  0.83607  1.0000
  C   C53       1.0  0.12409  0.06766  0.64862  1.0000
  C   C54       1.0  0.87591  0.56767  0.85138  1.0000
  C   C55       1.0  0.87591  0.93233  0.35138  1.0000
  C   C56       1.0  0.12409  0.43233  0.14862  1.0000
  N   N1        1.0  0.24737  0.02100  0.81031  1.0000
  N   N2        1.0  0.75263  0.52100  0.68969  1.0000
  N   N3        1.0  0.75263  0.97900  0.18969  1.0000
  N   N4        1.0  0.24736  0.47900  0.31031  1.0000
  N   N5        1.0  0.67277  0.29721  0.18734  1.0000
  N   N6        1.0  0.32724  0.79721  0.31266  1.0000
  N   N7        1.0  0.32724  0.70279  0.81266  1.0000
  N   N8        1.0  0.67276  0.20279  0.68734  1.0000
  N   N9        1.0  0.00471  0.05023  0.69637  1.0000
  N   N10       1.0  0.99529  0.55023  0.80363  1.0000
  N   N11       1.0  0.99529  0.94977  0.30363  1.0000
  N   N12       1.0  0.00471  0.44978  0.19637  1.0000
  O   O1        1.0  0.68544  0.09166  0.48058  1.0000
  O   O2        1.0  0.31456  0.59165  0.01942  1.0000
  O   O3        1.0  0.31456  0.90834  0.51942  1.0000
  O   O4        1.0  0.68544  0.40835  0.98058  1.0000
  O   O5        1.0  0.86124  0.22833  0.50077  1.0000
  O   O6        1.0  0.13876  0.72833  0.99923  1.0000
  O   O7        1.0  0.13876  0.77167  0.49923  1.0000
  O   O8        1.0  0.86123  0.27167  0.00077  1.0000
  O   O9        1.0  0.32437  0.16238  0.39316  1.0000
  O   O10       1.0  0.67563  0.66237  0.10684  1.0000
  O   O11       1.0  0.67564  0.83762  0.60684  1.0000
  O   O12       1.0  0.32436  0.33762  0.89316  1.0000
  O   O13       1.0  0.36685  0.01738  0.30854  1.0000
  O   O14       1.0  0.63316  0.51738  0.19146  1.0000
  O   O15       1.0  0.63315  0.98262  0.69146  1.0000
  O   O16       1.0  0.36685  0.48262  0.80854  1.0000
