data_image0
_chemical_formula_structural       Cd4H24C48O16
_chemical_formula_sum              "Cd4 H24 C48 O16"
_cell_length_a       4.07002
_cell_length_b       7.28716
_cell_length_c       31.7114
_cell_angle_alpha    95.61
_cell_angle_beta     90
_cell_angle_gamma    90.0001

_space_group_name_H-M_alt    "P 1"
_space_group_IT_number       1

loop_
  _space_group_symop_operation_xyz
  'x, y, z'

loop_
  _atom_site_type_symbol
  _atom_site_label
  _atom_site_symmetry_multiplicity
  _atom_site_fract_x
  _atom_site_fract_y
  _atom_site_fract_z
  _atom_site_occupancy
  Cd  Cd1       1.0  0.12111  0.74506  0.01425  1.0000
  Cd  Cd2       1.0  0.62111  0.75494  0.48575  1.0000
  Cd  Cd3       1.0  0.87889  0.25494  0.98575  1.0000
  Cd  Cd4       1.0  0.37890  0.24506  0.51425  1.0000
  H   H1        1.0  0.38087  0.95591  0.12224  1.0000
  H   H2        1.0  0.88088  0.54409  0.37776  1.0000
  H   H3        1.0  0.61912  0.04409  0.87776  1.0000
  H   H4        1.0  0.11913  0.45591  0.62224  1.0000
  H   H5        1.0  0.63180  0.06076  0.19199  1.0000
  H   H6        1.0  0.13180  0.43924  0.30801  1.0000
  H   H7        1.0  0.36821  0.93924  0.80801  1.0000
  H   H8        1.0  0.86821  0.56076  0.69199  1.0000
  H   H9        1.0  0.89706  0.30382  0.23915  1.0000
  H   H10       1.0  0.39707  0.19618  0.26085  1.0000
  H   H11       1.0  0.10293  0.69618  0.76085  1.0000
  H   H12       1.0  0.60293  0.80382  0.73916  1.0000
  H   H13       1.0  0.13341  0.61963  0.25155  1.0000
  H   H14       1.0  0.63342  0.88038  0.24845  1.0000
  H   H15       1.0  0.86657  0.38037  0.74845  1.0000
  H   H16       1.0  0.36658  0.11963  0.75155  1.0000
  H   H17       1.0  0.12316  0.82840  0.19402  1.0000
  H   H18       1.0  0.62316  0.67160  0.30598  1.0000
  H   H19       1.0  0.87684  0.17160  0.80598  1.0000
  H   H20       1.0  0.37684  0.32840  0.69402  1.0000
  H   H21       1.0  0.88236  0.72605  0.12463  1.0000
  H   H22       1.0  0.38236  0.77395  0.37536  1.0000
  H   H23       1.0  0.11764  0.27395  0.87536  1.0000
  H   H24       1.0  0.61765  0.22605  0.62463  1.0000
  C   C1        1.0  0.61027  0.38728  0.10113  1.0000
  C   C2        1.0  0.11027  0.11272  0.39887  1.0000
  C   C3        1.0  0.38973  0.61272  0.89887  1.0000
  C   C4        1.0  0.88973  0.88727  0.60113  1.0000
  C   C5        1.0  0.47707  0.21040  0.09505  1.0000
  C   C6        1.0  0.97708  0.28960  0.40495  1.0000
  C   C7        1.0  0.52292  0.78960  0.90495  1.0000
  C   C8        1.0  0.02292  0.71040  0.59505  1.0000
  C   C9        1.0  0.48414  0.09370  0.12845  1.0000
  C   C10       1.0  0.98415  0.40630  0.37155  1.0000
  C   C11       1.0  0.51586  0.90630  0.87155  1.0000
  C   C12       1.0  0.01586  0.59370  0.62845  1.0000
  C   C13       1.0  0.62217  0.15245  0.16682  1.0000
  C   C14       1.0  0.12218  0.34755  0.33318  1.0000
  C   C15       1.0  0.37783  0.84754  0.83318  1.0000
  C   C16       1.0  0.87783  0.65245  0.66682  1.0000
  C   C17       1.0  0.75506  0.33255  0.17448  1.0000
  C   C18       1.0  0.25507  0.16745  0.32553  1.0000
  C   C19       1.0  0.24494  0.66744  0.82553  1.0000
  C   C20       1.0  0.74493  0.83255  0.67448  1.0000
  C   C21       1.0  0.89442  0.39656  0.21416  1.0000
  C   C22       1.0  0.39443  0.10344  0.28584  1.0000
  C   C23       1.0  0.10558  0.60343  0.78584  1.0000
  C   C24       1.0  0.60557  0.89656  0.71416  1.0000
  C   C25       1.0  0.02442  0.57158  0.22105  1.0000
  C   C26       1.0  0.52443  0.92842  0.27895  1.0000
  C   C27       1.0  0.97558  0.42842  0.77895  1.0000
  C   C28       1.0  0.47558  0.07158  0.72105  1.0000
  C   C29       1.0  0.01817  0.69047  0.18841  1.0000
  C   C30       1.0  0.51817  0.80953  0.31159  1.0000
  C   C31       1.0  0.98183  0.30953  0.81159  1.0000
  C   C32       1.0  0.48183  0.19047  0.68841  1.0000
  C   C33       1.0  0.88274  0.63305  0.14949  1.0000
  C   C34       1.0  0.38274  0.86695  0.35051  1.0000
  C   C35       1.0  0.11726  0.36695  0.85051  1.0000
  C   C36       1.0  0.61726  0.13305  0.64949  1.0000
  C   C37       1.0  0.74855  0.45293  0.14127  1.0000
  C   C38       1.0  0.24855  0.04707  0.35874  1.0000
  C   C39       1.0  0.25145  0.54707  0.85873  1.0000
  C   C40       1.0  0.75145  0.95293  0.64126  1.0000
  C   C41       1.0  0.60847  0.52024  0.06756  1.0000
  C   C42       1.0  0.10847  0.97975  0.43244  1.0000
  C   C43       1.0  0.39153  0.47976  0.93244  1.0000
  C   C44       1.0  0.89153  0.02025  0.56756  1.0000
  C   C45       1.0  0.31242  0.13575  0.05513  1.0000
  C   C46       1.0  0.81242  0.36426  0.44487  1.0000
  C   C47       1.0  0.68757  0.86426  0.94487  1.0000
  C   C48       1.0  0.18758  0.63574  0.55513  1.0000
  O   O1        1.0  0.82588  0.49871  0.03808  1.0000
  O   O2        1.0  0.32588  0.00129  0.46192  1.0000
  O   O3        1.0  0.17412  0.50129  0.96192  1.0000
  O   O4        1.0  0.67412  0.99871  0.53808  1.0000
  O   O5        1.0  0.40954  0.65283  0.07184  1.0000
  O   O6        1.0  0.90954  0.84717  0.42816  1.0000
  O   O7        1.0  0.59047  0.34717  0.92816  1.0000
  O   O8        1.0  0.09047  0.15283  0.57184  1.0000
  O   O9        1.0  0.37575  0.20396  0.01983  1.0000
  O   O10       1.0  0.87577  0.29604  0.48017  1.0000
  O   O11       1.0  0.62424  0.79604  0.98017  1.0000
  O   O12       1.0  0.12424  0.70395  0.51983  1.0000
  O   O13       1.0  0.10173  0.00862  0.05742  1.0000
  O   O14       1.0  0.60174  0.49138  0.44258  1.0000
  O   O15       1.0  0.89826  0.99138  0.94258  1.0000
  O   O16       1.0  0.39827  0.50862  0.55742  1.0000
