data_image0
_chemical_formula_structural       Ag4H56C72N8O8
_chemical_formula_sum              "Ag4 H56 C72 N8 O8"
_cell_length_a       9.24936
_cell_length_b       12.3968
_cell_length_c       14.2734
_cell_angle_alpha    86.9327
_cell_angle_beta     81.8099
_cell_angle_gamma    68.0923

_space_group_name_H-M_alt    "P 1"
_space_group_IT_number       1

loop_
  _space_group_symop_operation_xyz
  'x, y, z'

loop_
  _atom_site_type_symbol
  _atom_site_label
  _atom_site_symmetry_multiplicity
  _atom_site_fract_x
  _atom_site_fract_y
  _atom_site_fract_z
  _atom_site_occupancy
  Ag  Ag1       1.0  0.27289  0.24033  0.33159  1.0000
  Ag  Ag2       1.0  0.48702  0.24004  0.16828  1.0000
  Ag  Ag3       1.0  0.72711  0.75967  0.66841  1.0000
  Ag  Ag4       1.0  0.51298  0.75996  0.83172  1.0000
  H   H1        1.0  0.92425  0.30845  0.35909  1.0000
  H   H2        1.0  0.76746  0.30839  0.14110  1.0000
  H   H3        1.0  0.07575  0.69155  0.64091  1.0000
  H   H4        1.0  0.23254  0.69161  0.85891  1.0000
  H   H5        1.0  0.76009  0.43451  0.33809  1.0000
  H   H6        1.0  0.80541  0.43450  0.16204  1.0000
  H   H7        1.0  0.23990  0.56549  0.66191  1.0000
  H   H8        1.0  0.19460  0.56550  0.83797  1.0000
  H   H9        1.0  0.79540  0.39244  0.45565  1.0000
  H   H10       1.0  0.81241  0.39235  0.04450  1.0000
  H   H11       1.0  0.20459  0.60756  0.54435  1.0000
  H   H12       1.0  0.18759  0.60765  0.95550  1.0000
  H   H13       1.0  0.71290  0.57403  0.24993  1.0000
  H   H14       1.0  0.28710  0.42597  0.75007  1.0000
  H   H15       1.0  0.20240  0.06061  0.36284  1.0000
  H   H16       1.0  0.73691  0.06097  0.13703  1.0000
  H   H17       1.0  0.79760  0.93939  0.63716  1.0000
  H   H18       1.0  0.26310  0.93903  0.86297  1.0000
  H   H19       1.0  0.73282  0.72331  0.46952  1.0000
  H   H20       1.0  0.54384  0.72315  0.03019  1.0000
  H   H21       1.0  0.26717  0.27669  0.53048  1.0000
  H   H22       1.0  0.45615  0.27685  0.96981  1.0000
  H   H23       1.0  0.67169  0.61047  0.44530  1.0000
  H   H24       1.0  0.71789  0.61036  0.05448  1.0000
  H   H25       1.0  0.32831  0.38953  0.55470  1.0000
  H   H26       1.0  0.28211  0.38964  0.94552  1.0000
  H   H27       1.0  0.92829  0.11628  0.32986  1.0000
  H   H28       1.0  0.95540  0.11658  0.16992  1.0000
  H   H29       1.0  0.07171  0.88372  0.67014  1.0000
  H   H30       1.0  0.04460  0.88342  0.83007  1.0000
  H   H31       1.0  0.40326  0.97546  0.47183  1.0000
  H   H32       1.0  0.62120  0.97563  0.02823  1.0000
  H   H33       1.0  0.59674  0.02454  0.52817  1.0000
  H   H34       1.0  0.37880  0.02437  0.97177  1.0000
  H   H35       1.0  0.94866  0.80331  0.40284  1.0000
  H   H36       1.0  0.24807  0.80311  0.09705  1.0000
  H   H37       1.0  0.05135  0.19669  0.59716  1.0000
  H   H38       1.0  0.75193  0.19690  0.90295  1.0000
  H   H39       1.0  0.22143  0.80146  0.38581  1.0000
  H   H40       1.0  0.97714  0.80126  0.11418  1.0000
  H   H41       1.0  0.77858  0.19853  0.61419  1.0000
  H   H42       1.0  0.02286  0.19874  0.88582  1.0000
  H   H43       1.0  0.41974  0.42694  0.35207  1.0000
  H   H44       1.0  0.15351  0.42670  0.14794  1.0000
  H   H45       1.0  0.58026  0.57306  0.64793  1.0000
  H   H46       1.0  0.84649  0.57330  0.85206  1.0000
  H   H47       1.0  0.45148  0.61869  0.36196  1.0000
  H   H48       1.0  0.92995  0.61845  0.13811  1.0000
  H   H49       1.0  0.54852  0.38131  0.63804  1.0000
  H   H50       1.0  0.07005  0.38155  0.86189  1.0000
  H   H51       1.0  0.62349  0.89725  0.38658  1.0000
  H   H52       1.0  0.47939  0.89718  0.11292  1.0000
  H   H53       1.0  0.37651  0.10275  0.61342  1.0000
  H   H54       1.0  0.52061  0.10282  0.88708  1.0000
  H   H55       1.0  0.49754  0.00502  0.24971  1.0000
  H   H56       1.0  0.50246  0.99498  0.75029  1.0000
  C   C1        1.0  0.85302  0.39710  0.38351  1.0000
  C   C2        1.0  0.75000  0.39703  0.11661  1.0000
  C   C3        1.0  0.14697  0.60290  0.61649  1.0000
  C   C4        1.0  0.25000  0.60297  0.88339  1.0000
  C   C5        1.0  0.95623  0.46477  0.38091  1.0000
  C   C6        1.0  0.57913  0.46463  0.11909  1.0000
  C   C7        1.0  0.04377  0.53523  0.61909  1.0000
  C   C8        1.0  0.42087  0.53536  0.88092  1.0000
  C   C9        1.0  0.66557  0.66882  0.24986  1.0000
  C   C10       1.0  0.33442  0.33118  0.75014  1.0000
  C   C11       1.0  0.16556  0.50925  0.37212  1.0000
  C   C12       1.0  0.32534  0.50905  0.12783  1.0000
  C   C13       1.0  0.83444  0.49075  0.62788  1.0000
  C   C14       1.0  0.67466  0.49095  0.87218  1.0000
  C   C15       1.0  0.03390  0.61460  0.38716  1.0000
  C   C16       1.0  0.35158  0.61441  0.11273  1.0000
  C   C17       1.0  0.96610  0.38540  0.61284  1.0000
  C   C18       1.0  0.64842  0.38559  0.88727  1.0000
  C   C19       1.0  0.67335  0.72839  0.32825  1.0000
  C   C20       1.0  0.59831  0.72831  0.17141  1.0000
  C   C21       1.0  0.32665  0.27161  0.67175  1.0000
  C   C22       1.0  0.40169  0.27169  0.82859  1.0000
  C   C23       1.0  0.17361  0.02384  0.43110  1.0000
  C   C24       1.0  0.80246  0.02410  0.06882  1.0000
  C   C25       1.0  0.82640  0.97616  0.56890  1.0000
  C   C26       1.0  0.19754  0.97590  0.93117  1.0000
  C   C27       1.0  0.74014  0.66252  0.41412  1.0000
  C   C28       1.0  0.59738  0.66239  0.08563  1.0000
  C   C29       1.0  0.25986  0.33748  0.58588  1.0000
  C   C30       1.0  0.40262  0.33761  0.91437  1.0000
  C   C31       1.0  0.74993  0.07751  0.42251  1.0000
  C   C32       1.0  0.17258  0.07754  0.07729  1.0000
  C   C33       1.0  0.25006  0.92249  0.57749  1.0000
  C   C34       1.0  0.82742  0.92246  0.92271  1.0000
  C   C35       1.0  0.90040  0.07667  0.39657  1.0000
  C   C36       1.0  0.02288  0.07689  0.10325  1.0000
  C   C37       1.0  0.09960  0.92333  0.60343  1.0000
  C   C38       1.0  0.97712  0.92312  0.89675  1.0000
  C   C39       1.0  0.62353  0.13507  0.36053  1.0000
  C   C40       1.0  0.24136  0.13525  0.13916  1.0000
  C   C41       1.0  0.37647  0.86493  0.63947  1.0000
  C   C42       1.0  0.75864  0.86475  0.86084  1.0000
  C   C43       1.0  0.28571  0.97468  0.49070  1.0000
  C   C44       1.0  0.73953  0.97482  0.00936  1.0000
  C   C45       1.0  0.71429  0.02532  0.50930  1.0000
  C   C46       1.0  0.26048  0.02518  0.99064  1.0000
  C   C47       1.0  0.04965  0.72183  0.39219  1.0000
  C   C48       1.0  0.22856  0.72164  0.10768  1.0000
  C   C49       1.0  0.95035  0.27817  0.60782  1.0000
  C   C50       1.0  0.77144  0.27836  0.89232  1.0000
  C   C51       1.0  0.20289  0.72001  0.38254  1.0000
  C   C52       1.0  0.07716  0.71981  0.11736  1.0000
  C   C53       1.0  0.79711  0.27998  0.61746  1.0000
  C   C54       1.0  0.92284  0.28019  0.88264  1.0000
  C   C55       1.0  0.31840  0.50834  0.36387  1.0000
  C   C56       1.0  0.17341  0.50811  0.13614  1.0000
  C   C57       1.0  0.68160  0.49166  0.63614  1.0000
  C   C58       1.0  0.82659  0.49189  0.86386  1.0000
  C   C59       1.0  0.33450  0.61517  0.36931  1.0000
  C   C60       1.0  0.05044  0.61494  0.13068  1.0000
  C   C61       1.0  0.66550  0.38483  0.63069  1.0000
  C   C62       1.0  0.94956  0.38506  0.86932  1.0000
  C   C63       1.0  0.61507  0.84983  0.32678  1.0000
  C   C64       1.0  0.53522  0.84977  0.17273  1.0000
  C   C65       1.0  0.38493  0.15017  0.67322  1.0000
  C   C66       1.0  0.46478  0.15023  0.82727  1.0000
  C   C67       1.0  0.01860  0.02552  0.45582  1.0000
  C   C68       1.0  0.95583  0.02567  0.04409  1.0000
  C   C69       1.0  0.98140  0.97448  0.54418  1.0000
  C   C70       1.0  0.04417  0.97433  0.95591  1.0000
  C   C71       1.0  0.54488  0.91030  0.24973  1.0000
  C   C72       1.0  0.45512  0.08970  0.75027  1.0000
  N   N1        1.0  0.90340  0.58303  0.39389  1.0000
  N   N2        1.0  0.51365  0.58289  0.10602  1.0000
  N   N3        1.0  0.09660  0.41697  0.60611  1.0000
  N   N4        1.0  0.48635  0.41711  0.89399  1.0000
  N   N5        1.0  0.11296  0.41857  0.36771  1.0000
  N   N6        1.0  0.46866  0.41838  0.13229  1.0000
  N   N7        1.0  0.88704  0.58143  0.63229  1.0000
  N   N8        1.0  0.53133  0.58162  0.86772  1.0000
  O   O1        1.0  0.48787  0.13261  0.39164  1.0000
  O   O2        1.0  0.37934  0.13292  0.10790  1.0000
  O   O3        1.0  0.51212  0.86740  0.60836  1.0000
  O   O4        1.0  0.62066  0.86708  0.89209  1.0000
  O   O5        1.0  0.65927  0.18157  0.28374  1.0000
  O   O6        1.0  0.15926  0.18172  0.21596  1.0000
  O   O7        1.0  0.34073  0.81842  0.71626  1.0000
  O   O8        1.0  0.84075  0.81827  0.78403  1.0000
