data_image0
_chemical_formula_structural       Ba6P12H36C12O42
_chemical_formula_sum              "Ba6 P12 H36 C12 O42"
_cell_length_a       10.8303
_cell_length_b       10.8212
_cell_length_c       13.0889
_cell_angle_alpha    113.333
_cell_angle_beta     93.3739
_cell_angle_gamma    115.089

_space_group_name_H-M_alt    "P 1"
_space_group_IT_number       1

loop_
  _space_group_symop_operation_xyz
  'x, y, z'

loop_
  _atom_site_type_symbol
  _atom_site_label
  _atom_site_symmetry_multiplicity
  _atom_site_fract_x
  _atom_site_fract_y
  _atom_site_fract_z
  _atom_site_occupancy
  Ba  Ba1       1.0  0.21886  0.60405  0.14102  1.0000
  Ba  Ba2       1.0  0.78114  0.39595  0.85898  1.0000
  Ba  Ba3       1.0  0.18424  0.84080  0.97211  1.0000
  Ba  Ba4       1.0  0.81576  0.15920  0.02789  1.0000
  Ba  Ba5       1.0  0.66937  0.74448  0.07507  1.0000
  Ba  Ba6       1.0  0.33063  0.25552  0.92493  1.0000
  P   P1        1.0  0.52544  0.99009  0.17520  1.0000
  P   P2        1.0  0.47456  0.00991  0.82480  1.0000
  P   P3        1.0  0.05425  0.86897  0.24605  1.0000
  P   P4        1.0  0.94575  0.13103  0.75395  1.0000
  P   P5        1.0  0.45949  0.46864  0.24565  1.0000
  P   P6        1.0  0.54051  0.53136  0.75435  1.0000
  P   P7        1.0  0.15121  0.22710  0.14096  1.0000
  P   P8        1.0  0.84879  0.77290  0.85904  1.0000
  P   P9        1.0  0.84128  0.52751  0.15749  1.0000
  P   P10       1.0  0.15872  0.47249  0.84251  1.0000
  P   P11       1.0  0.69046  0.01131  0.38087  1.0000
  P   P12       1.0  0.30954  0.98869  0.61913  1.0000
  H   H1        1.0  0.47895  0.18901  0.18662  1.0000
  H   H2        1.0  0.52105  0.81099  0.81338  1.0000
  H   H3        1.0  0.21290  0.00242  0.41725  1.0000
  H   H4        1.0  0.78710  0.99758  0.58275  1.0000
  H   H5        1.0  0.59427  0.71925  0.33871  1.0000
  H   H6        1.0  0.40573  0.28075  0.66129  1.0000
  H   H7        1.0  0.99841  0.04609  0.19068  1.0000
  H   H8        1.0  0.00159  0.95391  0.80932  1.0000
  H   H9        1.0  0.66893  0.39888  0.21997  1.0000
  H   H10       1.0  0.33107  0.60113  0.78003  1.0000
  H   H11       1.0  0.81110  0.13585  0.29836  1.0000
  H   H12       1.0  0.18890  0.86415  0.70164  1.0000
  H   H13       1.0  0.38553  0.93781  0.40006  1.0000
  H   H14       1.0  0.61447  0.06219  0.59994  1.0000
  H   H15       1.0  0.14595  0.76942  0.39300  1.0000
  H   H16       1.0  0.85404  0.23058  0.60700  1.0000
  H   H17       1.0  0.28430  0.57539  0.39257  1.0000
  H   H18       1.0  0.71570  0.42461  0.60743  1.0000
  H   H19       1.0  0.18966  0.31155  0.39560  1.0000
  H   H20       1.0  0.81034  0.68845  0.60440  1.0000
  H   H21       1.0  0.37633  0.44288  0.45247  1.0000
  H   H22       1.0  0.62367  0.55712  0.54753  1.0000
  H   H23       1.0  0.31092  0.24794  0.34797  1.0000
  H   H24       1.0  0.68908  0.75206  0.65203  1.0000
  H   H25       1.0  0.45972  0.19121  0.37538  1.0000
  H   H26       1.0  0.54028  0.80879  0.62462  1.0000
  H   H27       1.0  0.64726  0.27695  0.40334  1.0000
  H   H28       1.0  0.35274  0.72305  0.59666  1.0000
  H   H29       1.0  0.55902  0.20276  0.49454  1.0000
  H   H30       1.0  0.44098  0.79724  0.50546  1.0000
  H   H31       1.0  0.98182  0.85511  0.46161  1.0000
  H   H32       1.0  0.01818  0.14489  0.53838  1.0000
  H   H33       1.0  0.84702  0.65962  0.40295  1.0000
  H   H34       1.0  0.15298  0.34038  0.59705  1.0000
  H   H35       1.0  0.82478  0.78690  0.35858  1.0000
  H   H36       1.0  0.17522  0.21310  0.64142  1.0000
  C   C1        1.0  0.28621  0.39004  0.27813  1.0000
  C   C2        1.0  0.71380  0.60997  0.72187  1.0000
  C   C3        1.0  0.53780  0.02717  0.32863  1.0000
  C   C4        1.0  0.46220  0.97283  0.67137  1.0000
  C   C5        1.0  0.96911  0.71066  0.28576  1.0000
  C   C6        1.0  0.03089  0.28934  0.71424  1.0000
  C   C7        1.0  0.29166  0.34603  0.37435  1.0000
  C   C8        1.0  0.70834  0.65397  0.62565  1.0000
  C   C9        1.0  0.55222  0.18440  0.40509  1.0000
  C   C10       1.0  0.44778  0.81560  0.59491  1.0000
  C   C11       1.0  0.90114  0.75525  0.38295  1.0000
  C   C12       1.0  0.09886  0.24475  0.61705  1.0000
  O   O1        1.0  0.44882  0.07374  0.14623  1.0000
  O   O2        1.0  0.55118  0.92626  0.85377  1.0000
  O   O3        1.0  0.67776  0.05117  0.16486  1.0000
  O   O4        1.0  0.32224  0.94883  0.83514  1.0000
  O   O5        1.0  0.43002  0.81909  0.09427  1.0000
  O   O6        1.0  0.56998  0.18091  0.90573  1.0000
  O   O7        1.0  0.13985  0.82553  0.16479  1.0000
  O   O8        1.0  0.86015  0.17447  0.83521  1.0000
  O   O9        1.0  0.15348  0.01746  0.36656  1.0000
  O   O10       1.0  0.84652  0.98254  0.63344  1.0000
  O   O11       1.0  0.94778  0.90692  0.20227  1.0000
  O   O12       1.0  0.05222  0.09308  0.79773  1.0000
  O   O13       1.0  0.43713  0.49552  0.14146  1.0000
  O   O14       1.0  0.56287  0.50449  0.85854  1.0000
  O   O15       1.0  0.52251  0.36268  0.23550  1.0000
  O   O16       1.0  0.47749  0.63732  0.76450  1.0000
  O   O17       1.0  0.55309  0.62939  0.35787  1.0000
  O   O18       1.0  0.44691  0.37061  0.64213  1.0000
  O   O19       1.0  0.10745  0.29578  0.07375  1.0000
  O   O20       1.0  0.89255  0.70422  0.92625  1.0000
  O   O21       1.0  0.21383  0.12653  0.07802  1.0000
  O   O22       1.0  0.78617  0.87347  0.92198  1.0000
  O   O23       1.0  0.01484  0.14091  0.17652  1.0000
  O   O24       1.0  0.98516  0.85909  0.82349  1.0000
  O   O25       1.0  0.92376  0.46349  0.08239  1.0000
  O   O26       1.0  0.07623  0.53651  0.91761  1.0000
  O   O27       1.0  0.76378  0.40727  0.20446  1.0000
  O   O28       1.0  0.23622  0.59272  0.79554  1.0000
  O   O29       1.0  0.73681  0.54964  0.09457  1.0000
  O   O30       1.0  0.26319  0.45036  0.90543  1.0000
  O   O31       1.0  0.82891  0.14331  0.37657  1.0000
  O   O32       1.0  0.17109  0.85669  0.62343  1.0000
  O   O33       1.0  0.66332  0.84980  0.30167  1.0000
  O   O34       1.0  0.33668  0.15020  0.69833  1.0000
  O   O35       1.0  0.70937  0.05164  0.50868  1.0000
  O   O36       1.0  0.29063  0.94836  0.49132  1.0000
  O   O37       1.0  0.41546  0.90219  0.32784  1.0000
  O   O38       1.0  0.58454  0.09781  0.67216  1.0000
  O   O39       1.0  0.07902  0.67992  0.31851  1.0000
  O   O40       1.0  0.92098  0.32008  0.68148  1.0000
  O   O41       1.0  0.24323  0.50773  0.30952  1.0000
  O   O42       1.0  0.75677  0.49227  0.69048  1.0000
