data_image0
_chemical_formula_structural       Cu2H48C40S4Cl2O6
_chemical_formula_sum              "Cu2 H48 C40 S4 Cl2 O6"
_cell_length_a       9.44907
_cell_length_b       10.0761
_cell_length_c       12.4919
_cell_angle_alpha    105.618
_cell_angle_beta     99.0829
_cell_angle_gamma    93.9627

_space_group_name_H-M_alt    "P 1"
_space_group_IT_number       1

loop_
  _space_group_symop_operation_xyz
  'x, y, z'

loop_
  _atom_site_type_symbol
  _atom_site_label
  _atom_site_symmetry_multiplicity
  _atom_site_fract_x
  _atom_site_fract_y
  _atom_site_fract_z
  _atom_site_occupancy
  Cu  Cu1       1.0  0.40072  0.44882  0.38165  1.0000
  Cu  Cu2       1.0  0.59928  0.55118  0.61836  1.0000
  H   H1        1.0  0.18791  0.79787  0.93617  1.0000
  H   H2        1.0  0.81209  0.20212  0.06383  1.0000
  H   H3        1.0  0.07630  0.93554  0.95042  1.0000
  H   H4        1.0  0.92370  0.06445  0.04958  1.0000
  H   H5        1.0  0.02128  0.87923  0.13033  1.0000
  H   H6        1.0  0.97873  0.12077  0.86967  1.0000
  H   H7        1.0  0.93866  0.76339  0.99570  1.0000
  H   H8        1.0  0.06135  0.23660  0.00430  1.0000
  H   H9        1.0  0.84742  0.72717  0.14503  1.0000
  H   H10       1.0  0.15259  0.27283  0.85498  1.0000
  H   H11       1.0  0.73279  0.58627  0.24979  1.0000
  H   H12       1.0  0.26721  0.41374  0.75022  1.0000
  H   H13       1.0  0.85598  0.39911  0.30531  1.0000
  H   H14       1.0  0.14401  0.60089  0.69470  1.0000
  H   H15       1.0  0.09092  0.34479  0.24582  1.0000
  H   H16       1.0  0.90906  0.65520  0.75418  1.0000
  H   H17       1.0  0.26166  0.51038  0.05742  1.0000
  H   H18       1.0  0.73834  0.48961  0.94258  1.0000
  H   H19       1.0  0.25351  0.36175  0.10780  1.0000
  H   H20       1.0  0.74649  0.63824  0.89221  1.0000
  H   H21       1.0  0.51232  0.77162  0.30977  1.0000
  H   H22       1.0  0.48768  0.22838  0.69023  1.0000
  H   H23       1.0  0.36920  0.75338  0.19403  1.0000
  H   H24       1.0  0.63080  0.24661  0.80597  1.0000
  H   H25       1.0  0.19164  0.77533  0.32021  1.0000
  H   H26       1.0  0.80836  0.22466  0.67978  1.0000
  H   H27       1.0  0.32073  0.75097  0.43206  1.0000
  H   H28       1.0  0.67926  0.24903  0.56794  1.0000
  H   H29       1.0  0.28011  0.01604  0.53802  1.0000
  H   H30       1.0  0.71989  0.98396  0.46198  1.0000
  H   H31       1.0  0.15975  0.00717  0.40925  1.0000
  H   H32       1.0  0.84025  0.99283  0.59075  1.0000
  H   H33       1.0  0.45074  0.19393  0.49684  1.0000
  H   H34       1.0  0.54925  0.80607  0.50316  1.0000
  H   H35       1.0  0.28106  0.25298  0.51621  1.0000
  H   H36       1.0  0.71893  0.74702  0.48379  1.0000
  H   H37       1.0  0.55699  0.18593  0.31139  1.0000
  H   H38       1.0  0.44301  0.81407  0.68861  1.0000
  H   H39       1.0  0.43642  0.02603  0.25916  1.0000
  H   H40       1.0  0.56358  0.97397  0.74083  1.0000
  H   H41       1.0  0.60442  0.32096  0.18759  1.0000
  H   H42       1.0  0.39557  0.67906  0.81241  1.0000
  H   H43       1.0  0.57692  0.35119  0.99421  1.0000
  H   H44       1.0  0.42307  0.64883  0.00580  1.0000
  H   H45       1.0  0.39433  0.19055  0.83798  1.0000
  H   H46       1.0  0.60567  0.80947  0.16202  1.0000
  H   H47       1.0  0.24373  0.00399  0.87439  1.0000
  H   H48       1.0  0.75628  0.99601  0.12560  1.0000
  C   C1        1.0  0.14048  0.87458  0.99691  1.0000
  C   C2        1.0  0.85953  0.12541  0.00309  1.0000
  C   C3        1.0  0.04216  0.80367  0.05389  1.0000
  C   C4        1.0  0.95785  0.19632  0.94610  1.0000
  C   C5        1.0  0.03603  0.61642  0.13791  1.0000
  C   C6        1.0  0.96396  0.38356  0.86209  1.0000
  C   C7        1.0  0.90203  0.64440  0.16773  1.0000
  C   C8        1.0  0.09797  0.35561  0.83227  1.0000
  C   C9        1.0  0.83740  0.56482  0.22687  1.0000
  C   C10       1.0  0.16260  0.43518  0.77314  1.0000
  C   C11       1.0  0.90514  0.45766  0.25615  1.0000
  C   C12       1.0  0.09486  0.54235  0.74385  1.0000
  C   C13       1.0  0.03711  0.42883  0.22390  1.0000
  C   C14       1.0  0.96288  0.57116  0.77611  1.0000
  C   C15       1.0  0.10445  0.50627  0.16454  1.0000
  C   C16       1.0  0.89555  0.49373  0.83546  1.0000
  C   C17       1.0  0.24577  0.47385  0.13026  1.0000
  C   C18       1.0  0.75423  0.52614  0.86975  1.0000
  C   C19       1.0  0.39963  0.72735  0.27378  1.0000
  C   C20       1.0  0.60037  0.27264  0.72622  1.0000
  C   C21       1.0  0.30720  0.79304  0.35844  1.0000
  C   C22       1.0  0.69279  0.20697  0.64156  1.0000
  C   C23       1.0  0.27426  0.02900  0.45201  1.0000
  C   C24       1.0  0.72573  0.97100  0.54798  1.0000
  C   C25       1.0  0.33494  0.17590  0.46129  1.0000
  C   C26       1.0  0.66505  0.82409  0.53871  1.0000
  C   C27       1.0  0.45272  0.13462  0.25935  1.0000
  C   C28       1.0  0.54728  0.86538  0.74065  1.0000
  C   C29       1.0  0.43759  0.15006  0.14251  1.0000
  C   C30       1.0  0.56240  0.84994  0.85749  1.0000
  C   C31       1.0  0.52451  0.25251  0.11873  1.0000
  C   C32       1.0  0.47549  0.74750  0.88127  1.0000
  C   C33       1.0  0.50921  0.26918  0.01016  1.0000
  C   C34       1.0  0.49078  0.73083  0.98984  1.0000
  C   C35       1.0  0.40677  0.18024  0.92345  1.0000
  C   C36       1.0  0.59323  0.81977  0.07656  1.0000
  C   C37       1.0  0.31967  0.07532  0.94410  1.0000
  C   C38       1.0  0.68033  0.92468  0.05590  1.0000
  C   C39       1.0  0.33367  0.06110  0.05361  1.0000
  C   C40       1.0  0.66634  0.93890  0.94639  1.0000
  S   S1        1.0  0.40662  0.54191  0.24057  1.0000
  S   S2        1.0  0.59338  0.45809  0.75944  1.0000
  S   S3        1.0  0.31176  0.22109  0.32851  1.0000
  S   S4        1.0  0.68824  0.77892  0.67149  1.0000
  Cl  Cl1       1.0  0.33898  0.55782  0.55248  1.0000
  Cl  Cl2       1.0  0.66102  0.44218  0.44752  1.0000
  O   O1        1.0  0.25119  0.96408  0.08269  1.0000
  O   O2        1.0  0.74882  0.03592  0.91730  1.0000
  O   O3        1.0  0.10947  0.69264  0.08352  1.0000
  O   O4        1.0  0.89053  0.30735  0.91647  1.0000
  O   O5        1.0  0.35913  0.93739  0.38973  1.0000
  O   O6        1.0  0.64085  0.06261  0.61027  1.0000
