data_image0
_chemical_formula_structural       Zn4H40C28N16Cl4O4
_chemical_formula_sum              "Zn4 H40 C28 N16 Cl4 O4"
_cell_length_a       8.59825
_cell_length_b       9.66739
_cell_length_c       12.5201
_cell_angle_alpha    97.5745
_cell_angle_beta     90
_cell_angle_gamma    89.9999

_space_group_name_H-M_alt    "P 1"
_space_group_IT_number       1

loop_
  _space_group_symop_operation_xyz
  'x, y, z'

loop_
  _atom_site_type_symbol
  _atom_site_label
  _atom_site_symmetry_multiplicity
  _atom_site_fract_x
  _atom_site_fract_y
  _atom_site_fract_z
  _atom_site_occupancy
  Zn  Zn1       1.0  0.90226  0.32065  0.80068  1.0000
  Zn  Zn2       1.0  0.40226  0.67935  0.69932  1.0000
  Zn  Zn3       1.0  0.09774  0.67934  0.19932  1.0000
  Zn  Zn4       1.0  0.59774  0.32065  0.30068  1.0000
  H   H1        1.0  0.72014  0.33997  0.04918  1.0000
  H   H2        1.0  0.22013  0.66004  0.45083  1.0000
  H   H3        1.0  0.27987  0.66004  0.95083  1.0000
  H   H4        1.0  0.77987  0.33996  0.54917  1.0000
  H   H5        1.0  0.26147  0.02919  0.12529  1.0000
  H   H6        1.0  0.76147  0.97081  0.37471  1.0000
  H   H7        1.0  0.73853  0.97082  0.87470  1.0000
  H   H8        1.0  0.23853  0.02919  0.62529  1.0000
  H   H9        1.0  0.38360  0.16158  0.08516  1.0000
  H   H10       1.0  0.88360  0.83842  0.41484  1.0000
  H   H11       1.0  0.61640  0.83842  0.91484  1.0000
  H   H12       1.0  0.11640  0.16158  0.58516  1.0000
  H   H13       1.0  0.31840  0.02079  0.98819  1.0000
  H   H14       1.0  0.81840  0.97921  0.51181  1.0000
  H   H15       1.0  0.68160  0.97921  0.01180  1.0000
  H   H16       1.0  0.18160  0.02079  0.48819  1.0000
  H   H17       1.0  0.36053  0.18817  0.89252  1.0000
  H   H18       1.0  0.86052  0.81183  0.60748  1.0000
  H   H19       1.0  0.63948  0.81183  0.10748  1.0000
  H   H20       1.0  0.13947  0.18817  0.39252  1.0000
  H   H21       1.0  0.26566  0.33722  0.85032  1.0000
  H   H22       1.0  0.76566  0.66278  0.64968  1.0000
  H   H23       1.0  0.73434  0.66278  0.14968  1.0000
  H   H24       1.0  0.23434  0.33722  0.35032  1.0000
  H   H25       1.0  0.20783  0.16593  0.79645  1.0000
  H   H26       1.0  0.70783  0.83407  0.70355  1.0000
  H   H27       1.0  0.79217  0.83407  0.20355  1.0000
  H   H28       1.0  0.29217  0.16593  0.29645  1.0000
  H   H29       1.0  0.04327  0.10959  0.17982  1.0000
  H   H30       1.0  0.54327  0.89041  0.32018  1.0000
  H   H31       1.0  0.95673  0.89041  0.82018  1.0000
  H   H32       1.0  0.45673  0.10959  0.67981  1.0000
  H   H33       1.0  0.90758  0.14503  0.07947  1.0000
  H   H34       1.0  0.40758  0.85497  0.42053  1.0000
  H   H35       1.0  0.09242  0.85497  0.92053  1.0000
  H   H36       1.0  0.59241  0.14503  0.57947  1.0000
  H   H37       1.0  0.00190  0.28603  0.15833  1.0000
  H   H38       1.0  0.50190  0.71397  0.34167  1.0000
  H   H39       1.0  0.99810  0.71397  0.84167  1.0000
  H   H40       1.0  0.49810  0.28603  0.65833  1.0000
  C   C1        1.0  0.61660  0.45676  0.92885  1.0000
  C   C2        1.0  0.11659  0.54324  0.57115  1.0000
  C   C3        1.0  0.38341  0.54324  0.07116  1.0000
  C   C4        1.0  0.88340  0.45676  0.42885  1.0000
  C   C5        1.0  0.49469  0.54698  0.90132  1.0000
  C   C6        1.0  0.99469  0.45302  0.59868  1.0000
  C   C7        1.0  0.50532  0.45302  0.09869  1.0000
  C   C8        1.0  0.00531  0.54698  0.40132  1.0000
  C   C9        1.0  0.62600  0.40669  0.02831  1.0000
  C   C10       1.0  0.12599  0.59331  0.47170  1.0000
  C   C11       1.0  0.37401  0.59331  0.97170  1.0000
  C   C12       1.0  0.87401  0.40669  0.52830  1.0000
  C   C13       1.0  0.12536  0.23367  0.95340  1.0000
  C   C14       1.0  0.62536  0.76633  0.54660  1.0000
  C   C15       1.0  0.87464  0.76633  0.04660  1.0000
  C   C16       1.0  0.37464  0.23367  0.45340  1.0000
  C   C17       1.0  0.28560  0.09178  0.06040  1.0000
  C   C18       1.0  0.78560  0.90822  0.43960  1.0000
  C   C19       1.0  0.71440  0.90822  0.93960  1.0000
  C   C20       1.0  0.21439  0.09178  0.56040  1.0000
  C   C21       1.0  0.24955  0.23064  0.86965  1.0000
  C   C22       1.0  0.74955  0.76936  0.63036  1.0000
  C   C23       1.0  0.75045  0.76936  0.13035  1.0000
  C   C24       1.0  0.25045  0.23064  0.36964  1.0000
  C   C25       1.0  0.01734  0.17824  0.11937  1.0000
  C   C26       1.0  0.51734  0.82176  0.38063  1.0000
  C   C27       1.0  0.98266  0.82176  0.88063  1.0000
  C   C28       1.0  0.48266  0.17824  0.61937  1.0000
  N   N1        1.0  0.52511  0.57091  0.79715  1.0000
  N   N2        1.0  0.02511  0.42908  0.70285  1.0000
  N   N3        1.0  0.47490  0.42908  0.20285  1.0000
  N   N4        1.0  0.97489  0.57091  0.29715  1.0000
  N   N5        1.0  0.65366  0.50282  0.76290  1.0000
  N   N6        1.0  0.15366  0.49717  0.73710  1.0000
  N   N7        1.0  0.34634  0.49717  0.23710  1.0000
  N   N8        1.0  0.84634  0.50282  0.26290  1.0000
  N   N9        1.0  0.71108  0.43444  0.83942  1.0000
  N   N10       1.0  0.21107  0.56557  0.66058  1.0000
  N   N11       1.0  0.28892  0.56556  0.16058  1.0000
  N   N12       1.0  0.78892  0.43443  0.33942  1.0000
  N   N13       1.0  0.14435  0.16984  0.04070  1.0000
  N   N14       1.0  0.64435  0.83016  0.45930  1.0000
  N   N15       1.0  0.85565  0.83016  0.95930  1.0000
  N   N16       1.0  0.35565  0.16984  0.54070  1.0000
  Cl  Cl1       1.0  0.85705  0.10621  0.71639  1.0000
  Cl  Cl2       1.0  0.35705  0.89379  0.78361  1.0000
  Cl  Cl3       1.0  0.14295  0.89379  0.28360  1.0000
  Cl  Cl4       1.0  0.64295  0.10620  0.21639  1.0000
  O   O1        1.0  0.99756  0.29822  0.94221  1.0000
  O   O2        1.0  0.49756  0.70178  0.55780  1.0000
  O   O3        1.0  0.00244  0.70178  0.05779  1.0000
  O   O4        1.0  0.50244  0.29822  0.44220  1.0000
