data_image0
_chemical_formula_structural       Ag2P4H48C36S4O4
_chemical_formula_sum              "Ag2 P4 H48 C36 S4 O4"
_cell_length_a       9.31331
_cell_length_b       10.4214
_cell_length_c       11.4492
_cell_angle_alpha    67.5931
_cell_angle_beta     86.2973
_cell_angle_gamma    85.1891

_space_group_name_H-M_alt    "P 1"
_space_group_IT_number       1

loop_
  _space_group_symop_operation_xyz
  'x, y, z'

loop_
  _atom_site_type_symbol
  _atom_site_label
  _atom_site_symmetry_multiplicity
  _atom_site_fract_x
  _atom_site_fract_y
  _atom_site_fract_z
  _atom_site_occupancy
  Ag  Ag1       1.0  0.04000  0.97753  0.64965  1.0000
  Ag  Ag2       1.0  0.95999  0.02247  0.35035  1.0000
  P   P1        1.0  0.09274  0.28169  0.40047  1.0000
  P   P2        1.0  0.90726  0.71831  0.59953  1.0000
  P   P3        1.0  0.25989  0.89329  0.75888  1.0000
  P   P4        1.0  0.74011  0.10671  0.24112  1.0000
  H   H1        1.0  0.14627  0.49607  0.15438  1.0000
  H   H2        1.0  0.85373  0.50393  0.84562  1.0000
  H   H3        1.0  0.24046  0.52766  0.27023  1.0000
  H   H4        1.0  0.75954  0.47234  0.72977  1.0000
  H   H5        1.0  0.12433  0.74866  0.10668  1.0000
  H   H6        1.0  0.87567  0.25134  0.89333  1.0000
  H   H7        1.0  0.06503  0.72165  0.26484  1.0000
  H   H8        1.0  0.93497  0.27835  0.73516  1.0000
  H   H9        1.0  0.95274  0.68166  0.16416  1.0000
  H   H10       1.0  0.04727  0.31835  0.83584  1.0000
  H   H11       1.0  0.11700  0.42403  0.55008  1.0000
  H   H12       1.0  0.88300  0.57596  0.44993  1.0000
  H   H13       1.0  0.18657  0.26432  0.66435  1.0000
  H   H14       1.0  0.81343  0.73567  0.33566  1.0000
  H   H15       1.0  0.33416  0.46507  0.64403  1.0000
  H   H16       1.0  0.66583  0.53492  0.35598  1.0000
  H   H17       1.0  0.36790  0.49795  0.48113  1.0000
  H   H18       1.0  0.63211  0.50205  0.51888  1.0000
  H   H19       1.0  0.43983  0.34074  0.59693  1.0000
  H   H20       1.0  0.56017  0.65925  0.40308  1.0000
  H   H21       1.0  0.09756  0.07922  0.86327  1.0000
  H   H22       1.0  0.90244  0.92079  0.13672  1.0000
  H   H23       1.0  0.11623  0.12106  0.06236  1.0000
  H   H24       1.0  0.88377  0.87895  0.93764  1.0000
  H   H25       1.0  0.29885  0.98398  0.21778  1.0000
  H   H26       1.0  0.70114  0.01602  0.78222  1.0000
  H   H27       1.0  0.47001  0.81025  0.17181  1.0000
  H   H28       1.0  0.52998  0.18975  0.82818  1.0000
  H   H29       1.0  0.45102  0.76983  0.97275  1.0000
  H   H30       1.0  0.54898  0.23017  0.02724  1.0000
  H   H31       1.0  0.52296  0.69867  0.75675  1.0000
  H   H32       1.0  0.47704  0.30133  0.24325  1.0000
  H   H33       1.0  0.55284  0.44306  0.84398  1.0000
  H   H34       1.0  0.44717  0.55695  0.15601  1.0000
  H   H35       1.0  0.34488  0.30071  0.95288  1.0000
  H   H36       1.0  0.65513  0.69929  0.04711  1.0000
  H   H37       1.0  0.10770  0.41761  0.97275  1.0000
  H   H38       1.0  0.89231  0.58239  0.02724  1.0000
  H   H39       1.0  0.07264  0.67580  0.87656  1.0000
  H   H40       1.0  0.92735  0.32420  0.12343  1.0000
  H   H41       1.0  0.41268  0.07788  0.65948  1.0000
  H   H42       1.0  0.58732  0.92212  0.34052  1.0000
  H   H43       1.0  0.51858  0.91910  0.72464  1.0000
  H   H44       1.0  0.48142  0.08090  0.27537  1.0000
  H   H45       1.0  0.45227  0.85080  0.54775  1.0000
  H   H46       1.0  0.54774  0.14920  0.45226  1.0000
  H   H47       1.0  0.33632  0.00292  0.48798  1.0000
  H   H48       1.0  0.66369  0.99708  0.51202  1.0000
  C   C1        1.0  0.13344  0.53451  0.23182  1.0000
  C   C2        1.0  0.86656  0.46550  0.76818  1.0000
  C   C3        1.0  0.06449  0.68044  0.18976  1.0000
  C   C4        1.0  0.93551  0.31956  0.81025  1.0000
  C   C5        1.0  0.21013  0.34784  0.57297  1.0000
  C   C6        1.0  0.78987  0.65215  0.42704  1.0000
  C   C7        1.0  0.34618  0.41645  0.57382  1.0000
  C   C8        1.0  0.65382  0.58355  0.42619  1.0000
  C   C9        1.0  0.27427  0.92302  0.90505  1.0000
  C   C10       1.0  0.72573  0.07697  0.09496  1.0000
  C   C11       1.0  0.18051  0.02232  0.93025  1.0000
  C   C12       1.0  0.81949  0.97769  0.06974  1.0000
  C   C13       1.0  0.19072  0.04513  0.04195  1.0000
  C   C14       1.0  0.80928  0.95488  0.95804  1.0000
  C   C15       1.0  0.29379  0.96815  0.12941  1.0000
  C   C16       1.0  0.70619  0.03185  0.87059  1.0000
  C   C17       1.0  0.38861  0.86986  0.10414  1.0000
  C   C18       1.0  0.61139  0.13014  0.89587  1.0000
  C   C19       1.0  0.37889  0.84754  0.99249  1.0000
  C   C20       1.0  0.62111  0.15247  0.00751  1.0000
  C   C21       1.0  0.29530  0.70516  0.81283  1.0000
  C   C22       1.0  0.70469  0.29484  0.18717  1.0000
  C   C23       1.0  0.43025  0.63882  0.80240  1.0000
  C   C24       1.0  0.56975  0.36118  0.19759  1.0000
  C   C25       1.0  0.44750  0.49367  0.85214  1.0000
  C   C26       1.0  0.55250  0.50633  0.14785  1.0000
  C   C27       1.0  0.33197  0.41400  0.91356  1.0000
  C   C28       1.0  0.66803  0.58600  0.08642  1.0000
  C   C29       1.0  0.19771  0.47977  0.92425  1.0000
  C   C30       1.0  0.80229  0.52022  0.07574  1.0000
  C   C31       1.0  0.17889  0.62427  0.87271  1.0000
  C   C32       1.0  0.82110  0.37573  0.12729  1.0000
  C   C33       1.0  0.42275  0.96832  0.66899  1.0000
  C   C34       1.0  0.57725  0.03169  0.33102  1.0000
  C   C35       1.0  0.43680  0.96010  0.53855  1.0000
  C   C36       1.0  0.56320  0.03990  0.46146  1.0000
  S   S1        1.0  0.92031  0.20249  0.51156  1.0000
  S   S2        1.0  0.07969  0.79752  0.48844  1.0000
  S   S3        1.0  0.17085  0.19658  0.27900  1.0000
  S   S4        1.0  0.82915  0.80342  0.72101  1.0000
  O   O1        1.0  0.04012  0.44365  0.33051  1.0000
  O   O2        1.0  0.95988  0.55635  0.66949  1.0000
  O   O3        1.0  0.23014  0.28413  0.47865  1.0000
  O   O4        1.0  0.76986  0.71587  0.52135  1.0000
