data_image0
_chemical_formula_structural       Ni2H28C32N4O12
_chemical_formula_sum              "Ni2 H28 C32 N4 O12"
_cell_length_a       7.59763
_cell_length_b       8.68474
_cell_length_c       13.0213
_cell_angle_alpha    75.6677
_cell_angle_beta     90.4355
_cell_angle_gamma    72.2227

_space_group_name_H-M_alt    "P 1"
_space_group_IT_number       1

loop_
  _space_group_symop_operation_xyz
  'x, y, z'

loop_
  _atom_site_type_symbol
  _atom_site_label
  _atom_site_symmetry_multiplicity
  _atom_site_fract_x
  _atom_site_fract_y
  _atom_site_fract_z
  _atom_site_occupancy
  Ni  Ni1       1.0  0.14258  0.25190  0.24137  1.0000
  Ni  Ni2       1.0  0.85742  0.74811  0.75863  1.0000
  H   H1        1.0  0.81929  0.57377  0.15385  1.0000
  H   H2        1.0  0.18070  0.42623  0.84615  1.0000
  H   H3        1.0  0.56370  0.73381  0.24445  1.0000
  H   H4        1.0  0.43631  0.26621  0.75556  1.0000
  H   H5        1.0  0.56777  0.64714  0.44274  1.0000
  H   H6        1.0  0.43225  0.35286  0.55727  1.0000
  H   H7        1.0  0.74162  0.43034  0.62427  1.0000
  H   H8        1.0  0.25837  0.56967  0.37572  1.0000
  H   H9        1.0  0.97953  0.16427  0.70793  1.0000
  H   H10       1.0  0.02045  0.83573  0.29207  1.0000
  H   H11       1.0  0.24738  0.90645  0.68711  1.0000
  H   H12       1.0  0.75262  0.09355  0.31289  1.0000
  H   H13       1.0  0.44904  0.77127  0.56229  1.0000
  H   H14       1.0  0.55097  0.22874  0.43771  1.0000
  H   H15       1.0  0.40899  0.92033  0.36581  1.0000
  H   H16       1.0  0.59102  0.07968  0.63419  1.0000
  H   H17       1.0  0.84379  0.93692  0.03307  1.0000
  H   H18       1.0  0.15622  0.06306  0.96694  1.0000
  H   H19       1.0  0.54463  0.93073  0.09149  1.0000
  H   H20       1.0  0.45537  0.06926  0.90851  1.0000
  H   H21       1.0  0.18279  0.41336  0.06715  1.0000
  H   H22       1.0  0.81721  0.58665  0.93284  1.0000
  H   H23       1.0  0.00661  0.33268  0.05713  1.0000
  H   H24       1.0  0.99339  0.66732  0.94287  1.0000
  H   H25       1.0  0.24132  0.65694  0.12879  1.0000
  H   H26       1.0  0.75867  0.34304  0.87122  1.0000
  H   H27       1.0  0.38085  0.48377  0.18670  1.0000
  H   H28       1.0  0.61915  0.51622  0.81331  1.0000
  C   C1        1.0  0.81526  0.53783  0.23975  1.0000
  C   C2        1.0  0.18474  0.46217  0.76025  1.0000
  C   C3        1.0  0.67534  0.62812  0.29212  1.0000
  C   C4        1.0  0.32466  0.37188  0.70788  1.0000
  C   C5        1.0  0.67703  0.57907  0.40187  1.0000
  C   C6        1.0  0.32299  0.42093  0.59813  1.0000
  C   C7        1.0  0.81902  0.43631  0.46097  1.0000
  C   C8        1.0  0.18099  0.56369  0.53903  1.0000
  C   C9        1.0  0.83709  0.36707  0.57421  1.0000
  C   C10       1.0  0.16291  0.63293  0.42579  1.0000
  C   C11       1.0  0.97158  0.21882  0.62244  1.0000
  C   C12       1.0  0.02841  0.78118  0.37756  1.0000
  C   C13       1.0  0.10087  0.12768  0.56171  1.0000
  C   C14       1.0  0.89912  0.87232  0.43829  1.0000
  C   C15       1.0  0.23584  0.96882  0.60250  1.0000
  C   C16       1.0  0.76416  0.03119  0.39750  1.0000
  C   C17       1.0  0.34526  0.89409  0.53246  1.0000
  C   C18       1.0  0.65474  0.10592  0.46754  1.0000
  C   C19       1.0  0.32550  0.97476  0.42322  1.0000
  C   C20       1.0  0.67451  0.02524  0.57678  1.0000
  C   C21       1.0  0.08955  0.19960  0.45127  1.0000
  C   C22       1.0  0.91045  0.80040  0.54873  1.0000
  C   C23       1.0  0.95064  0.35134  0.40146  1.0000
  C   C24       1.0  0.04937  0.64866  0.59854  1.0000
  C   C25       1.0  0.86884  0.14378  0.09329  1.0000
  C   C26       1.0  0.13115  0.85623  0.90671  1.0000
  C   C27       1.0  0.76553  0.03160  0.07195  1.0000
  C   C28       1.0  0.23448  0.96840  0.92805  1.0000
  C   C29       1.0  0.59901  0.02781  0.10388  1.0000
  C   C30       1.0  0.40100  0.97218  0.89611  1.0000
  C   C31       1.0  0.47455  0.15198  0.15330  1.0000
  C   C32       1.0  0.52544  0.84801  0.84668  1.0000
  N   N1        1.0  0.95003  0.40091  0.29340  1.0000
  N   N2        1.0  0.04996  0.59909  0.70660  1.0000
  N   N3        1.0  0.20147  0.12629  0.38323  1.0000
  N   N4        1.0  0.79853  0.87371  0.61677  1.0000
  O   O1        1.0  0.93701  0.11144  0.18718  1.0000
  O   O2        1.0  0.06299  0.88855  0.81282  1.0000
  O   O3        1.0  0.89572  0.25494  0.01383  1.0000
  O   O4        1.0  0.10429  0.74506  0.98617  1.0000
  O   O5        1.0  0.33839  0.10212  0.19563  1.0000
  O   O6        1.0  0.66161  0.89789  0.80436  1.0000
  O   O7        1.0  0.49868  0.28895  0.15124  1.0000
  O   O8        1.0  0.50132  0.71105  0.84875  1.0000
  O   O9        1.0  0.07474  0.39310  0.10085  1.0000
  O   O10       1.0  0.92527  0.60691  0.89915  1.0000
  O   O11       1.0  0.31320  0.59432  0.19757  1.0000
  O   O12       1.0  0.68680  0.40568  0.80244  1.0000
