data_image0
_chemical_formula_structural       Cu2H16C26Br6N4O2
_chemical_formula_sum              "Cu2 H16 C26 Br6 N4 O2"
_cell_length_a       3.99875
_cell_length_b       11.9328
_cell_length_c       14.4541
_cell_angle_alpha    90
_cell_angle_beta     90
_cell_angle_gamma    96.8376

_space_group_name_H-M_alt    "P 1"
_space_group_IT_number       1

loop_
  _space_group_symop_operation_xyz
  'x, y, z'

loop_
  _atom_site_type_symbol
  _atom_site_label
  _atom_site_symmetry_multiplicity
  _atom_site_fract_x
  _atom_site_fract_y
  _atom_site_fract_z
  _atom_site_occupancy
  Cu  Cu1       1.0  0.17693  0.29404  0.74985  1.0000
  Cu  Cu2       1.0  0.67693  0.79405  0.25015  1.0000
  H   H1        1.0  0.58351  0.26343  0.57265  1.0000
  H   H2        1.0  0.08351  0.76343  0.42734  1.0000
  H   H3        1.0  0.83658  0.31331  0.41714  1.0000
  H   H4        1.0  0.33658  0.81331  0.58286  1.0000
  H   H5        1.0  0.79120  0.49904  0.34565  1.0000
  H   H6        1.0  0.29120  0.99904  0.65435  1.0000
  H   H7        1.0  0.50649  0.64533  0.42811  1.0000
  H   H8        1.0  0.00650  0.14533  0.57190  1.0000
  H   H9        1.0  0.95540  0.73741  0.68175  1.0000
  H   H10       1.0  0.45540  0.23742  0.31825  1.0000
  H   H11       1.0  0.92348  0.43274  0.84561  1.0000
  H   H12       1.0  0.42349  0.93274  0.15440  1.0000
  H   H13       1.0  0.40751  0.81381  0.95928  1.0000
  H   H14       1.0  0.90751  0.31381  0.04072  1.0000
  H   H15       1.0  0.39324  0.69176  0.02591  1.0000
  H   H16       1.0  0.89323  0.19176  0.97409  1.0000
  C   C1        1.0  0.41118  0.42815  0.58725  1.0000
  C   C2        1.0  0.91118  0.92815  0.41275  1.0000
  C   C3        1.0  0.56712  0.34560  0.54112  1.0000
  C   C4        1.0  0.06712  0.84560  0.45887  1.0000
  C   C5        1.0  0.70422  0.37420  0.45412  1.0000
  C   C6        1.0  0.20421  0.87420  0.54588  1.0000
  C   C7        1.0  0.68232  0.48027  0.41371  1.0000
  C   C8        1.0  0.18232  0.98027  0.58629  1.0000
  C   C9        1.0  0.52629  0.56331  0.45932  1.0000
  C   C10       1.0  0.02630  0.06331  0.54068  1.0000
  C   C11       1.0  0.39780  0.53375  0.54594  1.0000
  C   C12       1.0  0.89780  0.03375  0.45406  1.0000
  C   C13       1.0  0.14559  0.52974  0.68138  1.0000
  C   C14       1.0  0.64560  0.02974  0.31862  1.0000
  C   C15       1.0  0.96561  0.57849  0.75422  1.0000
  C   C16       1.0  0.46561  0.07850  0.24579  1.0000
  C   C17       1.0  0.88555  0.68976  0.74432  1.0000
  C   C18       1.0  0.38556  0.18976  0.25568  1.0000
  C   C19       1.0  0.71996  0.73983  0.81394  1.0000
  C   C20       1.0  0.21996  0.23983  0.18606  1.0000
  C   C21       1.0  0.61809  0.68337  0.89767  1.0000
  C   C22       1.0  0.11810  0.18337  0.10233  1.0000
  C   C23       1.0  0.69770  0.57054  0.90424  1.0000
  C   C24       1.0  0.19770  0.07054  0.09576  1.0000
  C   C25       1.0  0.86772  0.51933  0.83607  1.0000
  C   C26       1.0  0.36772  0.01933  0.16393  1.0000
  Br  Br1       1.0  0.64501  0.19529  0.79426  1.0000
  Br  Br2       1.0  0.14500  0.69529  0.20574  1.0000
  Br  Br3       1.0  0.63111  0.89190  0.79736  1.0000
  Br  Br4       1.0  0.13111  0.39190  0.20264  1.0000
  Br  Br5       1.0  0.55647  0.48948  0.01350  1.0000
  Br  Br6       1.0  0.05647  0.98948  0.98650  1.0000
  N   N1        1.0  0.45831  0.73285  0.96575  1.0000
  N   N2        1.0  0.95831  0.23285  0.03425  1.0000
  N   N3        1.0  0.24693  0.42821  0.67311  1.0000
  N   N4        1.0  0.74693  0.92821  0.32689  1.0000
  O   O1        1.0  0.23143  0.59795  0.60577  1.0000
  O   O2        1.0  0.73143  0.09795  0.39423  1.0000
