data_image0
_chemical_formula_structural       Na4Zn2H36C8N36O16
_chemical_formula_sum              "Na4 Zn2 H36 C8 N36 O16"
_cell_length_a       6.96244
_cell_length_b       11.8787
_cell_length_c       13.5981
_cell_angle_alpha    63.2384
_cell_angle_beta     80.1787
_cell_angle_gamma    81.1898

_space_group_name_H-M_alt    "P 1"
_space_group_IT_number       1

loop_
  _space_group_symop_operation_xyz
  'x, y, z'

loop_
  _atom_site_type_symbol
  _atom_site_label
  _atom_site_symmetry_multiplicity
  _atom_site_fract_x
  _atom_site_fract_y
  _atom_site_fract_z
  _atom_site_occupancy
  Na  Na1       1.0  0.17997  0.88801  0.07554  1.0000
  Na  Na2       1.0  0.82003  0.11199  0.92446  1.0000
  Na  Na3       1.0  0.36183  0.62758  0.01922  1.0000
  Na  Na4       1.0  0.63816  0.37242  0.98078  1.0000
  Zn  Zn1       1.0  0.24586  0.71219  0.57688  1.0000
  Zn  Zn2       1.0  0.75414  0.28781  0.42312  1.0000
  H   H1        1.0  0.07882  0.06758  0.62323  1.0000
  H   H2        1.0  0.92117  0.93242  0.37677  1.0000
  H   H3        1.0  0.31945  0.40039  0.47821  1.0000
  H   H4        1.0  0.68055  0.59961  0.52179  1.0000
  H   H5        1.0  0.59703  0.62851  0.66686  1.0000
  H   H6        1.0  0.40297  0.37149  0.33314  1.0000
  H   H7        1.0  0.61773  0.76796  0.57131  1.0000
  H   H8        1.0  0.38227  0.23204  0.42869  1.0000
  H   H9        1.0  0.56213  0.77187  0.08885  1.0000
  H   H10       1.0  0.43787  0.22813  0.91115  1.0000
  H   H11       1.0  0.54193  0.87223  0.96277  1.0000
  H   H12       1.0  0.45806  0.12777  0.03723  1.0000
  H   H13       1.0  0.98752  0.72740  0.98721  1.0000
  H   H14       1.0  0.01248  0.27260  0.01279  1.0000
  H   H15       1.0  0.93498  0.70271  0.11038  1.0000
  H   H16       1.0  0.06502  0.29729  0.88962  1.0000
  H   H17       1.0  0.22114  0.04484  0.17085  1.0000
  H   H18       1.0  0.77885  0.95516  0.82915  1.0000
  H   H19       1.0  0.40031  0.95221  0.21510  1.0000
  H   H20       1.0  0.59968  0.04779  0.78490  1.0000
  H   H21       1.0  0.19213  0.09075  0.81528  1.0000
  H   H22       1.0  0.80787  0.90925  0.18472  1.0000
  H   H23       1.0  0.10195  0.96310  0.84901  1.0000
  H   H24       1.0  0.89805  0.03691  0.15099  1.0000
  H   H25       1.0  0.72696  0.52607  0.10007  1.0000
  H   H26       1.0  0.27304  0.47393  0.89993  1.0000
  H   H27       1.0  0.76859  0.61136  0.97257  1.0000
  H   H28       1.0  0.23140  0.38864  0.02743  1.0000
  H   H29       1.0  0.16758  0.43146  0.21466  1.0000
  H   H30       1.0  0.83242  0.56854  0.78534  1.0000
  H   H31       1.0  0.23334  0.52843  0.25369  1.0000
  H   H32       1.0  0.76666  0.47156  0.74631  1.0000
  H   H33       1.0  0.49280  0.79584  0.76938  1.0000
  H   H34       1.0  0.50720  0.20416  0.23062  1.0000
  H   H35       1.0  0.51027  0.64910  0.81524  1.0000
  H   H36       1.0  0.48973  0.35090  0.18476  1.0000
  C   C1        1.0  0.23623  0.99782  0.51513  1.0000
  C   C2        1.0  0.76377  0.00218  0.48487  1.0000
  C   C3        1.0  0.06905  0.87524  0.69567  1.0000
  C   C4        1.0  0.93095  0.12476  0.30433  1.0000
  C   C5        1.0  0.28216  0.43393  0.61708  1.0000
  C   C6        1.0  0.71784  0.56607  0.38292  1.0000
  C   C7        1.0  0.20332  0.58541  0.43363  1.0000
  C   C8        1.0  0.79668  0.41459  0.56637  1.0000
  N   N1        1.0  0.28203  0.90498  0.48169  1.0000
  N   N2        1.0  0.71797  0.09502  0.51831  1.0000
  N   N3        1.0  0.38255  0.95872  0.37925  1.0000
  N   N4        1.0  0.61745  0.04128  0.62075  1.0000
  N   N5        1.0  0.39444  0.07751  0.35339  1.0000
  N   N6        1.0  0.60557  0.92249  0.64661  1.0000
  N   N7        1.0  0.30446  0.10613  0.43689  1.0000
  N   N8        1.0  0.69554  0.89387  0.56311  1.0000
  N   N9        1.0  0.13310  0.98632  0.61414  1.0000
  N   N10       1.0  0.86690  0.01368  0.38586  1.0000
  N   N11       1.0  0.98249  0.86347  0.79560  1.0000
  N   N12       1.0  0.01751  0.13653  0.20440  1.0000
  N   N13       1.0  0.93696  0.74143  0.85052  1.0000
  N   N14       1.0  0.06304  0.25856  0.14949  1.0000
  N   N15       1.0  0.99450  0.68258  0.78828  1.0000
  N   N16       1.0  0.00550  0.31742  0.21172  1.0000
  N   N17       1.0  0.07904  0.76433  0.68942  1.0000
  N   N18       1.0  0.92096  0.23567  0.31058  1.0000
  N   N19       1.0  0.25609  0.51538  0.66364  1.0000
  N   N20       1.0  0.74391  0.48462  0.33636  1.0000
  N   N21       1.0  0.28295  0.44372  0.77100  1.0000
  N   N22       1.0  0.71705  0.55628  0.22900  1.0000
  N   N23       1.0  0.32269  0.32501  0.78681  1.0000
  N   N24       1.0  0.67731  0.67499  0.21319  1.0000
  N   N25       1.0  0.32411  0.31431  0.69209  1.0000
  N   N26       1.0  0.67589  0.68569  0.30791  1.0000
  N   N27       1.0  0.26707  0.46740  0.50803  1.0000
  N   N28       1.0  0.73293  0.53260  0.49197  1.0000
  N   N29       1.0  0.18157  0.61495  0.32796  1.0000
  N   N30       1.0  0.81844  0.38505  0.67204  1.0000
  N   N31       1.0  0.11224  0.73838  0.28411  1.0000
  N   N32       1.0  0.88776  0.26162  0.71589  1.0000
  N   N33       1.0  0.09212  0.78197  0.35826  1.0000
  N   N34       1.0  0.90788  0.21803  0.64174  1.0000
  N   N35       1.0  0.15070  0.68746  0.45442  1.0000
  N   N36       1.0  0.84930  0.31254  0.54558  1.0000
  O   O1        1.0  0.55678  0.68590  0.59156  1.0000
  O   O2        1.0  0.44322  0.31410  0.40844  1.0000
  O   O3        1.0  0.47917  0.80182  0.02769  1.0000
  O   O4        1.0  0.52083  0.19818  0.97231  1.0000
  O   O5        1.0  0.03918  0.73157  0.04851  1.0000
  O   O6        1.0  0.96082  0.26843  0.95149  1.0000
  O   O7        1.0  0.33855  0.00016  0.14654  1.0000
  O   O8        1.0  0.66145  0.99984  0.85346  1.0000
  O   O9        1.0  0.13803  0.01785  0.87893  1.0000
  O   O10       1.0  0.86197  0.98215  0.12107  1.0000
  O   O11       1.0  0.70208  0.53677  0.02665  1.0000
  O   O12       1.0  0.29792  0.46323  0.97335  1.0000
  O   O13       1.0  0.28248  0.47048  0.21631  1.0000
  O   O14       1.0  0.71752  0.52952  0.78369  1.0000
  O   O15       1.0  0.43266  0.71886  0.82696  1.0000
  O   O16       1.0  0.56734  0.28114  0.17304  1.0000
