data_image0
_chemical_formula_structural       Co2H32C40N4O8
_chemical_formula_sum              "Co2 H32 C40 N4 O8"
_cell_length_a       9.97418
_cell_length_b       9.97821
_cell_length_c       10.7792
_cell_angle_alpha    81.0833
_cell_angle_beta     67.6066
_cell_angle_gamma    77.2877

_space_group_name_H-M_alt    "P 1"
_space_group_IT_number       1

loop_
  _space_group_symop_operation_xyz
  'x, y, z'

loop_
  _atom_site_type_symbol
  _atom_site_label
  _atom_site_symmetry_multiplicity
  _atom_site_fract_x
  _atom_site_fract_y
  _atom_site_fract_z
  _atom_site_occupancy
  Co  Co1       1.0  0.12385  0.89242  0.82555  1.0000
  Co  Co2       1.0  0.87617  0.10768  0.17435  1.0000
  H   H1        1.0  0.32288  0.76476  0.97577  1.0000
  H   H2        1.0  0.67714  0.23521  0.02423  1.0000
  H   H3        1.0  0.32524  0.59973  0.17374  1.0000
  H   H4        1.0  0.67477  0.40026  0.82629  1.0000
  H   H5        1.0  0.91585  0.69750  0.00824  1.0000
  H   H6        1.0  0.08416  0.30250  0.99178  1.0000
  H   H7        1.0  0.70512  0.97893  0.77859  1.0000
  H   H8        1.0  0.29485  0.02108  0.22139  1.0000
  H   H9        1.0  0.55560  0.98764  0.20803  1.0000
  H   H10       1.0  0.44436  0.01239  0.79189  1.0000
  H   H11       1.0  0.99189  0.43947  0.38708  1.0000
  H   H12       1.0  0.00812  0.56054  0.61293  1.0000
  H   H13       1.0  0.14989  0.48759  0.39258  1.0000
  H   H14       1.0  0.85014  0.51241  0.60744  1.0000
  H   H15       1.0  0.90308  0.52468  0.20494  1.0000
  H   H16       1.0  0.09692  0.47533  0.79510  1.0000
  H   H17       1.0  0.56876  0.57996  0.67124  1.0000
  H   H18       1.0  0.43123  0.42003  0.32876  1.0000
  H   H19       1.0  0.25782  0.60211  0.47940  1.0000
  H   H20       1.0  0.74217  0.39790  0.52060  1.0000
  H   H21       1.0  0.14986  0.26360  0.22712  1.0000
  H   H22       1.0  0.85014  0.73641  0.77289  1.0000
  H   H23       1.0  0.31113  0.30777  0.23105  1.0000
  H   H24       1.0  0.68887  0.69223  0.76896  1.0000
  H   H25       1.0  0.40945  0.17721  0.39908  1.0000
  H   H26       1.0  0.59053  0.82276  0.60096  1.0000
  H   H27       1.0  0.94867  0.20797  0.46537  1.0000
  H   H28       1.0  0.05133  0.79203  0.53464  1.0000
  H   H29       1.0  0.92601  0.05724  0.67873  1.0000
  H   H30       1.0  0.07396  0.94275  0.32126  1.0000
  H   H31       1.0  0.36731  0.02432  0.61220  1.0000
  H   H32       1.0  0.63266  0.97564  0.38783  1.0000
  C   C1        1.0  0.23076  0.71101  0.03084  1.0000
  C   C2        1.0  0.76925  0.28898  0.96916  1.0000
  C   C3        1.0  0.23167  0.61766  0.14056  1.0000
  C   C4        1.0  0.76835  0.38232  0.85943  1.0000
  C   C5        1.0  0.80157  0.96060  0.98493  1.0000
  C   C6        1.0  0.19840  0.03941  0.01505  1.0000
  C   C7        1.0  0.64612  0.97982  0.99277  1.0000
  C   C8        1.0  0.35385  0.02022  0.00719  1.0000
  C   C9        1.0  0.00422  0.67310  0.04837  1.0000
  C   C10       1.0  0.99580  0.32690  0.95164  1.0000
  C   C11       1.0  0.61468  0.98795  0.87523  1.0000
  C   C12       1.0  0.38530  0.01209  0.12473  1.0000
  C   C13       1.0  0.53011  0.99252  0.11765  1.0000
  C   C14       1.0  0.46986  0.00753  0.88229  1.0000
  C   C15       1.0  0.11218  0.54899  0.20792  1.0000
  C   C16       1.0  0.88784  0.45099  0.79209  1.0000
  C   C17       1.0  0.10702  0.44852  0.32777  1.0000
  C   C18       1.0  0.89298  0.55148  0.67225  1.0000
  C   C19       1.0  0.99748  0.57728  0.15796  1.0000
  C   C20       1.0  0.00254  0.42271  0.84205  1.0000
  C   C21       1.0  0.40317  0.60135  0.58415  1.0000
  C   C22       1.0  0.59685  0.39866  0.41584  1.0000
  C   C23       1.0  0.53991  0.54425  0.59572  1.0000
  C   C24       1.0  0.46010  0.45573  0.40427  1.0000
  C   C25       1.0  0.36408  0.55613  0.48782  1.0000
  C   C26       1.0  0.63593  0.44386  0.51218  1.0000
  C   C27       1.0  0.30067  0.71016  0.67243  1.0000
  C   C28       1.0  0.69940  0.28985  0.32760  1.0000
  C   C29       1.0  0.19464  0.30330  0.29016  1.0000
  C   C30       1.0  0.80537  0.69668  0.70986  1.0000
  C   C31       1.0  0.18068  0.20782  0.41523  1.0000
  C   C32       1.0  0.81931  0.79217  0.58477  1.0000
  C   C33       1.0  0.29950  0.15403  0.45801  1.0000
  C   C34       1.0  0.70048  0.84595  0.54203  1.0000
  C   C35       1.0  0.04368  0.17227  0.49641  1.0000
  C   C36       1.0  0.95631  0.82772  0.50360  1.0000
  C   C37       1.0  0.03062  0.08745  0.61386  1.0000
  C   C38       1.0  0.96936  0.91253  0.38615  1.0000
  C   C39       1.0  0.27686  0.06909  0.57697  1.0000
  C   C40       1.0  0.72312  0.93088  0.42305  1.0000
  N   N1        1.0  0.11791  0.74088  0.98567  1.0000
  N   N2        1.0  0.88210  0.25911  0.01434  1.0000
  N   N3        1.0  0.14492  0.03533  0.65472  1.0000
  N   N4        1.0  0.85506  0.96466  0.34526  1.0000
  O   O1        1.0  0.90272  0.92777  0.87270  1.0000
  O   O2        1.0  0.09724  0.07226  0.12727  1.0000
  O   O3        1.0  0.35093  0.78125  0.72826  1.0000
  O   O4        1.0  0.64917  0.21871  0.27178  1.0000
  O   O5        1.0  0.16338  0.73153  0.69143  1.0000
  O   O6        1.0  0.83669  0.26853  0.30858  1.0000
  O   O7        1.0  0.82479  0.97563  0.08974  1.0000
  O   O8        1.0  0.17519  0.02434  0.91026  1.0000
