data_image0
_chemical_formula_structural       Ag4H32C26N12O8
_chemical_formula_sum              "Ag4 H32 C26 N12 O8"
_cell_length_a       6.32718
_cell_length_b       6.32718
_cell_length_c       20.6452
_cell_angle_alpha    92.5994
_cell_angle_beta     92.5998
_cell_angle_gamma    98.3404

_space_group_name_H-M_alt    "P 1"
_space_group_IT_number       1

loop_
  _space_group_symop_operation_xyz
  'x, y, z'

loop_
  _atom_site_type_symbol
  _atom_site_label
  _atom_site_symmetry_multiplicity
  _atom_site_fract_x
  _atom_site_fract_y
  _atom_site_fract_z
  _atom_site_occupancy
  Ag  Ag1       1.0  0.49731  0.74151  0.48843  1.0000
  Ag  Ag2       1.0  0.25849  0.50269  0.01157  1.0000
  Ag  Ag3       1.0  0.50268  0.25848  0.51157  1.0000
  Ag  Ag4       1.0  0.74152  0.49732  0.98843  1.0000
  H   H1        1.0  0.83616  0.70703  0.41474  1.0000
  H   H2        1.0  0.29296  0.16384  0.08526  1.0000
  H   H3        1.0  0.16383  0.29294  0.58526  1.0000
  H   H4        1.0  0.70705  0.83617  0.91473  1.0000
  H   H5        1.0  0.11930  0.77128  0.41725  1.0000
  H   H6        1.0  0.22872  0.88070  0.08275  1.0000
  H   H7        1.0  0.88069  0.22870  0.58275  1.0000
  H   H8        1.0  0.77129  0.11931  0.91725  1.0000
  H   H9        1.0  0.10675  0.82442  0.28964  1.0000
  H   H10       1.0  0.17557  0.89325  0.21036  1.0000
  H   H11       1.0  0.89325  0.17558  0.71036  1.0000
  H   H12       1.0  0.82444  0.10676  0.78964  1.0000
  H   H13       1.0  0.54855  0.77963  0.24000  1.0000
  H   H14       1.0  0.22038  0.45145  0.26000  1.0000
  H   H15       1.0  0.45145  0.22037  0.76000  1.0000
  H   H16       1.0  0.77962  0.54855  0.74000  1.0000
  H   H17       1.0  0.48954  0.02062  0.27780  1.0000
  H   H18       1.0  0.97938  0.51045  0.22220  1.0000
  H   H19       1.0  0.51045  0.97939  0.72221  1.0000
  H   H20       1.0  0.02062  0.48956  0.77780  1.0000
  H   H21       1.0  0.66765  0.68841  0.62697  1.0000
  H   H22       1.0  0.31159  0.33236  0.87303  1.0000
  H   H23       1.0  0.33235  0.31159  0.37304  1.0000
  H   H24       1.0  0.68841  0.66765  0.12696  1.0000
  H   H25       1.0  0.35430  0.81459  0.62673  1.0000
  H   H26       1.0  0.18541  0.64571  0.87327  1.0000
  H   H27       1.0  0.64569  0.18539  0.37327  1.0000
  H   H28       1.0  0.81460  0.35431  0.12673  1.0000
  H   H29       1.0  0.02328  0.76176  0.69116  1.0000
  H   H30       1.0  0.23823  0.97673  0.80884  1.0000
  H   H31       1.0  0.97671  0.23824  0.30884  1.0000
  H   H32       1.0  0.76176  0.02329  0.19116  1.0000
  C   C1        1.0  0.20936  0.79063  0.25000  1.0000
  C   C2        1.0  0.79064  0.20936  0.75000  1.0000
  C   C3        1.0  0.44440  0.84534  0.27429  1.0000
  C   C4        1.0  0.15466  0.55560  0.22570  1.0000
  C   C5        1.0  0.55561  0.15466  0.72571  1.0000
  C   C6        1.0  0.84534  0.44440  0.77429  1.0000
  C   C7        1.0  0.81846  0.72111  0.60320  1.0000
  C   C8        1.0  0.27889  0.18154  0.89680  1.0000
  C   C9        1.0  0.18153  0.27888  0.39680  1.0000
  C   C10       1.0  0.72112  0.81847  0.10320  1.0000
  C   C11       1.0  0.19512  0.78552  0.60287  1.0000
  C   C12       1.0  0.21447  0.80489  0.89713  1.0000
  C   C13       1.0  0.80487  0.21446  0.39714  1.0000
  C   C14       1.0  0.78553  0.19513  0.10286  1.0000
  C   C15       1.0  0.49118  0.76325  0.34115  1.0000
  C   C16       1.0  0.23675  0.50882  0.15885  1.0000
  C   C17       1.0  0.50882  0.23674  0.65885  1.0000
  C   C18       1.0  0.76326  0.49118  0.84115  1.0000
  C   C19       1.0  0.01315  0.75847  0.63852  1.0000
  C   C20       1.0  0.24152  0.98685  0.86148  1.0000
  C   C21       1.0  0.98683  0.24152  0.36148  1.0000
  C   C22       1.0  0.75848  0.01317  0.13852  1.0000
  C   C23       1.0  0.99041  0.74663  0.50608  1.0000
  C   C24       1.0  0.25337  0.00959  0.99392  1.0000
  C   C25       1.0  0.00958  0.25336  0.49392  1.0000
  C   C26       1.0  0.74664  0.99042  0.00608  1.0000
  N   N1        1.0  0.18713  0.77619  0.53801  1.0000
  N   N2        1.0  0.22381  0.81288  0.96199  1.0000
  N   N3        1.0  0.81286  0.22380  0.46200  1.0000
  N   N4        1.0  0.77619  0.18713  0.03800  1.0000
  N   N5        1.0  0.80440  0.71902  0.53811  1.0000
  N   N6        1.0  0.28098  0.19560  0.96190  1.0000
  N   N7        1.0  0.19559  0.28098  0.46190  1.0000
  N   N8        1.0  0.71902  0.80441  0.03810  1.0000
  N   N9        1.0  0.98013  0.74400  0.44151  1.0000
  N   N10       1.0  0.25600  0.01987  0.05849  1.0000
  N   N11       1.0  0.01986  0.25599  0.55850  1.0000
  N   N12       1.0  0.74401  0.98014  0.94150  1.0000
  O   O1        1.0  0.63418  0.64574  0.34859  1.0000
  O   O2        1.0  0.35426  0.36582  0.15141  1.0000
  O   O3        1.0  0.36582  0.35425  0.65141  1.0000
  O   O4        1.0  0.64575  0.63418  0.84859  1.0000
  O   O5        1.0  0.38054  0.82718  0.38720  1.0000
  O   O6        1.0  0.17282  0.61946  0.11280  1.0000
  O   O7        1.0  0.61946  0.17281  0.61280  1.0000
  O   O8        1.0  0.82720  0.38054  0.88720  1.0000
