data_image0
_chemical_formula_structural       Hg4H48C28N16Cl8O8
_chemical_formula_sum              "Hg4 H48 C28 N16 Cl8 O8"
_cell_length_a       7.31642
_cell_length_b       9.86358
_cell_length_c       15.9424
_cell_angle_alpha    104.256
_cell_angle_beta     89.9999
_cell_angle_gamma    90

_space_group_name_H-M_alt    "P 1"
_space_group_IT_number       1

loop_
  _space_group_symop_operation_xyz
  'x, y, z'

loop_
  _atom_site_type_symbol
  _atom_site_label
  _atom_site_symmetry_multiplicity
  _atom_site_fract_x
  _atom_site_fract_y
  _atom_site_fract_z
  _atom_site_occupancy
  Hg  Hg1       1.0  0.25709  0.99965  0.92063  1.0000
  Hg  Hg2       1.0  0.75709  0.00035  0.57937  1.0000
  Hg  Hg3       1.0  0.74291  0.00035  0.07937  1.0000
  Hg  Hg4       1.0  0.24291  0.99965  0.42063  1.0000
  H   H1        1.0  0.93743  0.48580  0.62610  1.0000
  H   H2        1.0  0.43743  0.51420  0.87390  1.0000
  H   H3        1.0  0.06257  0.51420  0.37390  1.0000
  H   H4        1.0  0.56257  0.48580  0.12610  1.0000
  H   H5        1.0  0.08166  0.48577  0.71739  1.0000
  H   H6        1.0  0.58166  0.51423  0.78261  1.0000
  H   H7        1.0  0.91834  0.51423  0.28261  1.0000
  H   H8        1.0  0.41834  0.48577  0.21739  1.0000
  H   H9        1.0  0.31981  0.67295  0.76538  1.0000
  H   H10       1.0  0.81981  0.32705  0.73462  1.0000
  H   H11       1.0  0.68019  0.32705  0.23462  1.0000
  H   H12       1.0  0.18019  0.67294  0.26538  1.0000
  H   H13       1.0  0.35177  0.80352  0.70718  1.0000
  H   H14       1.0  0.85177  0.19648  0.79282  1.0000
  H   H15       1.0  0.64823  0.19648  0.29282  1.0000
  H   H16       1.0  0.14823  0.80352  0.20718  1.0000
  H   H17       1.0  0.14328  0.80853  0.57774  1.0000
  H   H18       1.0  0.64328  0.19147  0.92226  1.0000
  H   H19       1.0  0.85672  0.19147  0.42226  1.0000
  H   H20       1.0  0.35672  0.80853  0.07774  1.0000
  H   H21       1.0  0.97372  0.67573  0.54493  1.0000
  H   H22       1.0  0.47372  0.32427  0.95507  1.0000
  H   H23       1.0  0.02628  0.32427  0.45507  1.0000
  H   H24       1.0  0.52628  0.67573  0.04493  1.0000
  H   H25       1.0  0.68598  0.79692  0.73506  1.0000
  H   H26       1.0  0.18598  0.20308  0.76494  1.0000
  H   H27       1.0  0.31402  0.20308  0.26494  1.0000
  H   H28       1.0  0.81402  0.79692  0.23506  1.0000
  H   H29       1.0  0.71399  0.66779  0.63509  1.0000
  H   H30       1.0  0.21399  0.33221  0.86491  1.0000
  H   H31       1.0  0.28601  0.33221  0.36491  1.0000
  H   H32       1.0  0.78601  0.66779  0.13509  1.0000
  H   H33       1.0  0.11096  0.97853  0.71200  1.0000
  H   H34       1.0  0.61096  0.02148  0.78800  1.0000
  H   H35       1.0  0.88904  0.02147  0.28800  1.0000
  H   H36       1.0  0.38904  0.97852  0.21200  1.0000
  H   H37       1.0  0.91668  0.97710  0.77993  1.0000
  H   H38       1.0  0.41668  0.02289  0.72007  1.0000
  H   H39       1.0  0.08332  0.02290  0.22007  1.0000
  H   H40       1.0  0.58332  0.97711  0.27993  1.0000
  H   H41       1.0  0.04796  0.66802  0.84892  1.0000
  H   H42       1.0  0.54796  0.33198  0.65108  1.0000
  H   H43       1.0  0.95204  0.33198  0.15108  1.0000
  H   H44       1.0  0.45204  0.66802  0.34892  1.0000
  H   H45       1.0  0.87706  0.79929  0.85523  1.0000
  H   H46       1.0  0.37706  0.20071  0.64477  1.0000
  H   H47       1.0  0.12294  0.20071  0.14477  1.0000
  H   H48       1.0  0.62294  0.79929  0.35523  1.0000
  C   C1        1.0  0.15134  0.64587  0.64914  1.0000
  C   C2        1.0  0.65134  0.35413  0.85086  1.0000
  C   C3        1.0  0.84866  0.35413  0.35086  1.0000
  C   C4        1.0  0.34866  0.64587  0.14914  1.0000
  C   C5        1.0  0.01028  0.55189  0.68151  1.0000
  C   C6        1.0  0.51028  0.44811  0.81849  1.0000
  C   C7        1.0  0.98972  0.44811  0.31849  1.0000
  C   C8        1.0  0.48972  0.55189  0.18151  1.0000
  C   C9        1.0  0.24983  0.73706  0.72811  1.0000
  C   C10       1.0  0.74983  0.26294  0.77189  1.0000
  C   C11       1.0  0.75017  0.26294  0.27189  1.0000
  C   C12       1.0  0.25017  0.73706  0.22811  1.0000
  C   C13       1.0  0.04755  0.73947  0.60049  1.0000
  C   C14       1.0  0.54755  0.26053  0.89951  1.0000
  C   C15       1.0  0.95245  0.26053  0.39951  1.0000
  C   C16       1.0  0.45245  0.73947  0.10049  1.0000
  C   C17       1.0  0.78554  0.73252  0.69120  1.0000
  C   C18       1.0  0.28554  0.26748  0.80880  1.0000
  C   C19       1.0  0.21446  0.26748  0.30880  1.0000
  C   C20       1.0  0.71446  0.73252  0.19120  1.0000
  C   C21       1.0  0.01401  0.91133  0.73549  1.0000
  C   C22       1.0  0.51401  0.08867  0.76451  1.0000
  C   C23       1.0  0.98599  0.08867  0.26451  1.0000
  C   C24       1.0  0.48599  0.91133  0.23549  1.0000
  C   C25       1.0  0.97678  0.73295  0.81255  1.0000
  C   C26       1.0  0.47678  0.26705  0.68745  1.0000
  C   C27       1.0  0.02322  0.26705  0.18745  1.0000
  C   C28       1.0  0.52322  0.73295  0.31255  1.0000
  N   N1        1.0  0.28407  0.55353  0.58991  1.0000
  N   N2        1.0  0.78407  0.44647  0.91009  1.0000
  N   N3        1.0  0.71593  0.44647  0.41009  1.0000
  N   N4        1.0  0.21593  0.55352  0.08991  1.0000
  N   N5        1.0  0.88080  0.64384  0.73858  1.0000
  N   N6        1.0  0.38080  0.35616  0.76142  1.0000
  N   N7        1.0  0.11920  0.35616  0.26142  1.0000
  N   N8        1.0  0.61920  0.64384  0.23858  1.0000
  N   N9        1.0  0.11226  0.82524  0.78424  1.0000
  N   N10       1.0  0.61226  0.17476  0.71576  1.0000
  N   N11       1.0  0.88774  0.17476  0.21576  1.0000
  N   N12       1.0  0.38774  0.82524  0.28424  1.0000
  N   N13       1.0  0.91518  0.82601  0.66061  1.0000
  N   N14       1.0  0.41518  0.17399  0.83940  1.0000
  N   N15       1.0  0.08482  0.17399  0.33940  1.0000
  N   N16       1.0  0.58482  0.82601  0.16061  1.0000
  Cl  Cl1       1.0  0.99215  0.14901  0.95366  1.0000
  Cl  Cl2       1.0  0.49215  0.85099  0.54634  1.0000
  Cl  Cl3       1.0  0.00785  0.85099  0.04634  1.0000
  Cl  Cl4       1.0  0.50785  0.14901  0.45366  1.0000
  Cl  Cl5       1.0  0.52429  0.85006  0.90805  1.0000
  Cl  Cl6       1.0  0.02429  0.14994  0.59195  1.0000
  Cl  Cl7       1.0  0.47571  0.14994  0.09195  1.0000
  Cl  Cl8       1.0  0.97571  0.85006  0.40805  1.0000
  O   O1        1.0  0.23050  0.49691  0.51571  1.0000
  O   O2        1.0  0.73051  0.50309  0.98429  1.0000
  O   O3        1.0  0.76949  0.50309  0.48429  1.0000
  O   O4        1.0  0.26950  0.49691  0.01571  1.0000
  O   O5        1.0  0.43661  0.53521  0.61908  1.0000
  O   O6        1.0  0.93661  0.46479  0.88092  1.0000
  O   O7        1.0  0.56339  0.46479  0.38092  1.0000
  O   O8        1.0  0.06339  0.53521  0.11908  1.0000
