data_image0
_chemical_formula_structural       Ag4H48C28N20O20
_chemical_formula_sum              "Ag4 H48 C28 N20 O20"
_cell_length_a       7.90953
_cell_length_b       10.6748
_cell_length_c       12.6007
_cell_angle_alpha    89.9999
_cell_angle_beta     89.9998
_cell_angle_gamma    89.9999

_space_group_name_H-M_alt    "P 1"
_space_group_IT_number       1

loop_
  _space_group_symop_operation_xyz
  'x, y, z'

loop_
  _atom_site_type_symbol
  _atom_site_label
  _atom_site_symmetry_multiplicity
  _atom_site_fract_x
  _atom_site_fract_y
  _atom_site_fract_z
  _atom_site_occupancy
  Ag  Ag1       1.0  0.46028  0.79305  0.63767  1.0000
  Ag  Ag2       1.0  0.03972  0.20695  0.13767  1.0000
  Ag  Ag3       1.0  0.96028  0.70695  0.36233  1.0000
  Ag  Ag4       1.0  0.53972  0.29305  0.86233  1.0000
  H   H1        1.0  0.00718  0.11835  0.53950  1.0000
  H   H2        1.0  0.49282  0.88165  0.03950  1.0000
  H   H3        1.0  0.50718  0.38165  0.46050  1.0000
  H   H4        1.0  0.99282  0.61836  0.96050  1.0000
  H   H5        1.0  0.03603  0.26729  0.60211  1.0000
  H   H6        1.0  0.46397  0.73271  0.10210  1.0000
  H   H7        1.0  0.53604  0.23271  0.39790  1.0000
  H   H8        1.0  0.96397  0.76729  0.89789  1.0000
  H   H9        1.0  0.15425  0.92477  0.77203  1.0000
  H   H10       1.0  0.34575  0.07523  0.27203  1.0000
  H   H11       1.0  0.65425  0.57523  0.22797  1.0000
  H   H12       1.0  0.84575  0.42477  0.72797  1.0000
  H   H13       1.0  0.07861  0.91719  0.63873  1.0000
  H   H14       1.0  0.42139  0.08281  0.13873  1.0000
  H   H15       1.0  0.57861  0.58281  0.36127  1.0000
  H   H16       1.0  0.92139  0.41719  0.86127  1.0000
  H   H17       1.0  0.14156  0.27927  0.78876  1.0000
  H   H18       1.0  0.35844  0.72073  0.28876  1.0000
  H   H19       1.0  0.64156  0.22073  0.21124  1.0000
  H   H20       1.0  0.85844  0.77927  0.71124  1.0000
  H   H21       1.0  0.18892  0.14079  0.86256  1.0000
  H   H22       1.0  0.31108  0.85921  0.36256  1.0000
  H   H23       1.0  0.68892  0.35921  0.13744  1.0000
  H   H24       1.0  0.81108  0.64079  0.63744  1.0000
  H   H25       1.0  0.31731  0.34114  0.64147  1.0000
  H   H26       1.0  0.18269  0.65886  0.14147  1.0000
  H   H27       1.0  0.81731  0.15886  0.35853  1.0000
  H   H28       1.0  0.68269  0.84114  0.85853  1.0000
  H   H29       1.0  0.49696  0.24617  0.60728  1.0000
  H   H30       1.0  0.00305  0.75383  0.10728  1.0000
  H   H31       1.0  0.99696  0.25382  0.39272  1.0000
  H   H32       1.0  0.50304  0.74618  0.89272  1.0000
  H   H33       1.0  0.56016  0.06189  0.70261  1.0000
  H   H34       1.0  0.93984  0.93810  0.20261  1.0000
  H   H35       1.0  0.06016  0.43811  0.29739  1.0000
  H   H36       1.0  0.43984  0.56190  0.79739  1.0000
  H   H37       1.0  0.42742  0.01119  0.80897  1.0000
  H   H38       1.0  0.07258  0.98881  0.30898  1.0000
  H   H39       1.0  0.92742  0.48881  0.19103  1.0000
  H   H40       1.0  0.57258  0.51119  0.69102  1.0000
  H   H41       1.0  0.45784  0.04951  0.52092  1.0000
  H   H42       1.0  0.04216  0.95049  0.02092  1.0000
  H   H43       1.0  0.95784  0.45049  0.47908  1.0000
  H   H44       1.0  0.54216  0.54951  0.97908  1.0000
  H   H45       1.0  0.24629  0.99300  0.49681  1.0000
  H   H46       1.0  0.25371  0.00700  0.99681  1.0000
  H   H47       1.0  0.74629  0.50700  0.50319  1.0000
  H   H48       1.0  0.75371  0.49300  0.00319  1.0000
  C   C1        1.0  0.07970  0.10574  0.70491  1.0000
  C   C2        1.0  0.42030  0.89426  0.20492  1.0000
  C   C3        1.0  0.57970  0.39426  0.29509  1.0000
  C   C4        1.0  0.92030  0.60574  0.79508  1.0000
  C   C5        1.0  0.08501  0.17146  0.59577  1.0000
  C   C6        1.0  0.41499  0.82854  0.09577  1.0000
  C   C7        1.0  0.58501  0.32854  0.40423  1.0000
  C   C8        1.0  0.91499  0.67146  0.90423  1.0000
  C   C9        1.0  0.15305  0.97272  0.69516  1.0000
  C   C10       1.0  0.34695  0.02728  0.19517  1.0000
  C   C11       1.0  0.65305  0.52728  0.30483  1.0000
  C   C12       1.0  0.84695  0.47272  0.80483  1.0000
  C   C13       1.0  0.18943  0.18297  0.78311  1.0000
  C   C14       1.0  0.31057  0.81703  0.28312  1.0000
  C   C15       1.0  0.68943  0.31703  0.21689  1.0000
  C   C16       1.0  0.81057  0.68297  0.71688  1.0000
  C   C17       1.0  0.36522  0.24506  0.63470  1.0000
  C   C18       1.0  0.13478  0.75494  0.13470  1.0000
  C   C19       1.0  0.86522  0.25494  0.36530  1.0000
  C   C20       1.0  0.63478  0.74507  0.86530  1.0000
  C   C21       1.0  0.42979  0.05686  0.73107  1.0000
  C   C22       1.0  0.07021  0.94314  0.23107  1.0000
  C   C23       1.0  0.92979  0.44314  0.26893  1.0000
  C   C24       1.0  0.57021  0.55687  0.76893  1.0000
  C   C25       1.0  0.32730  0.04742  0.55043  1.0000
  C   C26       1.0  0.17270  0.95258  0.05043  1.0000
  C   C27       1.0  0.82730  0.45258  0.44957  1.0000
  C   C28       1.0  0.67270  0.54742  0.94957  1.0000
  N   N1        1.0  0.28875  0.60291  0.49200  1.0000
  N   N2        1.0  0.21125  0.39709  0.99200  1.0000
  N   N3        1.0  0.78875  0.89709  0.50800  1.0000
  N   N4        1.0  0.71125  0.10291  0.00800  1.0000
  N   N5        1.0  0.90373  0.10100  0.74815  1.0000
  N   N6        1.0  0.59627  0.89900  0.24815  1.0000
  N   N7        1.0  0.40373  0.39900  0.25185  1.0000
  N   N8        1.0  0.09627  0.60100  0.75185  1.0000
  N   N9        1.0  0.26154  0.17461  0.55942  1.0000
  N   N10       1.0  0.23846  0.82538  0.05942  1.0000
  N   N11       1.0  0.76154  0.32539  0.44058  1.0000
  N   N12       1.0  0.73846  0.67462  0.94058  1.0000
  N   N13       1.0  0.32891  0.98163  0.65518  1.0000
  N   N14       1.0  0.17109  0.01837  0.15518  1.0000
  N   N15       1.0  0.82891  0.51837  0.34482  1.0000
  N   N16       1.0  0.67109  0.48163  0.84482  1.0000
  N   N17       1.0  0.36377  0.18593  0.74209  1.0000
  N   N18       1.0  0.13623  0.81407  0.24210  1.0000
  N   N19       1.0  0.86377  0.31407  0.25791  1.0000
  N   N20       1.0  0.63623  0.68593  0.75791  1.0000
  O   O1        1.0  0.81069  0.19239  0.73069  1.0000
  O   O2        1.0  0.68930  0.80761  0.23069  1.0000
  O   O3        1.0  0.31070  0.30761  0.26931  1.0000
  O   O4        1.0  0.18931  0.69239  0.76931  1.0000
  O   O5        1.0  0.86189  0.00792  0.80122  1.0000
  O   O6        1.0  0.63811  0.99207  0.30122  1.0000
  O   O7        1.0  0.36189  0.49207  0.19878  1.0000
  O   O8        1.0  0.13811  0.50793  0.69878  1.0000
  O   O9        1.0  0.43436  0.59688  0.53543  1.0000
  O   O10       1.0  0.06564  0.40312  0.03543  1.0000
  O   O11       1.0  0.93436  0.90312  0.46457  1.0000
  O   O12       1.0  0.56564  0.09688  0.96457  1.0000
  O   O13       1.0  0.19556  0.69805  0.50918  1.0000
  O   O14       1.0  0.30444  0.30195  0.00918  1.0000
  O   O15       1.0  0.69556  0.80195  0.49082  1.0000
  O   O16       1.0  0.80444  0.19805  0.99082  1.0000
  O   O17       1.0  0.24018  0.51573  0.43192  1.0000
  O   O18       1.0  0.25982  0.48427  0.93192  1.0000
  O   O19       1.0  0.74018  0.98427  0.56808  1.0000
  O   O20       1.0  0.75981  0.01573  0.06808  1.0000
