data_image0
_chemical_formula_structural       Zn8H32C56N8O36
_chemical_formula_sum              "Zn8 H32 C56 N8 O36"
_cell_length_a       7.99618
_cell_length_b       8.76882
_cell_length_c       20.7201
_cell_angle_alpha    90.0001
_cell_angle_beta     93.099
_cell_angle_gamma    90.0006

_space_group_name_H-M_alt    "P 1"
_space_group_IT_number       1

loop_
  _space_group_symop_operation_xyz
  'x, y, z'

loop_
  _atom_site_type_symbol
  _atom_site_label
  _atom_site_symmetry_multiplicity
  _atom_site_fract_x
  _atom_site_fract_y
  _atom_site_fract_z
  _atom_site_occupancy
  Zn  Zn1       1.0  0.23313  0.52126  0.14422  1.0000
  Zn  Zn2       1.0  0.26686  0.02125  0.35578  1.0000
  Zn  Zn3       1.0  0.76687  0.47874  0.85578  1.0000
  Zn  Zn4       1.0  0.73313  0.97874  0.64422  1.0000
  Zn  Zn5       1.0  0.62841  0.22369  0.98227  1.0000
  Zn  Zn6       1.0  0.87159  0.72368  0.51773  1.0000
  Zn  Zn7       1.0  0.37159  0.77632  0.01773  1.0000
  Zn  Zn8       1.0  0.12841  0.27631  0.48227  1.0000
  H   H1        1.0  0.70327  0.50441  0.03289  1.0000
  H   H2        1.0  0.79673  0.00441  0.46711  1.0000
  H   H3        1.0  0.29673  0.49559  0.96711  1.0000
  H   H4        1.0  0.20327  0.99558  0.53289  1.0000
  H   H5        1.0  0.52890  0.43567  0.05925  1.0000
  H   H6        1.0  0.97110  0.93567  0.44075  1.0000
  H   H7        1.0  0.47110  0.56433  0.94075  1.0000
  H   H8        1.0  0.02890  0.06433  0.55925  1.0000
  H   H9        1.0  0.22794  0.04376  0.14235  1.0000
  H   H10       1.0  0.27206  0.54376  0.35765  1.0000
  H   H11       1.0  0.77207  0.95624  0.85765  1.0000
  H   H12       1.0  0.72794  0.45624  0.64235  1.0000
  H   H13       1.0  0.95170  0.93396  0.16677  1.0000
  H   H14       1.0  0.54830  0.43396  0.33323  1.0000
  H   H15       1.0  0.04831  0.06604  0.83323  1.0000
  H   H16       1.0  0.45170  0.56603  0.66677  1.0000
  H   H17       1.0  0.69878  0.99669  0.09205  1.0000
  H   H18       1.0  0.80121  0.49669  0.40795  1.0000
  H   H19       1.0  0.30122  0.00331  0.90795  1.0000
  H   H20       1.0  0.19879  0.50331  0.59205  1.0000
  H   H21       1.0  0.79764  0.76122  0.19959  1.0000
  H   H22       1.0  0.70236  0.26122  0.30042  1.0000
  H   H23       1.0  0.20237  0.23879  0.80042  1.0000
  H   H24       1.0  0.29763  0.73878  0.69958  1.0000
  H   H25       1.0  0.88449  0.87499  0.30682  1.0000
  H   H26       1.0  0.61551  0.37499  0.19318  1.0000
  H   H27       1.0  0.11551  0.12502  0.69318  1.0000
  H   H28       1.0  0.38449  0.62501  0.80682  1.0000
  H   H29       1.0  0.65999  0.98274  0.37502  1.0000
  H   H30       1.0  0.84001  0.48274  0.12498  1.0000
  H   H31       1.0  0.34000  0.01726  0.62498  1.0000
  H   H32       1.0  0.15999  0.51726  0.87502  1.0000
  C   C1        1.0  0.98278  0.20144  0.02129  1.0000
  C   C2        1.0  0.51722  0.70143  0.47871  1.0000
  C   C3        1.0  0.01722  0.79857  0.97871  1.0000
  C   C4        1.0  0.48278  0.29856  0.52129  1.0000
  C   C5        1.0  0.12831  0.16945  0.05959  1.0000
  C   C6        1.0  0.37169  0.66945  0.44041  1.0000
  C   C7        1.0  0.87169  0.83055  0.94041  1.0000
  C   C8        1.0  0.62831  0.33055  0.55959  1.0000
  C   C9        1.0  0.11587  0.07163  0.11246  1.0000
  C   C10       1.0  0.38413  0.57162  0.38754  1.0000
  C   C11       1.0  0.88413  0.92838  0.88754  1.0000
  C   C12       1.0  0.61587  0.42837  0.61246  1.0000
  C   C13       1.0  0.96169  0.00951  0.12560  1.0000
  C   C14       1.0  0.53831  0.50951  0.37440  1.0000
  C   C15       1.0  0.03832  0.99049  0.87440  1.0000
  C   C16       1.0  0.46169  0.49048  0.62560  1.0000
  C   C17       1.0  0.82241  0.04428  0.08494  1.0000
  C   C18       1.0  0.67759  0.54428  0.41505  1.0000
  C   C19       1.0  0.17760  0.95572  0.91506  1.0000
  C   C20       1.0  0.32241  0.45572  0.58495  1.0000
  C   C21       1.0  0.98499  0.31089  0.96474  1.0000
  C   C22       1.0  0.51500  0.81088  0.53526  1.0000
  C   C23       1.0  0.01501  0.68912  0.03526  1.0000
  C   C24       1.0  0.48500  0.18912  0.46474  1.0000
  C   C25       1.0  0.29715  0.23832  0.04900  1.0000
  C   C26       1.0  0.20285  0.73831  0.45100  1.0000
  C   C27       1.0  0.70285  0.76169  0.95100  1.0000
  C   C28       1.0  0.79715  0.26169  0.54900  1.0000
  C   C29       1.0  0.41729  0.84903  0.25506  1.0000
  C   C30       1.0  0.08270  0.34902  0.24494  1.0000
  C   C31       1.0  0.58271  0.15097  0.74494  1.0000
  C   C32       1.0  0.91729  0.65097  0.75506  1.0000
  C   C33       1.0  0.53416  0.80112  0.21157  1.0000
  C   C34       1.0  0.96584  0.30112  0.28843  1.0000
  C   C35       1.0  0.46584  0.19888  0.78843  1.0000
  C   C36       1.0  0.03416  0.69888  0.71157  1.0000
  C   C37       1.0  0.70425  0.80500  0.23130  1.0000
  C   C38       1.0  0.79575  0.30499  0.26870  1.0000
  C   C39       1.0  0.29576  0.19501  0.76870  1.0000
  C   C40       1.0  0.20424  0.69500  0.73130  1.0000
  C   C41       1.0  0.75256  0.86646  0.29127  1.0000
  C   C42       1.0  0.74744  0.36646  0.20873  1.0000
  C   C43       1.0  0.24744  0.13355  0.70873  1.0000
  C   C44       1.0  0.25256  0.63354  0.79127  1.0000
  C   C45       1.0  0.62945  0.92505  0.32948  1.0000
  C   C46       1.0  0.87055  0.42505  0.17052  1.0000
  C   C47       1.0  0.37055  0.07495  0.67052  1.0000
  C   C48       1.0  0.12945  0.57495  0.82948  1.0000
  C   C49       1.0  0.48118  0.75688  0.14369  1.0000
  C   C50       1.0  0.01882  0.25688  0.35631  1.0000
  C   C51       1.0  0.51883  0.24312  0.85631  1.0000
  C   C52       1.0  0.98118  0.74312  0.64369  1.0000
  C   C53       1.0  0.23056  0.82949  0.24252  1.0000
  C   C54       1.0  0.26944  0.32949  0.25748  1.0000
  C   C55       1.0  0.76945  0.17051  0.75748  1.0000
  C   C56       1.0  0.73055  0.67051  0.74252  1.0000
  N   N1        1.0  0.46598  0.91423  0.31202  1.0000
  N   N2        1.0  0.03402  0.41423  0.18798  1.0000
  N   N3        1.0  0.53401  0.08577  0.68798  1.0000
  N   N4        1.0  0.96598  0.58577  0.81202  1.0000
  N   N5        1.0  0.83431  0.13749  0.03400  1.0000
  N   N6        1.0  0.66569  0.63749  0.46600  1.0000
  N   N7        1.0  0.16569  0.86251  0.96600  1.0000
  N   N8        1.0  0.33431  0.36251  0.53400  1.0000
  O   O1        1.0  0.63539  0.41263  0.03895  1.0000
  O   O2        1.0  0.86461  0.91263  0.46105  1.0000
  O   O3        1.0  0.36461  0.58738  0.96105  1.0000
  O   O4        1.0  0.13539  0.08737  0.53895  1.0000
  O   O5        1.0  0.33199  0.36311  0.07795  1.0000
  O   O6        1.0  0.16801  0.86311  0.42205  1.0000
  O   O7        1.0  0.66801  0.63690  0.92204  1.0000
  O   O8        1.0  0.83199  0.13690  0.57795  1.0000
  O   O9        1.0  0.39714  0.16152  0.01633  1.0000
  O   O10       1.0  0.10286  0.66152  0.48367  1.0000
  O   O11       1.0  0.60286  0.83848  0.98368  1.0000
  O   O12       1.0  0.89714  0.33848  0.51633  1.0000
  O   O13       1.0  0.12221  0.36643  0.95086  1.0000
  O   O14       1.0  0.37779  0.86642  0.54914  1.0000
  O   O15       1.0  0.87779  0.63358  0.04914  1.0000
  O   O16       1.0  0.62221  0.13358  0.45086  1.0000
  O   O17       1.0  0.84175  0.33830  0.93541  1.0000
  O   O18       1.0  0.65825  0.83830  0.56459  1.0000
  O   O19       1.0  0.15825  0.66170  0.06460  1.0000
  O   O20       1.0  0.34175  0.16169  0.43541  1.0000
  O   O21       1.0  0.47668  0.61791  0.12744  1.0000
  O   O22       1.0  0.02332  0.11790  0.37256  1.0000
  O   O23       1.0  0.52333  0.38209  0.87256  1.0000
  O   O24       1.0  0.97668  0.88209  0.62744  1.0000
  O   O25       1.0  0.44783  0.86706  0.10475  1.0000
  O   O26       1.0  0.05217  0.36706  0.39525  1.0000
  O   O27       1.0  0.55217  0.13293  0.89525  1.0000
  O   O28       1.0  0.94783  0.63294  0.60475  1.0000
  O   O29       1.0  0.17637  0.73660  0.19968  1.0000
  O   O30       1.0  0.32362  0.23659  0.30031  1.0000
  O   O31       1.0  0.82363  0.26340  0.80032  1.0000
  O   O32       1.0  0.67637  0.76340  0.69968  1.0000
  O   O33       1.0  0.13839  0.91032  0.27737  1.0000
  O   O34       1.0  0.36161  0.41032  0.22263  1.0000
  O   O35       1.0  0.86161  0.08968  0.72263  1.0000
  O   O36       1.0  0.63839  0.58968  0.77737  1.0000
