data_image0
_chemical_formula_structural       Ag2P2H12C14O10
_chemical_formula_sum              "Ag2 P2 H12 C14 O10"
_cell_length_a       4.72204
_cell_length_b       5.70791
_cell_length_c       15.8921
_cell_angle_alpha    81.8745
_cell_angle_beta     90.3121
_cell_angle_gamma    82.6458

_space_group_name_H-M_alt    "P 1"
_space_group_IT_number       1

loop_
  _space_group_symop_operation_xyz
  'x, y, z'

loop_
  _atom_site_type_symbol
  _atom_site_label
  _atom_site_symmetry_multiplicity
  _atom_site_fract_x
  _atom_site_fract_y
  _atom_site_fract_z
  _atom_site_occupancy
  Ag  Ag1       1.0  0.67395  0.68113  0.01996  1.0000
  Ag  Ag2       1.0  0.32608  0.31887  0.98006  1.0000
  P   P1        1.0  0.79109  0.11112  0.12822  1.0000
  P   P2        1.0  0.20892  0.88887  0.87178  1.0000
  H   H1        1.0  0.40973  0.97993  0.27080  1.0000
  H   H2        1.0  0.59026  0.02007  0.72919  1.0000
  H   H3        1.0  0.87749  0.67426  0.33083  1.0000
  H   H4        1.0  0.12252  0.32574  0.66917  1.0000
  H   H5        1.0  0.54675  0.49544  0.43514  1.0000
  H   H6        1.0  0.45324  0.50456  0.56486  1.0000
  H   H7        1.0  0.97544  0.50812  0.19739  1.0000
  H   H8        1.0  0.02457  0.49187  0.80261  1.0000
  H   H9        1.0  0.00560  0.88390  0.44800  1.0000
  H   H10       1.0  0.99441  0.11609  0.55200  1.0000
  H   H11       1.0  0.24432  0.94671  0.13293  1.0000
  H   H12       1.0  0.75568  0.05329  0.86707  1.0000
  C   C1        1.0  0.26217  0.12400  0.42220  1.0000
  C   C2        1.0  0.73784  0.87600  0.57780  1.0000
  C   C3        1.0  0.51421  0.13110  0.28337  1.0000
  C   C4        1.0  0.48578  0.86890  0.71663  1.0000
  C   C5        1.0  0.77446  0.52267  0.31784  1.0000
  C   C6        1.0  0.22553  0.47735  0.68215  1.0000
  C   C7        1.0  0.58982  0.42225  0.37623  1.0000
  C   C8        1.0  0.41016  0.57777  0.62376  1.0000
  C   C9        1.0  0.70107  0.23166  0.22495  1.0000
  C   C10       1.0  0.29892  0.76835  0.77505  1.0000
  C   C11       1.0  0.45938  0.22610  0.35921  1.0000
  C   C12       1.0  0.54062  0.77390  0.64079  1.0000
  C   C13       1.0  0.83077  0.42793  0.24258  1.0000
  C   C14       1.0  0.16921  0.57209  0.75742  1.0000
  O   O1        1.0  0.21151  0.20910  0.48974  1.0000
  O   O2        1.0  0.78853  0.79089  0.51026  1.0000
  O   O3        1.0  0.14657  0.94055  0.40180  1.0000
  O   O4        1.0  0.85339  0.05947  0.59820  1.0000
  O   O5        1.0  0.04748  0.90298  0.15049  1.0000
  O   O6        1.0  0.95253  0.09701  0.84952  1.0000
  O   O7        1.0  0.53634  0.99628  0.09914  1.0000
  O   O8        1.0  0.46365  0.00369  0.90087  1.0000
  O   O9        1.0  0.88629  0.30565  0.06240  1.0000
  O   O10       1.0  0.11371  0.69433  0.93760  1.0000
