data_image0
_chemical_formula_structural       Ag4P4H24C28O20
_chemical_formula_sum              "Ag4 P4 H24 C28 O20"
_cell_length_a       4.56426
_cell_length_b       5.6126
_cell_length_c       33.1309
_cell_angle_alpha    90
_cell_angle_beta     95.2816
_cell_angle_gamma    90.0004

_space_group_name_H-M_alt    "P 1"
_space_group_IT_number       1

loop_
  _space_group_symop_operation_xyz
  'x, y, z'

loop_
  _atom_site_type_symbol
  _atom_site_label
  _atom_site_symmetry_multiplicity
  _atom_site_fract_x
  _atom_site_fract_y
  _atom_site_fract_z
  _atom_site_occupancy
  Ag  Ag1       1.0  0.55647  0.31629  0.26485  1.0000
  Ag  Ag2       1.0  0.94354  0.81626  0.23515  1.0000
  Ag  Ag3       1.0  0.44353  0.68374  0.73515  1.0000
  Ag  Ag4       1.0  0.05647  0.18374  0.76485  1.0000
  P   P1        1.0  0.50426  0.84094  0.31395  1.0000
  P   P2        1.0  0.99575  0.34091  0.18606  1.0000
  P   P3        1.0  0.49575  0.15909  0.68605  1.0000
  P   P4        1.0  0.00424  0.65909  0.81394  1.0000
  H   H1        1.0  0.37844  0.86115  0.39963  1.0000
  H   H2        1.0  0.12157  0.36110  0.10038  1.0000
  H   H3        1.0  0.62155  0.13886  0.60038  1.0000
  H   H4        1.0  0.87844  0.63886  0.89962  1.0000
  H   H5        1.0  0.84135  0.12613  0.51295  1.0000
  H   H6        1.0  0.65865  0.62610  0.98705  1.0000
  H   H7        1.0  0.15867  0.87389  0.48705  1.0000
  H   H8        1.0  0.34136  0.37386  0.01295  1.0000
  H   H9        1.0  0.10508  0.21430  0.38435  1.0000
  H   H10       1.0  0.39490  0.71427  0.11566  1.0000
  H   H11       1.0  0.89492  0.78571  0.61565  1.0000
  H   H12       1.0  0.60508  0.28573  0.88435  1.0000
  H   H13       1.0  0.06561  0.00590  0.31738  1.0000
  H   H14       1.0  0.43438  0.50587  0.18262  1.0000
  H   H15       1.0  0.93440  0.99412  0.68262  1.0000
  H   H16       1.0  0.56561  0.49412  0.81738  1.0000
  H   H17       1.0  0.95219  0.47299  0.32583  1.0000
  H   H18       1.0  0.54780  0.97296  0.17417  1.0000
  H   H19       1.0  0.04781  0.52704  0.67417  1.0000
  H   H20       1.0  0.45217  0.02705  0.82583  1.0000
  H   H21       1.0  0.54095  0.60277  0.45819  1.0000
  H   H22       1.0  0.95904  0.10274  0.04181  1.0000
  H   H23       1.0  0.45904  0.39722  0.54181  1.0000
  H   H24       1.0  0.04098  0.89721  0.95819  1.0000
  C   C1        1.0  0.53818  0.72034  0.39613  1.0000
  C   C2        1.0  0.96181  0.22032  0.10388  1.0000
  C   C3        1.0  0.46182  0.27967  0.60387  1.0000
  C   C4        1.0  0.03820  0.77967  0.89612  1.0000
  C   C5        1.0  0.82788  0.38975  0.42458  1.0000
  C   C6        1.0  0.67211  0.88974  0.07542  1.0000
  C   C7        1.0  0.17214  0.61026  0.57541  1.0000
  C   C8        1.0  0.32788  0.11025  0.92458  1.0000
  C   C9        1.0  0.64718  0.68043  0.35847  1.0000
  C   C10       1.0  0.85282  0.18039  0.14153  1.0000
  C   C11       1.0  0.35280  0.31959  0.64153  1.0000
  C   C12       1.0  0.14718  0.81960  0.85847  1.0000
  C   C13       1.0  0.94530  0.35531  0.38739  1.0000
  C   C14       1.0  0.55468  0.85528  0.11261  1.0000
  C   C15       1.0  0.05470  0.64471  0.61261  1.0000
  C   C16       1.0  0.44530  0.14472  0.88739  1.0000
  C   C17       1.0  0.91344  0.22265  0.45822  1.0000
  C   C18       1.0  0.58657  0.72262  0.04178  1.0000
  C   C19       1.0  0.08658  0.77735  0.54177  1.0000
  C   C20       1.0  0.41343  0.27734  0.95823  1.0000
  C   C21       1.0  0.85662  0.50012  0.35454  1.0000
  C   C22       1.0  0.64338  0.00009  0.14546  1.0000
  C   C23       1.0  0.14337  0.49990  0.64546  1.0000
  C   C24       1.0  0.35660  0.99991  0.85454  1.0000
  C   C25       1.0  0.62861  0.57559  0.42909  1.0000
  C   C26       1.0  0.87141  0.07558  0.07092  1.0000
  C   C27       1.0  0.37140  0.42441  0.57091  1.0000
  C   C28       1.0  0.12861  0.92440  0.92908  1.0000
  O   O1        1.0  0.34954  0.66969  0.28317  1.0000
  O   O2        1.0  0.15046  0.16967  0.21683  1.0000
  O   O3        1.0  0.65047  0.33034  0.71683  1.0000
  O   O4        1.0  0.84953  0.83032  0.78317  1.0000
  O   O5        1.0  0.78192  0.25744  0.49157  1.0000
  O   O6        1.0  0.71807  0.75740  0.00843  1.0000
  O   O7        1.0  0.21810  0.74260  0.50843  1.0000
  O   O8        1.0  0.28196  0.24255  0.99157  1.0000
  O   O9        1.0  0.09415  0.05857  0.45428  1.0000
  O   O10       1.0  0.40582  0.55854  0.04572  1.0000
  O   O11       1.0  0.90585  0.94145  0.54572  1.0000
  O   O12       1.0  0.59417  0.44144  0.95428  1.0000
  O   O13       1.0  0.28242  0.03190  0.32832  1.0000
  O   O14       1.0  0.21758  0.53188  0.17168  1.0000
  O   O15       1.0  0.71758  0.96811  0.67168  1.0000
  O   O16       1.0  0.78240  0.46812  0.82832  1.0000
  O   O17       1.0  0.76061  0.98045  0.29730  1.0000
  O   O18       1.0  0.73938  0.48044  0.20270  1.0000
  O   O19       1.0  0.23939  0.01956  0.70270  1.0000
  O   O20       1.0  0.26059  0.51956  0.79730  1.0000
