data_image0
_chemical_formula_structural       Fe2Cu2H32C48S8N4Cl4
_chemical_formula_sum              "Fe2 Cu2 H32 C48 S8 N4 Cl4"
_cell_length_a       9.13501
_cell_length_b       13.0593
_cell_length_c       13.4799
_cell_angle_alpha    76.4647
_cell_angle_beta     70.1752
_cell_angle_gamma    69.4814

_space_group_name_H-M_alt    "P 1"
_space_group_IT_number       1

loop_
  _space_group_symop_operation_xyz
  'x, y, z'

loop_
  _atom_site_type_symbol
  _atom_site_label
  _atom_site_symmetry_multiplicity
  _atom_site_fract_x
  _atom_site_fract_y
  _atom_site_fract_z
  _atom_site_occupancy
  Fe  Fe1       1.0  0.00000  1.00000  0.00000  1.0000
  Fe  Fe2       1.0  0.00000  0.50000  0.50000  1.0000
  Cu  Cu1       1.0  0.50000  1.00000  0.50000  1.0000
  Cu  Cu2       1.0  1.00000  0.50000  1.00000  1.0000
  H   H1        1.0  0.03714  0.82882  0.89210  1.0000
  H   H2        1.0  0.75806  0.67138  0.60770  1.0000
  H   H3        1.0  0.96286  0.17118  0.10790  1.0000
  H   H4        1.0  0.24194  0.32862  0.39230  1.0000
  H   H5        1.0  0.74652  0.90968  0.02968  1.0000
  H   H6        1.0  0.68585  0.59055  0.47019  1.0000
  H   H7        1.0  0.25348  0.09032  0.97032  1.0000
  H   H8        1.0  0.31415  0.40945  0.52981  1.0000
  H   H9        1.0  0.67902  0.13281  0.00760  1.0000
  H   H10       1.0  0.81928  0.36739  0.49259  1.0000
  H   H11       1.0  0.32098  0.86719  0.99240  1.0000
  H   H12       1.0  0.18072  0.63261  0.50741  1.0000
  H   H13       1.0  0.93188  0.18919  0.85520  1.0000
  H   H14       1.0  0.97609  0.31092  0.64494  1.0000
  H   H15       1.0  0.06813  0.81081  0.14481  1.0000
  H   H16       1.0  0.02391  0.68908  0.35506  1.0000
  H   H17       1.0  0.38619  0.08732  0.31695  1.0000
  H   H18       1.0  0.79128  0.41288  0.18282  1.0000
  H   H19       1.0  0.61381  0.91268  0.68304  1.0000
  H   H20       1.0  0.20872  0.58712  0.81718  1.0000
  H   H21       1.0  0.20799  0.18111  0.19512  1.0000
  H   H22       1.0  0.58502  0.31919  0.30487  1.0000
  H   H23       1.0  0.79201  0.81890  0.80489  1.0000
  H   H24       1.0  0.41498  0.68081  0.69513  1.0000
  H   H25       1.0  0.90889  0.23464  0.26728  1.0000
  H   H26       1.0  0.41172  0.26557  0.23287  1.0000
  H   H27       1.0  0.09111  0.76536  0.73272  1.0000
  H   H28       1.0  0.58828  0.73443  0.76713  1.0000
  H   H29       1.0  0.77574  0.19747  0.46063  1.0000
  H   H30       1.0  0.43448  0.30275  0.03961  1.0000
  H   H31       1.0  0.22427  0.80253  0.53937  1.0000
  H   H32       1.0  0.56552  0.69725  0.96039  1.0000
  C   C1        1.0  0.03575  0.00678  0.84281  1.0000
  C   C2        1.0  0.88517  0.49342  0.65718  1.0000
  C   C3        1.0  0.96426  0.99322  0.15719  1.0000
  C   C4        1.0  0.11483  0.50658  0.34282  1.0000
  C   C5        1.0  0.97510  0.91531  0.90042  1.0000
  C   C6        1.0  0.79076  0.58490  0.59943  1.0000
  C   C7        1.0  0.02490  0.08469  0.09958  1.0000
  C   C8        1.0  0.20924  0.41510  0.40057  1.0000
  C   C9        1.0  0.82069  0.95896  0.97307  1.0000
  C   C10       1.0  0.75258  0.54128  0.52688  1.0000
  C   C11       1.0  0.17931  0.04104  0.02693  1.0000
  C   C12       1.0  0.24742  0.45872  0.47312  1.0000
  C   C13       1.0  0.78543  0.07654  0.96112  1.0000
  C   C14       1.0  0.82292  0.42367  0.53901  1.0000
  C   C15       1.0  0.21457  0.92346  0.03888  1.0000
  C   C16       1.0  0.17707  0.57633  0.46099  1.0000
  C   C17       1.0  0.91858  0.10694  0.88139  1.0000
  C   C18       1.0  0.90678  0.39323  0.61872  1.0000
  C   C19       1.0  0.08142  0.89306  0.11861  1.0000
  C   C20       1.0  0.09322  0.60677  0.38128  1.0000
  C   C21       1.0  0.17977  0.09614  0.45720  1.0000
  C   C22       1.0  0.73399  0.40383  0.04269  1.0000
  C   C23       1.0  0.82023  0.90386  0.54280  1.0000
  C   C24       1.0  0.26600  0.59617  0.95731  1.0000
  C   C25       1.0  0.25371  0.11353  0.34766  1.0000
  C   C26       1.0  0.71576  0.38661  0.15221  1.0000
  C   C27       1.0  0.74628  0.88647  0.65234  1.0000
  C   C28       1.0  0.28424  0.61339  0.84779  1.0000
  C   C29       1.0  0.15440  0.16477  0.28061  1.0000
  C   C30       1.0  0.60066  0.33544  0.21937  1.0000
  C   C31       1.0  0.84560  0.83523  0.71939  1.0000
  C   C32       1.0  0.39934  0.66456  0.78063  1.0000
  C   C33       1.0  0.98389  0.19603  0.32156  1.0000
  C   C34       1.0  0.50237  0.30414  0.17853  1.0000
  C   C35       1.0  0.01611  0.80397  0.67844  1.0000
  C   C36       1.0  0.49763  0.69586  0.82147  1.0000
  C   C37       1.0  0.90821  0.17714  0.43003  1.0000
  C   C38       1.0  0.51619  0.32298  0.07008  1.0000
  C   C39       1.0  0.09179  0.82286  0.56997  1.0000
  C   C40       1.0  0.48381  0.67702  0.92992  1.0000
  C   C41       1.0  0.00804  0.12811  0.49761  1.0000
  C   C42       1.0  0.63461  0.37185  0.00241  1.0000
  C   C43       1.0  0.99196  0.87189  0.50239  1.0000
  C   C44       1.0  0.36539  0.62815  0.99759  1.0000
  C   C45       1.0  0.15659  0.04558  0.63181  1.0000
  C   C46       1.0  0.83429  0.45456  0.86807  1.0000
  C   C47       1.0  0.84341  0.95442  0.36819  1.0000
  C   C48       1.0  0.16571  0.54544  0.13193  1.0000
  S   S1        1.0  0.22327  0.99713  0.74503  1.0000
  S   S2        1.0  0.96513  0.50343  0.75482  1.0000
  S   S3        1.0  0.77673  0.00287  0.25497  1.0000
  S   S4        1.0  0.03487  0.49657  0.24518  1.0000
  S   S5        1.0  0.95146  0.09749  0.63548  1.0000
  S   S6        1.0  0.68495  0.40249  0.86456  1.0000
  S   S7        1.0  0.04854  0.90251  0.36452  1.0000
  S   S8        1.0  0.31505  0.59751  0.13544  1.0000
  N   N1        1.0  0.25905  0.04909  0.53558  1.0000
  N   N2        1.0  0.84437  0.45092  0.96421  1.0000
  N   N3        1.0  0.74095  0.95091  0.46442  1.0000
  N   N4        1.0  0.15563  0.54908  0.03579  1.0000
  Cl  Cl1       1.0  0.50685  0.82392  0.50371  1.0000
  Cl  Cl2       1.0  0.83388  0.67639  0.99624  1.0000
  Cl  Cl3       1.0  0.49315  0.17608  0.49629  1.0000
  Cl  Cl4       1.0  0.16612  0.32361  0.00376  1.0000
