data_image0
_chemical_formula_structural       Fe2Hg2H32C48S8Br4N4
_chemical_formula_sum              "Fe2 Hg2 H32 C48 S8 Br4 N4"
_cell_length_a       9.82818
_cell_length_b       9.82771
_cell_length_c       14.6812
_cell_angle_alpha    104.208
_cell_angle_beta     106.051
_cell_angle_gamma    102.73

_space_group_name_H-M_alt    "P 1"
_space_group_IT_number       1

loop_
  _space_group_symop_operation_xyz
  'x, y, z'

loop_
  _atom_site_type_symbol
  _atom_site_label
  _atom_site_symmetry_multiplicity
  _atom_site_fract_x
  _atom_site_fract_y
  _atom_site_fract_z
  _atom_site_occupancy
  Fe  Fe1       1.0  1.00000  1.00000  1.00000  1.0000
  Fe  Fe2       1.0  0.50000  0.00000  0.50000  1.0000
  Hg  Hg1       1.0  0.79935  0.54947  0.24996  1.0000
  Hg  Hg2       1.0  0.20064  0.45053  0.75004  1.0000
  H   H1        1.0  0.05645  0.74286  0.90744  1.0000
  H   H2        1.0  0.33543  0.14896  0.59249  1.0000
  H   H3        1.0  0.94354  0.25714  0.09256  1.0000
  H   H4        1.0  0.66457  0.85104  0.40751  1.0000
  H   H5        1.0  0.24371  0.00815  0.93208  1.0000
  H   H6        1.0  0.57629  0.31168  0.56810  1.0000
  H   H7        1.0  0.75628  0.99186  0.06793  1.0000
  H   H8        1.0  0.42371  0.68832  0.43190  1.0000
  H   H9        1.0  0.28927  0.19507  0.11435  1.0000
  H   H10       1.0  0.58118  0.17504  0.38585  1.0000
  H   H11       1.0  0.71072  0.80493  0.88566  1.0000
  H   H12       1.0  0.41882  0.82496  0.61415  1.0000
  H   H13       1.0  0.13185  0.04675  0.20476  1.0000
  H   H14       1.0  0.34239  0.92727  0.29525  1.0000
  H   H15       1.0  0.86814  0.95324  0.79524  1.0000
  H   H16       1.0  0.65761  0.07273  0.70475  1.0000
  H   H17       1.0  0.46820  0.51035  0.20775  1.0000
  H   H18       1.0  0.80269  0.26071  0.29247  1.0000
  H   H19       1.0  0.53180  0.48964  0.79225  1.0000
  H   H20       1.0  0.19731  0.73929  0.70753  1.0000
  H   H21       1.0  0.48075  0.38130  0.33416  1.0000
  H   H22       1.0  0.54735  0.14691  0.16595  1.0000
  H   H23       1.0  0.51926  0.61870  0.66584  1.0000
  H   H24       1.0  0.45265  0.85309  0.83405  1.0000
  H   H25       1.0  0.27781  0.33801  0.40368  1.0000
  H   H26       1.0  0.43461  0.87444  0.09623  1.0000
  H   H27       1.0  0.72218  0.66199  0.59632  1.0000
  H   H28       1.0  0.56539  0.12556  0.90377  1.0000
  H   H29       1.0  0.05642  0.42153  0.34717  1.0000
  H   H30       1.0  0.57466  0.70952  0.15266  1.0000
  H   H31       1.0  0.94358  0.57847  0.65283  1.0000
  H   H32       1.0  0.42535  0.29048  0.84734  1.0000
  C   C1        1.0  0.06301  0.85355  0.06328  1.0000
  C   C2        1.0  0.29042  0.99982  0.43663  1.0000
  C   C3        1.0  0.93698  0.14645  0.93672  1.0000
  C   C4        1.0  0.70958  0.00018  0.56337  1.0000
  C   C5        1.0  0.09918  0.84069  0.97333  1.0000
  C   C6        1.0  0.36748  0.12587  0.52664  1.0000
  C   C7        1.0  0.90082  0.15931  0.02667  1.0000
  C   C8        1.0  0.63252  0.87413  0.47336  1.0000
  C   C9        1.0  0.19788  0.98041  0.98685  1.0000
  C   C10       1.0  0.49385  0.21109  0.51329  1.0000
  C   C11       1.0  0.80212  0.01959  0.01316  1.0000
  C   C12       1.0  0.50615  0.78891  0.48672  1.0000
  C   C13       1.0  0.22277  0.07944  0.08391  1.0000
  C   C14       1.0  0.49592  0.13896  0.41622  1.0000
  C   C15       1.0  0.77723  0.92056  0.91609  1.0000
  C   C16       1.0  0.50408  0.86104  0.58378  1.0000
  C   C17       1.0  0.13976  0.00213  0.13170  1.0000
  C   C18       1.0  0.37077  0.00822  0.36832  1.0000
  C   C19       1.0  0.86023  0.99787  0.86830  1.0000
  C   C20       1.0  0.62923  0.99178  0.63169  1.0000
  C   C21       1.0  0.05291  0.63654  0.14407  1.0000
  C   C22       1.0  0.99259  0.90902  0.35593  1.0000
  C   C23       1.0  0.94708  0.36346  0.85592  1.0000
  C   C24       1.0  0.00741  0.09098  0.64407  1.0000
  C   C25       1.0  0.25566  0.53952  0.20747  1.0000
  C   C26       1.0  0.83229  0.04845  0.29253  1.0000
  C   C27       1.0  0.74434  0.46048  0.79253  1.0000
  C   C28       1.0  0.16771  0.95155  0.70747  1.0000
  C   C29       1.0  0.37935  0.49213  0.23845  1.0000
  C   C30       1.0  0.75386  0.14116  0.26166  1.0000
  C   C31       1.0  0.62065  0.50787  0.76155  1.0000
  C   C32       1.0  0.24614  0.85884  0.73834  1.0000
  C   C33       1.0  0.38415  0.41737  0.30804  1.0000
  C   C34       1.0  0.60958  0.07642  0.19202  1.0000
  C   C35       1.0  0.61585  0.58263  0.69196  1.0000
  C   C36       1.0  0.39042  0.92358  0.80798  1.0000
  C   C37       1.0  0.26868  0.39194  0.34668  1.0000
  C   C38       1.0  0.54556  0.92232  0.15321  1.0000
  C   C39       1.0  0.73132  0.60806  0.65332  1.0000
  C   C40       1.0  0.45444  0.07768  0.84679  1.0000
  C   C41       1.0  0.14423  0.43759  0.31518  1.0000
  C   C42       1.0  0.62272  0.82934  0.18465  1.0000
  C   C43       1.0  0.85577  0.56241  0.68482  1.0000
  C   C44       1.0  0.37729  0.17066  0.81535  1.0000
  C   C45       1.0  0.13645  0.51074  0.24392  1.0000
  C   C46       1.0  0.76708  0.89276  0.25595  1.0000
  C   C47       1.0  0.86355  0.48926  0.75608  1.0000
  C   C48       1.0  0.23292  0.10724  0.74405  1.0000
  S   S1        1.0  0.22110  0.63912  0.12574  1.0000
  S   S2        1.0  0.01357  0.09557  0.37432  1.0000
  S   S3        1.0  0.77890  0.36088  0.87426  1.0000
  S   S4        1.0  0.98643  0.90443  0.62568  1.0000
  S   S5        1.0  0.93355  0.71894  0.08257  1.0000
  S   S6        1.0  0.13652  0.85109  0.41736  1.0000
  S   S7        1.0  0.06645  0.28105  0.91743  1.0000
  S   S8        1.0  0.86348  0.14891  0.58264  1.0000
  Br  Br1       1.0  0.60671  0.40007  0.07716  1.0000
  Br  Br2       1.0  0.82277  0.52958  0.42274  1.0000
  Br  Br3       1.0  0.39329  0.59994  0.92284  1.0000
  Br  Br4       1.0  0.17723  0.47042  0.57726  1.0000
  N   N1        1.0  0.02311  0.56610  0.20531  1.0000
  N   N2        1.0  0.86098  0.81800  0.29457  1.0000
  N   N3        1.0  0.97689  0.43390  0.79469  1.0000
  N   N4        1.0  0.13902  0.18200  0.70543  1.0000
