data_image0
_chemical_formula_structural       Cd2H16C28N16
_chemical_formula_sum              "Cd2 H16 C28 N16"
_cell_length_a       6.48924
_cell_length_b       9.52142
_cell_length_c       13.0364
_cell_angle_alpha    89.1278
_cell_angle_beta     87.5959
_cell_angle_gamma    70.1316

_space_group_name_H-M_alt    "P 1"
_space_group_IT_number       1

loop_
  _space_group_symop_operation_xyz
  'x, y, z'

loop_
  _atom_site_type_symbol
  _atom_site_label
  _atom_site_symmetry_multiplicity
  _atom_site_fract_x
  _atom_site_fract_y
  _atom_site_fract_z
  _atom_site_occupancy
  Cd  Cd1       1.0  0.12322  0.75530  0.25017  1.0000
  Cd  Cd2       1.0  0.87678  0.24470  0.74984  1.0000
  H   H1        1.0  0.77761  0.65974  0.11963  1.0000
  H   H2        1.0  0.56393  0.65968  0.38065  1.0000
  H   H3        1.0  0.22239  0.34027  0.88037  1.0000
  H   H4        1.0  0.43610  0.34031  0.61934  1.0000
  H   H5        1.0  0.28552  0.16491  0.21137  1.0000
  H   H6        1.0  0.55119  0.16489  0.28823  1.0000
  H   H7        1.0  0.71446  0.83509  0.78863  1.0000
  H   H8        1.0  0.44880  0.83511  0.71177  1.0000
  H   H9        1.0  0.71095  0.43196  0.05546  1.0000
  H   H10       1.0  0.85833  0.43181  0.44467  1.0000
  H   H11       1.0  0.28904  0.56805  0.94454  1.0000
  H   H12       1.0  0.14170  0.56818  0.55531  1.0000
  H   H13       1.0  0.97578  0.17903  0.10437  1.0000
  H   H14       1.0  0.84672  0.17891  0.39541  1.0000
  H   H15       1.0  0.02421  0.82097  0.89564  1.0000
  H   H16       1.0  0.15329  0.82108  0.60457  1.0000
  C   C1        1.0  0.20404  0.40560  0.21905  1.0000
  C   C2        1.0  0.39207  0.40557  0.28076  1.0000
  C   C3        1.0  0.79597  0.59440  0.78095  1.0000
  C   C4        1.0  0.60793  0.59443  0.71924  1.0000
  C   C5        1.0  0.72869  0.00738  0.11012  1.0000
  C   C6        1.0  0.26578  0.00714  0.39022  1.0000
  C   C7        1.0  0.27132  0.99262  0.88990  1.0000
  C   C8        1.0  0.73420  0.99287  0.60977  1.0000
  C   C9        1.0  0.88834  0.54760  0.13670  1.0000
  C   C10       1.0  0.56552  0.54752  0.36340  1.0000
  C   C11       1.0  0.11165  0.45240  0.86330  1.0000
  C   C12       1.0  0.43451  0.45247  0.63659  1.0000
  C   C13       1.0  0.17363  0.27352  0.18910  1.0000
  C   C14       1.0  0.55454  0.27346  0.31061  1.0000
  C   C15       1.0  0.82636  0.72649  0.81090  1.0000
  C   C16       1.0  0.44546  0.72654  0.68939  1.0000
  C   C17       1.0  0.85080  0.42087  0.10223  1.0000
  C   C18       1.0  0.72980  0.42075  0.39776  1.0000
  C   C19       1.0  0.14919  0.57915  0.89777  1.0000
  C   C20       1.0  0.27022  0.57924  0.60223  1.0000
  C   C21       1.0  0.99738  0.28170  0.12913  1.0000
  C   C22       1.0  0.72253  0.28158  0.37066  1.0000
  C   C23       1.0  0.00261  0.71831  0.87087  1.0000
  C   C24       1.0  0.27748  0.71841  0.62933  1.0000
  C   C25       1.0  0.63759  0.17245  0.97369  1.0000
  C   C26       1.0  0.18893  0.17272  0.52622  1.0000
  C   C27       1.0  0.36241  0.82754  0.02633  1.0000
  C   C28       1.0  0.81106  0.82729  0.47377  1.0000
  N   N1        1.0  0.06086  0.53969  0.19223  1.0000
  N   N2        1.0  0.40104  0.53963  0.30778  1.0000
  N   N3        1.0  0.93914  0.46032  0.80777  1.0000
  N   N4        1.0  0.59898  0.46036  0.69222  1.0000
  N   N5        1.0  0.83220  0.91291  0.16551  1.0000
  N   N6        1.0  0.25813  0.91218  0.33499  1.0000
  N   N7        1.0  0.16781  0.08710  0.83451  1.0000
  N   N8        1.0  0.74191  0.08780  0.66503  1.0000
  N   N9        1.0  0.59556  0.11332  0.05824  1.0000
  N   N10       1.0  0.29136  0.11369  0.44202  1.0000
  N   N11       1.0  0.40444  0.88668  0.94177  1.0000
  N   N12       1.0  0.70853  0.88638  0.55795  1.0000
  N   N13       1.0  0.65470  0.23765  0.89788  1.0000
  N   N14       1.0  0.10538  0.23797  0.60172  1.0000
  N   N15       1.0  0.34529  0.76235  0.10213  1.0000
  N   N16       1.0  0.89463  0.76202  0.39830  1.0000
