data_image0
_chemical_formula_structural       Cd4H32C64N32
_chemical_formula_sum              "Cd4 H32 C64 N32"
_cell_length_a       9.84093
_cell_length_b       10.9414
_cell_length_c       14.7723
_cell_angle_alpha    89.9998
_cell_angle_beta     96.8488
_cell_angle_gamma    89.9997

_space_group_name_H-M_alt    "P 1"
_space_group_IT_number       1

loop_
  _space_group_symop_operation_xyz
  'x, y, z'

loop_
  _atom_site_type_symbol
  _atom_site_label
  _atom_site_symmetry_multiplicity
  _atom_site_fract_x
  _atom_site_fract_y
  _atom_site_fract_z
  _atom_site_occupancy
  Cd  Cd1       1.0  0.35272  0.07366  0.76327  1.0000
  Cd  Cd2       1.0  0.64728  0.57366  0.73673  1.0000
  Cd  Cd3       1.0  0.64728  0.92634  0.23673  1.0000
  Cd  Cd4       1.0  0.35271  0.42634  0.26327  1.0000
  H   H1        1.0  0.36893  0.77196  0.73941  1.0000
  H   H2        1.0  0.63107  0.27196  0.76059  1.0000
  H   H3        1.0  0.63107  0.22804  0.26059  1.0000
  H   H4        1.0  0.36892  0.72804  0.23941  1.0000
  H   H5        1.0  0.22323  0.59853  0.67337  1.0000
  H   H6        1.0  0.77677  0.09852  0.82663  1.0000
  H   H7        1.0  0.77677  0.40148  0.32663  1.0000
  H   H8        1.0  0.22322  0.90147  0.17337  1.0000
  H   H9        1.0  0.98895  0.64455  0.59257  1.0000
  H   H10       1.0  0.01105  0.14455  0.90743  1.0000
  H   H11       1.0  0.01105  0.35545  0.40743  1.0000
  H   H12       1.0  0.98895  0.85545  0.09257  1.0000
  H   H13       1.0  0.81206  0.80142  0.53840  1.0000
  H   H14       1.0  0.18795  0.30142  0.96160  1.0000
  H   H15       1.0  0.18795  0.19858  0.46160  1.0000
  H   H16       1.0  0.81205  0.69858  0.03840  1.0000
  H   H17       1.0  0.73652  0.01808  0.53144  1.0000
  H   H18       1.0  0.26348  0.51808  0.96856  1.0000
  H   H19       1.0  0.26348  0.98192  0.46856  1.0000
  H   H20       1.0  0.73652  0.48192  0.03144  1.0000
  H   H21       1.0  0.78497  0.23835  0.56968  1.0000
  H   H22       1.0  0.21503  0.73834  0.93031  1.0000
  H   H23       1.0  0.21503  0.76165  0.43031  1.0000
  H   H24       1.0  0.78497  0.26165  0.06969  1.0000
  H   H25       1.0  0.94719  0.39537  0.63960  1.0000
  H   H26       1.0  0.05281  0.89537  0.86039  1.0000
  H   H27       1.0  0.05282  0.60463  0.36040  1.0000
  H   H28       1.0  0.94719  0.10463  0.13961  1.0000
  H   H29       1.0  0.17803  0.32702  0.71769  1.0000
  H   H30       1.0  0.82197  0.82701  0.78231  1.0000
  H   H31       1.0  0.82197  0.67298  0.28231  1.0000
  H   H32       1.0  0.17804  0.17298  0.21769  1.0000
  C   C1        1.0  0.46499  0.21143  0.41587  1.0000
  C   C2        1.0  0.53500  0.71143  0.08412  1.0000
  C   C3        1.0  0.53500  0.78857  0.58413  1.0000
  C   C4        1.0  0.46500  0.28857  0.91588  1.0000
  C   C5        1.0  0.49113  0.14567  0.56598  1.0000
  C   C6        1.0  0.50886  0.64567  0.93402  1.0000
  C   C7        1.0  0.50887  0.85433  0.43402  1.0000
  C   C8        1.0  0.49113  0.35433  0.06598  1.0000
  C   C9        1.0  0.61185  0.93222  0.88883  1.0000
  C   C10       1.0  0.38816  0.43222  0.61117  1.0000
  C   C11       1.0  0.38815  0.06778  0.11117  1.0000
  C   C12       1.0  0.61184  0.56778  0.38883  1.0000
  C   C13       1.0  0.73801  0.94396  0.02983  1.0000
  C   C14       1.0  0.26200  0.44396  0.47017  1.0000
  C   C15       1.0  0.26199  0.05604  0.97017  1.0000
  C   C16       1.0  0.73801  0.55605  0.52983  1.0000
  C   C17       1.0  0.26726  0.78857  0.70334  1.0000
  C   C18       1.0  0.73274  0.28856  0.79666  1.0000
  C   C19       1.0  0.73274  0.21143  0.29666  1.0000
  C   C20       1.0  0.26725  0.71144  0.20334  1.0000
  C   C21       1.0  0.18471  0.69171  0.66600  1.0000
  C   C22       1.0  0.81529  0.19171  0.83400  1.0000
  C   C23       1.0  0.81529  0.30829  0.33400  1.0000
  C   C24       1.0  0.18470  0.80829  0.16600  1.0000
  C   C25       1.0  0.05647  0.71735  0.62133  1.0000
  C   C26       1.0  0.94353  0.21734  0.87868  1.0000
  C   C27       1.0  0.94353  0.28265  0.37867  1.0000
  C   C28       1.0  0.05647  0.78265  0.12132  1.0000
  C   C29       1.0  0.00992  0.83973  0.61491  1.0000
  C   C30       1.0  0.99008  0.33973  0.88509  1.0000
  C   C31       1.0  0.99008  0.16027  0.38509  1.0000
  C   C32       1.0  0.00992  0.66027  0.11491  1.0000
  C   C33       1.0  0.87813  0.87323  0.57016  1.0000
  C   C34       1.0  0.12187  0.37323  0.92984  1.0000
  C   C35       1.0  0.12187  0.12677  0.42984  1.0000
  C   C36       1.0  0.87813  0.62677  0.07016  1.0000
  C   C37       1.0  0.83646  0.99244  0.56635  1.0000
  C   C38       1.0  0.16354  0.49244  0.93365  1.0000
  C   C39       1.0  0.16354  0.00756  0.43365  1.0000
  C   C40       1.0  0.83646  0.50756  0.06635  1.0000
  C   C41       1.0  0.92374  0.08743  0.60669  1.0000
  C   C42       1.0  0.07626  0.58742  0.89331  1.0000
  C   C43       1.0  0.07627  0.91257  0.39331  1.0000
  C   C44       1.0  0.92373  0.41258  0.10669  1.0000
  C   C45       1.0  0.88565  0.21209  0.60317  1.0000
  C   C46       1.0  0.11435  0.71208  0.89683  1.0000
  C   C47       1.0  0.11436  0.78792  0.39683  1.0000
  C   C48       1.0  0.88565  0.28791  0.10317  1.0000
  C   C49       1.0  0.97636  0.29931  0.64162  1.0000
  C   C50       1.0  0.02364  0.79930  0.85838  1.0000
  C   C51       1.0  0.02364  0.70069  0.35838  1.0000
  C   C52       1.0  0.97636  0.20070  0.14162  1.0000
  C   C53       1.0  0.10427  0.26152  0.68485  1.0000
  C   C54       1.0  0.89573  0.76151  0.81515  1.0000
  C   C55       1.0  0.89574  0.73849  0.31515  1.0000
  C   C56       1.0  0.10427  0.23849  0.18485  1.0000
  C   C57       1.0  0.05597  0.05789  0.65100  1.0000
  C   C58       1.0  0.94403  0.55789  0.84900  1.0000
  C   C59       1.0  0.94404  0.94211  0.34900  1.0000
  C   C60       1.0  0.05597  0.44211  0.15100  1.0000
  C   C61       1.0  0.10008  0.93161  0.65491  1.0000
  C   C62       1.0  0.89992  0.43161  0.84509  1.0000
  C   C63       1.0  0.89993  0.06839  0.34509  1.0000
  C   C64       1.0  0.10007  0.56839  0.15491  1.0000
  N   N1        1.0  0.41334  0.25225  0.34612  1.0000
  N   N2        1.0  0.58666  0.75226  0.15388  1.0000
  N   N3        1.0  0.58666  0.74775  0.65388  1.0000
  N   N4        1.0  0.41334  0.24774  0.84612  1.0000
  N   N5        1.0  0.53270  0.16262  0.48706  1.0000
  N   N6        1.0  0.46730  0.66262  0.01294  1.0000
  N   N7        1.0  0.46730  0.83738  0.51294  1.0000
  N   N8        1.0  0.53270  0.33738  0.98706  1.0000
  N   N9        1.0  0.46791  0.12565  0.64099  1.0000
  N   N10       1.0  0.53208  0.62565  0.85901  1.0000
  N   N11       1.0  0.53209  0.87435  0.35902  1.0000
  N   N12       1.0  0.46791  0.37436  0.14098  1.0000
  N   N13       1.0  0.52643  0.95438  0.82823  1.0000
  N   N14       1.0  0.47357  0.45437  0.67177  1.0000
  N   N15       1.0  0.47356  0.04562  0.17177  1.0000
  N   N16       1.0  0.52643  0.54562  0.32823  1.0000
  N   N17       1.0  0.71107  0.89846  0.94891  1.0000
  N   N18       1.0  0.28894  0.39846  0.55109  1.0000
  N   N19       1.0  0.28893  0.10154  0.05109  1.0000
  N   N20       1.0  0.71107  0.60154  0.44891  1.0000
  N   N21       1.0  0.77357  0.97610  0.10541  1.0000
  N   N22       1.0  0.22642  0.47611  0.39459  1.0000
  N   N23       1.0  0.22642  0.02389  0.89459  1.0000
  N   N24       1.0  0.77358  0.52391  0.60541  1.0000
  N   N25       1.0  0.22643  0.90431  0.69696  1.0000
  N   N26       1.0  0.77357  0.40430  0.80304  1.0000
  N   N27       1.0  0.77358  0.09569  0.30304  1.0000
  N   N28       1.0  0.22642  0.59569  0.19696  1.0000
  N   N29       1.0  0.14242  0.14495  0.68941  1.0000
  N   N30       1.0  0.85758  0.64495  0.81060  1.0000
  N   N31       1.0  0.85759  0.85505  0.31060  1.0000
  N   N32       1.0  0.14242  0.35505  0.18941  1.0000
