data_image0
_chemical_formula_structural       Zn4H12C12N16O8
_chemical_formula_sum              "Zn4 H12 C12 N16 O8"
_cell_length_a       8.03348
_cell_length_b       9.12665
_cell_length_c       10.3063
_cell_angle_alpha    104.029
_cell_angle_beta     89.9995
_cell_angle_gamma    89.9997

_space_group_name_H-M_alt    "P 1"
_space_group_IT_number       1

loop_
  _space_group_symop_operation_xyz
  'x, y, z'

loop_
  _atom_site_type_symbol
  _atom_site_label
  _atom_site_symmetry_multiplicity
  _atom_site_fract_x
  _atom_site_fract_y
  _atom_site_fract_z
  _atom_site_occupancy
  Zn  Zn1       1.0  0.94021  0.68687  0.44481  1.0000
  Zn  Zn2       1.0  0.44023  0.31314  0.05519  1.0000
  Zn  Zn3       1.0  0.05978  0.31313  0.55519  1.0000
  Zn  Zn4       1.0  0.55978  0.68687  0.94481  1.0000
  H   H1        1.0  0.76206  0.82313  0.21229  1.0000
  H   H2        1.0  0.26209  0.17688  0.28772  1.0000
  H   H3        1.0  0.23793  0.17688  0.78771  1.0000
  H   H4        1.0  0.73793  0.82313  0.71229  1.0000
  H   H5        1.0  0.70189  0.26687  0.24527  1.0000
  H   H6        1.0  0.20186  0.73313  0.25472  1.0000
  H   H7        1.0  0.29812  0.73313  0.75473  1.0000
  H   H8        1.0  0.79811  0.26687  0.74528  1.0000
  H   H9        1.0  0.78921  0.38305  0.38699  1.0000
  H   H10       1.0  0.28918  0.61694  0.11301  1.0000
  H   H11       1.0  0.21080  0.61695  0.61301  1.0000
  H   H12       1.0  0.71081  0.38306  0.88700  1.0000
  C   C1        1.0  0.91105  0.01902  0.52861  1.0000
  C   C2        1.0  0.41104  0.98098  0.97136  1.0000
  C   C3        1.0  0.08895  0.98097  0.47135  1.0000
  C   C4        1.0  0.58894  0.01901  0.02861  1.0000
  C   C5        1.0  0.72604  0.70758  0.20792  1.0000
  C   C6        1.0  0.22606  0.29243  0.29209  1.0000
  C   C7        1.0  0.27395  0.29243  0.79208  1.0000
  C   C8        1.0  0.77396  0.70757  0.70792  1.0000
  C   C9        1.0  0.70244  0.48847  0.24774  1.0000
  C   C10       1.0  0.20244  0.51153  0.25226  1.0000
  C   C11       1.0  0.29756  0.51153  0.75226  1.0000
  C   C12       1.0  0.79756  0.48847  0.74775  1.0000
  N   N1        1.0  0.77337  0.62699  0.29574  1.0000
  N   N2        1.0  0.27337  0.37301  0.20427  1.0000
  N   N3        1.0  0.22663  0.37301  0.70426  1.0000
  N   N4        1.0  0.72663  0.62699  0.79574  1.0000
  N   N5        1.0  0.63164  0.62687  0.11119  1.0000
  N   N6        1.0  0.13166  0.37313  0.38883  1.0000
  N   N7        1.0  0.36835  0.37313  0.88882  1.0000
  N   N8        1.0  0.86836  0.62687  0.61119  1.0000
  N   N9        1.0  0.61544  0.48425  0.13520  1.0000
  N   N10       1.0  0.11544  0.51575  0.36480  1.0000
  N   N11       1.0  0.38456  0.51576  0.86480  1.0000
  N   N12       1.0  0.88456  0.48424  0.63520  1.0000
  N   N13       1.0  0.71086  0.37200  0.30816  1.0000
  N   N14       1.0  0.21084  0.62799  0.19183  1.0000
  N   N15       1.0  0.28915  0.62799  0.69183  1.0000
  N   N16       1.0  0.78915  0.37200  0.80817  1.0000
  O   O1        1.0  0.87724  0.15939  0.57172  1.0000
  O   O2        1.0  0.37721  0.84062  0.92827  1.0000
  O   O3        1.0  0.12277  0.84061  0.42826  1.0000
  O   O4        1.0  0.62276  0.15939  0.07171  1.0000
  O   O5        1.0  0.81439  0.91115  0.52867  1.0000
  O   O6        1.0  0.31437  0.08886  0.97133  1.0000
  O   O7        1.0  0.18563  0.08885  0.47133  1.0000
  O   O8        1.0  0.68560  0.91115  0.02867  1.0000
