data_image0
_chemical_formula_structural       Zn4H28C40N12O16
_chemical_formula_sum              "Zn4 H28 C40 N12 O16"
_cell_length_a       8.94445
_cell_length_b       10.4753
_cell_length_c       13.0528
_cell_angle_alpha    71.6101
_cell_angle_beta     85.8289
_cell_angle_gamma    91.0269

_space_group_name_H-M_alt    "P 1"
_space_group_IT_number       1

loop_
  _space_group_symop_operation_xyz
  'x, y, z'

loop_
  _atom_site_type_symbol
  _atom_site_label
  _atom_site_symmetry_multiplicity
  _atom_site_fract_x
  _atom_site_fract_y
  _atom_site_fract_z
  _atom_site_occupancy
  Zn  Zn1       1.0  0.22301  0.57399  0.51455  1.0000
  Zn  Zn2       1.0  0.77699  0.42601  0.48544  1.0000
  Zn  Zn3       1.0  0.31461  0.04639  0.69654  1.0000
  Zn  Zn4       1.0  0.68538  0.95361  0.30346  1.0000
  H   H1        1.0  0.21724  0.21114  0.80240  1.0000
  H   H2        1.0  0.78276  0.78886  0.19760  1.0000
  H   H3        1.0  0.22018  0.28060  0.67240  1.0000
  H   H4        1.0  0.77982  0.71941  0.32760  1.0000
  H   H5        1.0  0.04850  0.92602  0.68296  1.0000
  H   H6        1.0  0.95150  0.07397  0.31704  1.0000
  H   H7        1.0  0.19418  0.83020  0.68283  1.0000
  H   H8        1.0  0.80582  0.16980  0.31718  1.0000
  H   H9        1.0  0.52920  0.39313  0.13741  1.0000
  H   H10       1.0  0.47080  0.60687  0.86259  1.0000
  H   H11       1.0  0.28401  0.45840  0.05822  1.0000
  H   H12       1.0  0.71599  0.54160  0.94178  1.0000
  H   H13       1.0  0.05454  0.45085  0.18280  1.0000
  H   H14       1.0  0.94546  0.54915  0.81720  1.0000
  H   H15       1.0  0.48400  0.59887  0.36712  1.0000
  H   H16       1.0  0.51600  0.40114  0.63288  1.0000
  H   H17       1.0  0.55549  0.69999  0.16738  1.0000
  H   H18       1.0  0.44451  0.30001  0.83262  1.0000
  H   H19       1.0  0.11170  0.85271  0.13257  1.0000
  H   H20       1.0  0.88830  0.14730  0.86743  1.0000
  H   H21       1.0  0.05604  0.74436  0.33256  1.0000
  H   H22       1.0  0.94396  0.25564  0.66744  1.0000
  H   H23       1.0  0.80718  0.86286  0.85753  1.0000
  H   H24       1.0  0.19281  0.13714  0.14247  1.0000
  H   H25       1.0  0.87756  0.02971  0.52170  1.0000
  H   H26       1.0  0.12244  0.97029  0.47830  1.0000
  H   H27       1.0  0.60620  0.08754  0.51247  1.0000
  H   H28       1.0  0.39380  0.91246  0.48753  1.0000
  C   C1        1.0  0.16975  0.37582  0.32734  1.0000
  C   C2        1.0  0.83024  0.62418  0.67266  1.0000
  C   C3        1.0  0.30737  0.34050  0.37156  1.0000
  C   C4        1.0  0.69263  0.65950  0.62844  1.0000
  C   C5        1.0  0.43694  0.35004  0.30133  1.0000
  C   C6        1.0  0.56306  0.64996  0.69867  1.0000
  C   C7        1.0  0.42690  0.38895  0.18930  1.0000
  C   C8        1.0  0.57310  0.61105  0.81070  1.0000
  C   C9        1.0  0.29021  0.42535  0.14578  1.0000
  C   C10       1.0  0.70979  0.57465  0.85422  1.0000
  C   C11       1.0  0.16240  0.42106  0.21477  1.0000
  C   C12       1.0  0.83760  0.57894  0.78523  1.0000
  C   C13       1.0  0.03046  0.36522  0.40095  1.0000
  C   C14       1.0  0.96954  0.63477  0.59905  1.0000
  C   C15       1.0  0.31147  0.29246  0.49304  1.0000
  C   C16       1.0  0.68853  0.70753  0.50696  1.0000
  C   C17       1.0  0.58992  0.33620  0.34281  1.0000
  C   C18       1.0  0.41009  0.66380  0.65719  1.0000
  C   C19       1.0  0.40531  0.65590  0.31199  1.0000
  C   C20       1.0  0.59469  0.34410  0.68801  1.0000
  C   C21       1.0  0.44472  0.71265  0.20228  1.0000
  C   C22       1.0  0.55528  0.28735  0.79772  1.0000
  C   C23       1.0  0.33942  0.78495  0.13421  1.0000
  C   C24       1.0  0.66058  0.21505  0.86579  1.0000
  C   C25       1.0  0.19667  0.79683  0.18196  1.0000
  C   C26       1.0  0.80333  0.20318  0.81804  1.0000
  C   C27       1.0  0.16476  0.73685  0.29250  1.0000
  C   C28       1.0  0.83525  0.26315  0.70750  1.0000
  C   C29       1.0  0.37944  0.84533  0.01888  1.0000
  C   C30       1.0  0.62056  0.15468  0.98112  1.0000
  C   C31       1.0  0.50164  0.90818  0.86746  1.0000
  C   C32       1.0  0.49836  0.09183  0.13254  1.0000
  C   C33       1.0  0.61041  0.93890  0.77443  1.0000
  C   C34       1.0  0.38959  0.06111  0.22557  1.0000
  C   C35       1.0  0.76280  0.91064  0.77961  1.0000
  C   C36       1.0  0.23719  0.08936  0.22039  1.0000
  C   C37       1.0  0.80202  0.00361  0.59494  1.0000
  C   C38       1.0  0.19798  0.99640  0.40506  1.0000
  C   C39       1.0  0.65100  0.03488  0.58912  1.0000
  C   C40       1.0  0.34900  0.96512  0.41088  1.0000
  N   N1        1.0  0.26695  0.66687  0.35661  1.0000
  N   N2        1.0  0.73305  0.33314  0.64339  1.0000
  N   N3        1.0  0.51848  0.83860  0.97108  1.0000
  N   N4        1.0  0.48152  0.16141  0.02892  1.0000
  N   N5        1.0  0.36129  0.95454  0.85256  1.0000
  N   N6        1.0  0.63870  0.04546  0.14745  1.0000
  N   N7        1.0  0.28157  0.91489  0.94916  1.0000
  N   N8        1.0  0.71843  0.08511  0.05085  1.0000
  N   N9        1.0  0.85743  0.94259  0.69023  1.0000
  N   N10       1.0  0.14256  0.05741  0.30977  1.0000
  N   N11       1.0  0.55573  0.00245  0.67794  1.0000
  N   N12       1.0  0.44426  0.99756  0.32206  1.0000
  O   O1        1.0  0.95175  0.47208  0.37944  1.0000
  O   O2        1.0  0.04825  0.52791  0.62056  1.0000
  O   O3        1.0  0.99714  0.25969  0.47793  1.0000
  O   O4        1.0  0.00285  0.74030  0.52207  1.0000
  O   O5        1.0  0.27468  0.37252  0.54700  1.0000
  O   O6        1.0  0.72532  0.62748  0.45300  1.0000
  O   O7        1.0  0.34478  0.17176  0.53700  1.0000
  O   O8        1.0  0.65521  0.82824  0.46300  1.0000
  O   O9        1.0  0.59738  0.37133  0.42876  1.0000
  O   O10       1.0  0.40262  0.62867  0.57124  1.0000
  O   O11       1.0  0.69591  0.29969  0.29185  1.0000
  O   O12       1.0  0.30409  0.70031  0.70815  1.0000
  O   O13       1.0  0.19078  0.19721  0.73565  1.0000
  O   O14       1.0  0.80922  0.80279  0.26435  1.0000
  O   O15       1.0  0.16082  0.92452  0.66597  1.0000
  O   O16       1.0  0.83918  0.07548  0.33403  1.0000
