data_image0
_chemical_formula_structural       Cu2H24C12N4Cl4O4F4
_chemical_formula_sum              "Cu2 H24 C12 N4 Cl4 O4 F4"
_cell_length_a       8.08402
_cell_length_b       9.02072
_cell_length_c       9.02075
_cell_angle_alpha    84.6128
_cell_angle_beta     68.2737
_cell_angle_gamma    68.2738

_space_group_name_H-M_alt    "P 1"
_space_group_IT_number       1

loop_
  _space_group_symop_operation_xyz
  'x, y, z'

loop_
  _atom_site_type_symbol
  _atom_site_label
  _atom_site_symmetry_multiplicity
  _atom_site_fract_x
  _atom_site_fract_y
  _atom_site_fract_z
  _atom_site_occupancy
  Cu  Cu1       1.0  0.24561  0.61702  0.73396  1.0000
  Cu  Cu2       1.0  0.74562  0.73395  0.61702  1.0000
  H   H1        1.0  0.50683  0.33033  0.68076  1.0000
  H   H2        1.0  0.00683  0.68074  0.33032  1.0000
  H   H3        1.0  0.55643  0.45887  0.76240  1.0000
  H   H4        1.0  0.05644  0.76239  0.45886  1.0000
  H   H5        1.0  0.18730  0.96417  0.64842  1.0000
  H   H6        1.0  0.68728  0.64842  0.96417  1.0000
  H   H7        1.0  0.36699  0.01970  0.65178  1.0000
  H   H8        1.0  0.86699  0.65178  0.01970  1.0000
  H   H9        1.0  0.20166  0.13938  0.57676  1.0000
  H   H10       1.0  0.70166  0.57676  0.13938  1.0000
  H   H11       1.0  0.43012  0.12759  0.83703  1.0000
  H   H12       1.0  0.93012  0.83703  0.12758  1.0000
  H   H13       1.0  0.26830  0.17026  0.03652  1.0000
  H   H14       1.0  0.76830  0.03652  0.17026  1.0000
  H   H15       1.0  0.00826  0.35183  0.95788  1.0000
  H   H16       1.0  0.50827  0.95787  0.35183  1.0000
  H   H17       1.0  0.15794  0.35042  0.75954  1.0000
  H   H18       1.0  0.65794  0.75954  0.35041  1.0000
  H   H19       1.0  0.10161  0.04501  0.91039  1.0000
  H   H20       1.0  0.60159  0.91040  0.04502  1.0000
  H   H21       1.0  0.94671  0.18316  0.82125  1.0000
  H   H22       1.0  0.44670  0.82125  0.18317  1.0000
  H   H23       1.0  0.44310  0.27693  0.14467  1.0000
  H   H24       1.0  0.94311  0.14466  0.27692  1.0000
  C   C1        1.0  0.19544  0.49413  0.04077  1.0000
  C   C2        1.0  0.69545  0.04076  0.49414  1.0000
  C   C3        1.0  0.37311  0.35862  0.93174  1.0000
  C   C4        1.0  0.87311  0.93174  0.35862  1.0000
  C   C5        1.0  0.30699  0.22177  0.91903  1.0000
  C   C6        1.0  0.80698  0.91903  0.22177  1.0000
  C   C7        1.0  0.13735  0.27561  0.86363  1.0000
  C   C8        1.0  0.63735  0.86362  0.27561  1.0000
  C   C9        1.0  0.09058  0.13928  0.82466  1.0000
  C   C10       1.0  0.59056  0.82466  0.13930  1.0000
  C   C11       1.0  0.51401  0.29690  0.01872  1.0000
  C   C12       1.0  0.01402  0.01871  0.29689  1.0000
  N   N1        1.0  0.45072  0.41659  0.77200  1.0000
  N   N2        1.0  0.95073  0.77200  0.41658  1.0000
  N   N3        1.0  0.22242  0.06033  0.66378  1.0000
  N   N4        1.0  0.72241  0.66379  0.06033  1.0000
  Cl  Cl1       1.0  0.38878  0.61488  0.46963  1.0000
  Cl  Cl2       1.0  0.88879  0.46962  0.61487  1.0000
  Cl  Cl3       1.0  0.98077  0.83528  0.74881  1.0000
  Cl  Cl4       1.0  0.48077  0.74882  0.83528  1.0000
  O   O1        1.0  0.13491  0.48416  0.18791  1.0000
  O   O2        1.0  0.63490  0.18792  0.48416  1.0000
  O   O3        1.0  0.11027  0.60828  0.96548  1.0000
  O   O4        1.0  0.61028  0.96547  0.60828  1.0000
  F   F1        1.0  0.66009  0.15586  0.94477  1.0000
  F   F2        1.0  0.16009  0.94477  0.15584  1.0000
  F   F3        1.0  0.60213  0.40425  0.01522  1.0000
  F   F4        1.0  0.10215  0.01522  0.40423  1.0000
