data_image0
_chemical_formula_structural       UH14C22N4O6
_chemical_formula_sum              "U1 H14 C22 N4 O6"
_cell_length_a       6.11435
_cell_length_b       9.04914
_cell_length_c       9.30051
_cell_angle_alpha    84.544
_cell_angle_beta     81.1282
_cell_angle_gamma    75.6741

_space_group_name_H-M_alt    "P 1"
_space_group_IT_number       1

loop_
  _space_group_symop_operation_xyz
  'x, y, z'

loop_
  _atom_site_type_symbol
  _atom_site_label
  _atom_site_symmetry_multiplicity
  _atom_site_fract_x
  _atom_site_fract_y
  _atom_site_fract_z
  _atom_site_occupancy
  U   U1        1.0  1.00000  0.50000  1.00000  1.0000
  H   H1        1.0  0.66055  0.37136  0.60126  1.0000
  H   H2        1.0  0.33946  0.62864  0.39875  1.0000
  H   H3        1.0  0.21741  0.97516  0.65044  1.0000
  H   H4        1.0  0.78259  0.02483  0.34957  1.0000
  H   H5        1.0  0.00408  0.89291  0.87801  1.0000
  H   H6        1.0  0.99589  0.10708  0.12200  1.0000
  H   H7        1.0  0.62069  0.04913  0.96839  1.0000
  H   H8        1.0  0.37929  0.95088  0.03161  1.0000
  H   H9        1.0  0.82550  0.34749  0.35561  1.0000
  H   H10       1.0  0.17451  0.65250  0.64439  1.0000
  H   H11       1.0  0.47673  0.36597  0.15659  1.0000
  H   H12       1.0  0.52327  0.63403  0.84341  1.0000
  H   H13       1.0  0.42092  0.14099  0.56402  1.0000
  H   H14       1.0  0.57908  0.85901  0.43599  1.0000
  C   C1        1.0  0.61485  0.21470  0.78624  1.0000
  C   C2        1.0  0.38515  0.78530  0.21376  1.0000
  C   C3        1.0  0.73703  0.26505  0.65898  1.0000
  C   C4        1.0  0.26297  0.73494  0.34102  1.0000
  C   C5        1.0  0.95802  0.18194  0.61052  1.0000
  C   C6        1.0  0.04198  0.81806  0.38948  1.0000
  C   C7        1.0  0.05061  0.04601  0.68937  1.0000
  C   C8        1.0  0.94939  0.95399  0.31063  1.0000
  C   C9        1.0  0.92980  0.99721  0.81681  1.0000
  C   C10       1.0  0.07018  0.00279  0.18319  1.0000
  C   C11       1.0  0.71358  0.08251  0.86632  1.0000
  C   C12       1.0  0.28640  0.91750  0.13368  1.0000
  C   C13       1.0  0.38579  0.30415  0.84495  1.0000
  C   C14       1.0  0.61421  0.69586  0.15505  1.0000
  C   C15       1.0  0.09813  0.23538  0.48237  1.0000
  C   C16       1.0  0.90188  0.76462  0.51763  1.0000
  C   C17       1.0  0.00788  0.31950  0.36160  1.0000
  C   C18       1.0  0.99213  0.68050  0.63840  1.0000
  C   C19       1.0  0.36831  0.32898  0.25030  1.0000
  C   C20       1.0  0.63169  0.67102  0.74970  1.0000
  C   C21       1.0  0.33568  0.20396  0.47414  1.0000
  C   C22       1.0  0.66433  0.79604  0.52586  1.0000
  N   N1        1.0  0.14176  0.36559  0.24638  1.0000
  N   N2        1.0  0.85825  0.63440  0.75362  1.0000
  N   N3        1.0  0.47040  0.25010  0.36015  1.0000
  N   N4        1.0  0.52961  0.74990  0.63985  1.0000
  O   O1        1.0  0.19967  0.61404  0.01417  1.0000
  O   O2        1.0  0.80035  0.38596  0.98583  1.0000
  O   O3        1.0  0.29469  0.26533  0.97241  1.0000
  O   O4        1.0  0.70531  0.73468  0.02758  1.0000
  O   O5        1.0  0.27863  0.42133  0.77495  1.0000
  O   O6        1.0  0.72137  0.57867  0.22505  1.0000
