data_image0
_chemical_formula_structural       Fe4Cu4H48C56I4N8
_chemical_formula_sum              "Fe4 Cu4 H48 C56 I4 N8"
_cell_length_a       9.41176
_cell_length_b       12.3518
_cell_length_c       12.4993
_cell_angle_alpha    111.861
_cell_angle_beta     89.9998
_cell_angle_gamma    90.0004

_space_group_name_H-M_alt    "P 1"
_space_group_IT_number       1

loop_
  _space_group_symop_operation_xyz
  'x, y, z'

loop_
  _atom_site_type_symbol
  _atom_site_label
  _atom_site_symmetry_multiplicity
  _atom_site_fract_x
  _atom_site_fract_y
  _atom_site_fract_z
  _atom_site_occupancy
  Fe  Fe1       1.0  0.03106  0.86405  0.69800  1.0000
  Fe  Fe2       1.0  0.46894  0.86405  0.19800  1.0000
  Fe  Fe3       1.0  0.96894  0.13595  0.30199  1.0000
  Fe  Fe4       1.0  0.53106  0.13595  0.80200  1.0000
  Cu  Cu1       1.0  0.94589  0.50635  0.11154  1.0000
  Cu  Cu2       1.0  0.55411  0.50635  0.61154  1.0000
  Cu  Cu3       1.0  0.05411  0.49365  0.88846  1.0000
  Cu  Cu4       1.0  0.44589  0.49365  0.38846  1.0000
  H   H1        1.0  0.92207  0.71840  0.32573  1.0000
  H   H2        1.0  0.57793  0.71839  0.82573  1.0000
  H   H3        1.0  0.07792  0.28160  0.67426  1.0000
  H   H4        1.0  0.42207  0.28161  0.17427  1.0000
  H   H5        1.0  0.29485  0.70688  0.52408  1.0000
  H   H6        1.0  0.20515  0.70688  0.02408  1.0000
  H   H7        1.0  0.70515  0.29312  0.47591  1.0000
  H   H8        1.0  0.79485  0.29312  0.97592  1.0000
  H   H9        1.0  0.20679  0.44211  0.20946  1.0000
  H   H10       1.0  0.29321  0.44211  0.70947  1.0000
  H   H11       1.0  0.79321  0.55789  0.79054  1.0000
  H   H12       1.0  0.70679  0.55789  0.29053  1.0000
  H   H13       1.0  0.82395  0.84949  0.53233  1.0000
  H   H14       1.0  0.67605  0.84949  0.03233  1.0000
  H   H15       1.0  0.17604  0.15051  0.46767  1.0000
  H   H16       1.0  0.32395  0.15050  0.96767  1.0000
  H   H17       1.0  0.85641  0.05466  0.71245  1.0000
  H   H18       1.0  0.64359  0.05466  0.21244  1.0000
  H   H19       1.0  0.14358  0.94533  0.28756  1.0000
  H   H20       1.0  0.35641  0.94533  0.78755  1.0000
  H   H21       1.0  0.13682  0.09224  0.75656  1.0000
  H   H22       1.0  0.36319  0.09224  0.25656  1.0000
  H   H23       1.0  0.86318  0.90776  0.24344  1.0000
  H   H24       1.0  0.63682  0.90777  0.74344  1.0000
  H   H25       1.0  0.28048  0.91011  0.60125  1.0000
  H   H26       1.0  0.21952  0.91011  0.10126  1.0000
  H   H27       1.0  0.71952  0.08989  0.39874  1.0000
  H   H28       1.0  0.78048  0.08990  0.89874  1.0000
  H   H29       1.0  0.02649  0.62021  0.62347  1.0000
  H   H30       1.0  0.47351  0.62021  0.12347  1.0000
  H   H31       1.0  0.97351  0.37979  0.37653  1.0000
  H   H32       1.0  0.52649  0.37979  0.87654  1.0000
  H   H33       1.0  0.79502  0.74059  0.72953  1.0000
  H   H34       1.0  0.70498  0.74058  0.22953  1.0000
  H   H35       1.0  0.20498  0.25942  0.27047  1.0000
  H   H36       1.0  0.29502  0.25941  0.77048  1.0000
  H   H37       1.0  0.88348  0.93177  0.90962  1.0000
  H   H38       1.0  0.61652  0.93177  0.40962  1.0000
  H   H39       1.0  0.11653  0.06823  0.09038  1.0000
  H   H40       1.0  0.38348  0.06823  0.59038  1.0000
  H   H41       1.0  0.17171  0.93065  0.91066  1.0000
  H   H42       1.0  0.32829  0.93065  0.41067  1.0000
  H   H43       1.0  0.82830  0.06935  0.08933  1.0000
  H   H44       1.0  0.67170  0.06935  0.58934  1.0000
  H   H45       1.0  0.25985  0.73756  0.73350  1.0000
  H   H46       1.0  0.24015  0.73757  0.23351  1.0000
  H   H47       1.0  0.74015  0.26243  0.26649  1.0000
  H   H48       1.0  0.75985  0.26243  0.76650  1.0000
  C   C1        1.0  0.01802  0.67758  0.34227  1.0000
  C   C2        1.0  0.48198  0.67758  0.84227  1.0000
  C   C3        1.0  0.98197  0.32242  0.65773  1.0000
  C   C4        1.0  0.51802  0.32242  0.15773  1.0000
  C   C5        1.0  0.09916  0.73085  0.44188  1.0000
  C   C6        1.0  0.40084  0.73085  0.94188  1.0000
  C   C7        1.0  0.90084  0.26915  0.55812  1.0000
  C   C8        1.0  0.59916  0.26915  0.05812  1.0000
  C   C9        1.0  0.22283  0.67154  0.45084  1.0000
  C   C10       1.0  0.27717  0.67154  0.95084  1.0000
  C   C11       1.0  0.77717  0.32846  0.54916  1.0000
  C   C12       1.0  0.72283  0.32846  0.04916  1.0000
  C   C13       1.0  0.17672  0.52453  0.27699  1.0000
  C   C14       1.0  0.32328  0.52453  0.77699  1.0000
  C   C15       1.0  0.82328  0.47547  0.72301  1.0000
  C   C16       1.0  0.67672  0.47547  0.22301  1.0000
  C   C17       1.0  0.06332  0.84291  0.53132  1.0000
  C   C18       1.0  0.43669  0.84291  0.03132  1.0000
  C   C19       1.0  0.93668  0.15709  0.46868  1.0000
  C   C20       1.0  0.56331  0.15709  0.96868  1.0000
  C   C21       1.0  0.92419  0.89117  0.56790  1.0000
  C   C22       1.0  0.57581  0.89117  0.06789  1.0000
  C   C23       1.0  0.07580  0.10883  0.43211  1.0000
  C   C24       1.0  0.42419  0.10882  0.93211  1.0000
  C   C25       1.0  0.94176  0.99902  0.66374  1.0000
  C   C26       1.0  0.55825  0.99902  0.16373  1.0000
  C   C27       1.0  0.05824  0.00098  0.33627  1.0000
  C   C28       1.0  0.44175  0.00098  0.83627  1.0000
  C   C29       1.0  0.09056  0.01871  0.68704  1.0000
  C   C30       1.0  0.40945  0.01871  0.18704  1.0000
  C   C31       1.0  0.90944  0.98129  0.31296  1.0000
  C   C32       1.0  0.59055  0.98129  0.81296  1.0000
  C   C33       1.0  0.16605  0.92249  0.60609  1.0000
  C   C34       1.0  0.33395  0.92249  0.10609  1.0000
  C   C35       1.0  0.83394  0.07751  0.39391  1.0000
  C   C36       1.0  0.66605  0.07751  0.89391  1.0000
  C   C37       1.0  0.02684  0.69977  0.70000  1.0000
  C   C38       1.0  0.47316  0.69977  0.20000  1.0000
  C   C39       1.0  0.97316  0.30023  0.30000  1.0000
  C   C40       1.0  0.52684  0.30023  0.80001  1.0000
  C   C41       1.0  0.90408  0.76360  0.75707  1.0000
  C   C42       1.0  0.59592  0.76360  0.25707  1.0000
  C   C43       1.0  0.09592  0.23640  0.24293  1.0000
  C   C44       1.0  0.40408  0.23640  0.74293  1.0000
  C   C45       1.0  0.95126  0.86512  0.85075  1.0000
  C   C46       1.0  0.54875  0.86512  0.35076  1.0000
  C   C47       1.0  0.04875  0.13488  0.14924  1.0000
  C   C48       1.0  0.45125  0.13488  0.64925  1.0000
  C   C49       1.0  0.10338  0.86440  0.85164  1.0000
  C   C50       1.0  0.39663  0.86440  0.35164  1.0000
  C   C51       1.0  0.89663  0.13560  0.14836  1.0000
  C   C52       1.0  0.60338  0.13560  0.64836  1.0000
  C   C53       1.0  0.15029  0.76211  0.75793  1.0000
  C   C54       1.0  0.34970  0.76211  0.25793  1.0000
  C   C55       1.0  0.84971  0.23788  0.24207  1.0000
  C   C56       1.0  0.65029  0.23789  0.74207  1.0000
  I   I1        1.0  0.90226  0.67222  0.03284  1.0000
  I   I2        1.0  0.59774  0.67222  0.53284  1.0000
  I   I3        1.0  0.09775  0.32778  0.96716  1.0000
  I   I4        1.0  0.40225  0.32778  0.46716  1.0000
  N   N1        1.0  0.05758  0.57539  0.25957  1.0000
  N   N2        1.0  0.44242  0.57539  0.75958  1.0000
  N   N3        1.0  0.94241  0.42461  0.74042  1.0000
  N   N4        1.0  0.55758  0.42461  0.24042  1.0000
  N   N5        1.0  0.26121  0.56901  0.37003  1.0000
  N   N6        1.0  0.23879  0.56901  0.87003  1.0000
  N   N7        1.0  0.73879  0.43100  0.62997  1.0000
  N   N8        1.0  0.76121  0.43099  0.12997  1.0000
