data_image0
_chemical_formula_structural       Ag8H40C28I8N8
_chemical_formula_sum              "Ag8 H40 C28 I8 N8"
_cell_length_a       4.39135
_cell_length_b       16.648
_cell_length_c       17.1895
_cell_angle_alpha    89.9999
_cell_angle_beta     98.6414
_cell_angle_gamma    90.0025

_space_group_name_H-M_alt    "P 1"
_space_group_IT_number       1

loop_
  _space_group_symop_operation_xyz
  'x, y, z'

loop_
  _atom_site_type_symbol
  _atom_site_label
  _atom_site_symmetry_multiplicity
  _atom_site_fract_x
  _atom_site_fract_y
  _atom_site_fract_z
  _atom_site_occupancy
  Ag  Ag1       1.0  0.11456  0.28313  0.06811  1.0000
  Ag  Ag2       1.0  0.11457  0.21687  0.56812  1.0000
  Ag  Ag3       1.0  0.88545  0.71686  0.93189  1.0000
  Ag  Ag4       1.0  0.88542  0.78314  0.43188  1.0000
  Ag  Ag5       1.0  0.72106  0.43065  0.01041  1.0000
  Ag  Ag6       1.0  0.72105  0.06935  0.51042  1.0000
  Ag  Ag7       1.0  0.27896  0.56935  0.98959  1.0000
  Ag  Ag8       1.0  0.27894  0.93065  0.48958  1.0000
  H   H1        1.0  0.23152  0.04344  0.27307  1.0000
  H   H2        1.0  0.23157  0.45657  0.77308  1.0000
  H   H3        1.0  0.76847  0.95656  0.72693  1.0000
  H   H4        1.0  0.76845  0.54344  0.22692  1.0000
  H   H5        1.0  0.89393  0.15954  0.33930  1.0000
  H   H6        1.0  0.89396  0.34046  0.83931  1.0000
  H   H7        1.0  0.10604  0.84046  0.66070  1.0000
  H   H8        1.0  0.10605  0.65954  0.16071  1.0000
  H   H9        1.0  0.45354  0.13799  0.08632  1.0000
  H   H10       1.0  0.45358  0.36201  0.58632  1.0000
  H   H11       1.0  0.54647  0.86201  0.91369  1.0000
  H   H12       1.0  0.54648  0.63798  0.41368  1.0000
  H   H13       1.0  0.63553  0.07695  0.16534  1.0000
  H   H14       1.0  0.63558  0.42307  0.66535  1.0000
  H   H15       1.0  0.36446  0.92305  0.83466  1.0000
  H   H16       1.0  0.36443  0.57694  0.33466  1.0000
  H   H17       1.0  0.01843  0.03199  0.06141  1.0000
  H   H18       1.0  0.01844  0.46801  0.56141  1.0000
  H   H19       1.0  0.98155  0.96803  0.93859  1.0000
  H   H20       1.0  0.98157  0.53198  0.43858  1.0000
  H   H21       1.0  0.59345  0.93600  0.13475  1.0000
  H   H22       1.0  0.59353  0.56401  0.63476  1.0000
  H   H23       1.0  0.40648  0.06400  0.86525  1.0000
  H   H24       1.0  0.40641  0.43599  0.36523  1.0000
  H   H25       1.0  0.24492  0.89580  0.07223  1.0000
  H   H26       1.0  0.24495  0.60421  0.57222  1.0000
  H   H27       1.0  0.75502  0.10421  0.92776  1.0000
  H   H28       1.0  0.75502  0.39577  0.42776  1.0000
  H   H29       1.0  0.86983  0.34459  0.20593  1.0000
  H   H30       1.0  0.86983  0.15541  0.70594  1.0000
  H   H31       1.0  0.13018  0.65541  0.79408  1.0000
  H   H32       1.0  0.13021  0.84459  0.29407  1.0000
  H   H33       1.0  0.92448  0.32349  0.30955  1.0000
  H   H34       1.0  0.92448  0.17651  0.80955  1.0000
  H   H35       1.0  0.07551  0.67651  0.69045  1.0000
  H   H36       1.0  0.07556  0.82350  0.19045  1.0000
  H   H37       1.0  0.57823  0.29282  0.24786  1.0000
  H   H38       1.0  0.57825  0.20717  0.74786  1.0000
  H   H39       1.0  0.42180  0.70718  0.75215  1.0000
  H   H40       1.0  0.42182  0.79283  0.25214  1.0000
  C   C1        1.0  0.11862  0.21199  0.17190  1.0000
  C   C2        1.0  0.11865  0.28800  0.67189  1.0000
  C   C3        1.0  0.88138  0.78801  0.82811  1.0000
  C   C4        1.0  0.88136  0.71199  0.32810  1.0000
  C   C5        1.0  0.15858  0.10294  0.25276  1.0000
  C   C6        1.0  0.15861  0.39706  0.75277  1.0000
  C   C7        1.0  0.84140  0.89706  0.74724  1.0000
  C   C8        1.0  0.84141  0.60295  0.24723  1.0000
  C   C9        1.0  0.99497  0.15994  0.28554  1.0000
  C   C10       1.0  0.99497  0.34005  0.78555  1.0000
  C   C11       1.0  0.00502  0.84006  0.71446  1.0000
  C   C12       1.0  0.00504  0.65994  0.21445  1.0000
  C   C13       1.0  0.41230  0.09398  0.13147  1.0000
  C   C14       1.0  0.41234  0.40601  0.63148  1.0000
  C   C15       1.0  0.58769  0.90602  0.86853  1.0000
  C   C16       1.0  0.58769  0.59400  0.36851  1.0000
  C   C17       1.0  0.24697  0.02139  0.09500  1.0000
  C   C18       1.0  0.24702  0.47860  0.59500  1.0000
  C   C19       1.0  0.75299  0.97861  0.90500  1.0000
  C   C20       1.0  0.75295  0.52139  0.40499  1.0000
  C   C21       1.0  0.36585  0.94747  0.10114  1.0000
  C   C22       1.0  0.36589  0.55254  0.60114  1.0000
  C   C23       1.0  0.63408  0.05254  0.89885  1.0000
  C   C24       1.0  0.63409  0.44747  0.39884  1.0000
  C   C25       1.0  0.82731  0.30120  0.25097  1.0000
  C   C26       1.0  0.82732  0.19880  0.75097  1.0000
  C   C27       1.0  0.17270  0.69880  0.74903  1.0000
  C   C28       1.0  0.17272  0.80120  0.24903  1.0000
  I   I1        1.0  0.26905  0.46043  0.11920  1.0000
  I   I2        1.0  0.26903  0.03957  0.61920  1.0000
  I   I3        1.0  0.73098  0.53957  0.88081  1.0000
  I   I4        1.0  0.73095  0.96043  0.38080  1.0000
  I   I5        1.0  0.53671  0.27588  0.95759  1.0000
  I   I6        1.0  0.53671  0.22411  0.45759  1.0000
  I   I7        1.0  0.46332  0.72412  0.04242  1.0000
  I   I8        1.0  0.46327  0.77588  0.54241  1.0000
  N   N1        1.0  0.97439  0.22573  0.23565  1.0000
  N   N2        1.0  0.97442  0.27426  0.73564  1.0000
  N   N3        1.0  0.02558  0.77427  0.76435  1.0000
  N   N4        1.0  0.02561  0.72573  0.26435  1.0000
  N   N5        1.0  0.23349  0.13612  0.18407  1.0000
  N   N6        1.0  0.23349  0.36388  0.68408  1.0000
  N   N7        1.0  0.76651  0.86388  0.81593  1.0000
  N   N8        1.0  0.76653  0.63611  0.31592  1.0000
