data_image0
_chemical_formula_structural       Ag4B4H40C64N8F16
_chemical_formula_sum              "Ag4 B4 H40 C64 N8 F16"
_cell_length_a       5.49102
_cell_length_b       13.5143
_cell_length_c       18.8364
_cell_angle_alpha    89.999
_cell_angle_beta     89.9992
_cell_angle_gamma    90.0006

_space_group_name_H-M_alt    "P 1"
_space_group_IT_number       1

loop_
  _space_group_symop_operation_xyz
  'x, y, z'

loop_
  _atom_site_type_symbol
  _atom_site_label
  _atom_site_symmetry_multiplicity
  _atom_site_fract_x
  _atom_site_fract_y
  _atom_site_fract_z
  _atom_site_occupancy
  Ag  Ag1       1.0  0.06136  0.19417  0.70516  1.0000
  Ag  Ag2       1.0  0.43864  0.69417  0.70516  1.0000
  Ag  Ag3       1.0  0.56137  0.30583  0.20516  1.0000
  Ag  Ag4       1.0  0.93863  0.80583  0.20516  1.0000
  B   B1        1.0  0.58276  0.13905  0.60593  1.0000
  B   B2        1.0  0.91728  0.63904  0.60592  1.0000
  B   B3        1.0  0.08275  0.36096  0.10592  1.0000
  B   B4        1.0  0.41726  0.86096  0.10592  1.0000
  H   H1        1.0  0.96537  0.00165  0.61871  1.0000
  H   H2        1.0  0.53464  0.50164  0.61871  1.0000
  H   H3        1.0  0.46537  0.49836  0.11871  1.0000
  H   H4        1.0  0.03461  0.99836  0.11871  1.0000
  H   H5        1.0  0.15624  0.83111  0.61434  1.0000
  H   H6        1.0  0.34378  0.33110  0.61434  1.0000
  H   H7        1.0  0.65624  0.66889  0.11434  1.0000
  H   H8        1.0  0.84376  0.16889  0.11433  1.0000
  H   H9        1.0  0.91196  0.13104  0.82023  1.0000
  H   H10       1.0  0.58805  0.63103  0.82023  1.0000
  H   H11       1.0  0.41195  0.36896  0.32023  1.0000
  H   H12       1.0  0.08803  0.86896  0.32022  1.0000
  H   H13       1.0  0.90409  0.21443  0.93684  1.0000
  H   H14       1.0  0.59594  0.71442  0.93684  1.0000
  H   H15       1.0  0.40405  0.28558  0.43684  1.0000
  H   H16       1.0  0.09591  0.78557  0.43684  1.0000
  H   H17       1.0  0.22951  0.17860  0.02558  1.0000
  H   H18       1.0  0.27050  0.67859  0.02558  1.0000
  H   H19       1.0  0.72947  0.32140  0.52558  1.0000
  H   H20       1.0  0.77049  0.82140  0.52558  1.0000
  H   H21       1.0  0.54386  0.05525  0.00005  1.0000
  H   H22       1.0  0.95613  0.55524  0.00005  1.0000
  H   H23       1.0  0.04384  0.44474  0.50005  1.0000
  H   H24       1.0  0.45614  0.94475  0.50006  1.0000
  H   H25       1.0  0.79229  0.95967  0.97871  1.0000
  H   H26       1.0  0.70769  0.45967  0.97870  1.0000
  H   H27       1.0  0.29229  0.54033  0.47870  1.0000
  H   H28       1.0  0.20771  0.04032  0.47871  1.0000
  H   H29       1.0  0.09563  0.83318  0.95264  1.0000
  H   H30       1.0  0.40435  0.33318  0.95263  1.0000
  H   H31       1.0  0.59561  0.66683  0.45263  1.0000
  H   H32       1.0  0.90439  0.16683  0.45264  1.0000
  H   H33       1.0  0.09604  0.74781  0.83440  1.0000
  H   H34       1.0  0.40395  0.24781  0.83439  1.0000
  H   H35       1.0  0.59602  0.75218  0.33438  1.0000
  H   H36       1.0  0.90397  0.25219  0.33440  1.0000
  H   H37       1.0  0.78135  0.78745  0.74636  1.0000
  H   H38       1.0  0.71865  0.28746  0.74635  1.0000
  H   H39       1.0  0.28133  0.71254  0.24634  1.0000
  H   H40       1.0  0.21866  0.21254  0.24635  1.0000
  C   C1        1.0  0.07977  0.97440  0.66166  1.0000
  C   C2        1.0  0.42025  0.47440  0.66166  1.0000
  C   C3        1.0  0.57976  0.52560  0.16166  1.0000
  C   C4        1.0  0.92023  0.02560  0.16165  1.0000
  C   C5        1.0  0.19350  0.88218  0.65772  1.0000
  C   C6        1.0  0.30654  0.38218  0.65772  1.0000
  C   C7        1.0  0.69349  0.61782  0.15771  1.0000
  C   C8        1.0  0.80651  0.11782  0.15771  1.0000
  C   C9        1.0  0.24937  0.99955  0.77273  1.0000
  C   C10       1.0  0.25065  0.49955  0.77272  1.0000
  C   C11       1.0  0.74936  0.50045  0.27272  1.0000
  C   C12       1.0  0.75064  0.00045  0.27272  1.0000
  C   C13       1.0  0.39793  0.91434  0.76299  1.0000
  C   C14       1.0  0.10209  0.41433  0.76298  1.0000
  C   C15       1.0  0.89791  0.58567  0.26299  1.0000
  C   C16       1.0  0.60208  0.08567  0.26299  1.0000
  C   C17       1.0  0.24496  0.04948  0.84091  1.0000
  C   C18       1.0  0.25505  0.54947  0.84091  1.0000
  C   C19       1.0  0.74495  0.45052  0.34091  1.0000
  C   C20       1.0  0.75504  0.95052  0.34091  1.0000
  C   C21       1.0  0.05815  0.11717  0.85815  1.0000
  C   C22       1.0  0.44185  0.61716  0.85814  1.0000
  C   C23       1.0  0.55814  0.38283  0.35815  1.0000
  C   C24       1.0  0.94183  0.88283  0.35814  1.0000
  C   C25       1.0  0.05003  0.16276  0.92403  1.0000
  C   C26       1.0  0.44999  0.66276  0.92403  1.0000
  C   C27       1.0  0.55000  0.33723  0.42403  1.0000
  C   C28       1.0  0.94997  0.83723  0.42403  1.0000
  C   C29       1.0  0.23078  0.14126  0.97436  1.0000
  C   C30       1.0  0.26924  0.64125  0.97436  1.0000
  C   C31       1.0  0.73076  0.35875  0.47436  1.0000
  C   C32       1.0  0.76923  0.85874  0.47436  1.0000
  C   C33       1.0  0.41113  0.07264  0.95920  1.0000
  C   C34       1.0  0.08888  0.57263  0.95920  1.0000
  C   C35       1.0  0.91112  0.42736  0.45920  1.0000
  C   C36       1.0  0.58888  0.92736  0.45920  1.0000
  C   C37       1.0  0.41984  0.02332  0.89330  1.0000
  C   C38       1.0  0.08017  0.52332  0.89330  1.0000
  C   C39       1.0  0.91983  0.47667  0.39330  1.0000
  C   C40       1.0  0.58016  0.97668  0.39330  1.0000
  C   C41       1.0  0.60039  0.94661  0.87850  1.0000
  C   C42       1.0  0.89961  0.44661  0.87850  1.0000
  C   C43       1.0  0.10037  0.55339  0.37850  1.0000
  C   C44       1.0  0.39961  0.05339  0.37850  1.0000
  C   C45       1.0  0.78435  0.92220  0.92774  1.0000
  C   C46       1.0  0.71563  0.42219  0.92773  1.0000
  C   C47       1.0  0.28434  0.57781  0.42773  1.0000
  C   C48       1.0  0.21566  0.07780  0.42773  1.0000
  C   C49       1.0  0.95778  0.85057  0.91298  1.0000
  C   C50       1.0  0.54221  0.35057  0.91298  1.0000
  C   C51       1.0  0.45776  0.64943  0.41297  1.0000
  C   C52       1.0  0.04224  0.14943  0.41298  1.0000
  C   C53       1.0  0.95589  0.80211  0.84713  1.0000
  C   C54       1.0  0.54410  0.30211  0.84712  1.0000
  C   C55       1.0  0.45587  0.69789  0.34712  1.0000
  C   C56       1.0  0.04411  0.19789  0.34713  1.0000
  C   C57       1.0  0.77528  0.82358  0.79808  1.0000
  C   C58       1.0  0.72472  0.32358  0.79807  1.0000
  C   C59       1.0  0.27527  0.67642  0.29807  1.0000
  C   C60       1.0  0.22472  0.17642  0.29807  1.0000
  C   C61       1.0  0.59154  0.89326  0.81338  1.0000
  C   C62       1.0  0.90846  0.39325  0.81338  1.0000
  C   C63       1.0  0.09153  0.60675  0.31338  1.0000
  C   C64       1.0  0.40846  0.10675  0.31338  1.0000
  N   N1        1.0  0.10671  0.03218  0.71864  1.0000
  N   N2        1.0  0.39331  0.53218  0.71863  1.0000
  N   N3        1.0  0.60670  0.46782  0.21863  1.0000
  N   N4        1.0  0.89329  0.96782  0.21863  1.0000
  N   N5        1.0  0.35525  0.85362  0.70676  1.0000
  N   N6        1.0  0.14478  0.35361  0.70676  1.0000
  N   N7        1.0  0.85522  0.64639  0.20676  1.0000
  N   N8        1.0  0.64478  0.14639  0.20676  1.0000
  F   F1        1.0  0.82233  0.16244  0.58237  1.0000
  F   F2        1.0  0.67770  0.66241  0.58237  1.0000
  F   F3        1.0  0.32232  0.33757  0.08236  1.0000
  F   F4        1.0  0.17769  0.83757  0.08236  1.0000
  F   F5        1.0  0.40957  0.19160  0.56564  1.0000
  F   F6        1.0  0.09045  0.69158  0.56563  1.0000
  F   F7        1.0  0.90956  0.30842  0.06564  1.0000
  F   F8        1.0  0.59044  0.80842  0.06564  1.0000
  F   F9        1.0  0.56252  0.16817  0.67901  1.0000
  F   F10       1.0  0.93752  0.66815  0.67900  1.0000
  F   F11       1.0  0.06251  0.33184  0.17900  1.0000
  F   F12       1.0  0.43749  0.83184  0.17900  1.0000
  F   F13       1.0  0.54394  0.03644  0.60093  1.0000
  F   F14       1.0  0.95611  0.53642  0.60093  1.0000
  F   F15       1.0  0.04392  0.46357  0.10093  1.0000
  F   F16       1.0  0.45607  0.96358  0.10093  1.0000
