data_image0
_chemical_formula_structural       Ag2H20C32N4Cl2O8
_chemical_formula_sum              "Ag2 H20 C32 N4 Cl2 O8"
_cell_length_a       5.36374
_cell_length_b       10.8301
_cell_length_c       13.2517
_cell_angle_alpha    113.511
_cell_angle_beta     90.0002
_cell_angle_gamma    90.0002

_space_group_name_H-M_alt    "P 1"
_space_group_IT_number       1

loop_
  _space_group_symop_operation_xyz
  'x, y, z'

loop_
  _atom_site_type_symbol
  _atom_site_label
  _atom_site_symmetry_multiplicity
  _atom_site_fract_x
  _atom_site_fract_y
  _atom_site_fract_z
  _atom_site_occupancy
  Ag  Ag1       1.0  0.79722  0.52572  0.71742  1.0000
  Ag  Ag2       1.0  0.20276  0.02573  0.21742  1.0000
  H   H1        1.0  0.01675  0.80161  0.80057  1.0000
  H   H2        1.0  0.98325  0.30164  0.30058  1.0000
  H   H3        1.0  0.23359  0.95973  0.97453  1.0000
  H   H4        1.0  0.76641  0.45975  0.47454  1.0000
  H   H5        1.0  0.34295  0.81418  0.22265  1.0000
  H   H6        1.0  0.65705  0.31418  0.72265  1.0000
  H   H7        1.0  0.37568  0.74049  0.37614  1.0000
  H   H8        1.0  0.62431  0.24049  0.87613  1.0000
  H   H9        1.0  0.06208  0.58413  0.39624  1.0000
  H   H10       1.0  0.93793  0.08415  0.89624  1.0000
  H   H11       1.0  0.72759  0.49197  0.25846  1.0000
  H   H12       1.0  0.27243  0.99199  0.75846  1.0000
  H   H13       1.0  0.45665  0.43068  0.15529  1.0000
  H   H14       1.0  0.54334  0.93069  0.65529  1.0000
  H   H15       1.0  0.13728  0.33819  0.01456  1.0000
  H   H16       1.0  0.86271  0.83819  0.51456  1.0000
  H   H17       1.0  0.11881  0.40728  0.85545  1.0000
  H   H18       1.0  0.88117  0.90729  0.35545  1.0000
  H   H19       1.0  0.43139  0.56395  0.83808  1.0000
  H   H20       1.0  0.56859  0.06397  0.33808  1.0000
  C   C1        1.0  0.99921  0.78971  0.87804  1.0000
  C   C2        1.0  0.00079  0.28973  0.37805  1.0000
  C   C3        1.0  0.12463  0.87394  0.97278  1.0000
  C   C4        1.0  0.87538  0.37395  0.47279  1.0000
  C   C5        1.0  0.82642  0.67231  0.97412  1.0000
  C   C6        1.0  0.17358  0.17233  0.47413  1.0000
  C   C7        1.0  0.98356  0.74484  0.06507  1.0000
  C   C8        1.0  0.01645  0.24486  0.56508  1.0000
  C   C9        1.0  0.00353  0.70248  0.15582  1.0000
  C   C10       1.0  0.99647  0.20248  0.65582  1.0000
  C   C11       1.0  0.20001  0.74828  0.23270  1.0000
  C   C12       1.0  0.79998  0.24829  0.73270  1.0000
  C   C13       1.0  0.22181  0.70572  0.31798  1.0000
  C   C14       1.0  0.77818  0.20573  0.81798  1.0000
  C   C15       1.0  0.04627  0.61523  0.32788  1.0000
  C   C16       1.0  0.95371  0.11525  0.82789  1.0000
  C   C17       1.0  0.85738  0.56501  0.25085  1.0000
  C   C18       1.0  0.14262  0.06502  0.75085  1.0000
  C   C19       1.0  0.83350  0.60495  0.16210  1.0000
  C   C20       1.0  0.16649  0.10496  0.66211  1.0000
  C   C21       1.0  0.64247  0.54786  0.07756  1.0000
  C   C22       1.0  0.35752  0.04786  0.57755  1.0000
  C   C23       1.0  0.45843  0.45932  0.08555  1.0000
  C   C24       1.0  0.54157  0.95933  0.58555  1.0000
  C   C25       1.0  0.27551  0.40709  0.00593  1.0000
  C   C26       1.0  0.72449  0.90710  0.50592  1.0000
  C   C27       1.0  0.26711  0.44475  0.91625  1.0000
  C   C28       1.0  0.73287  0.94476  0.41625  1.0000
  C   C29       1.0  0.44588  0.53126  0.90585  1.0000
  C   C30       1.0  0.55413  0.03128  0.40584  1.0000
  C   C31       1.0  0.63911  0.58109  0.98394  1.0000
  C   C32       1.0  0.36089  0.08110  0.48394  1.0000
  N   N1        1.0  0.85242  0.69016  0.87886  1.0000
  N   N2        1.0  0.14758  0.19017  0.37886  1.0000
  N   N3        1.0  0.11913  0.85033  0.06446  1.0000
  N   N4        1.0  0.88087  0.35034  0.56447  1.0000
  Cl  Cl1       1.0  0.33930  0.64887  0.61909  1.0000
  Cl  Cl2       1.0  0.66073  0.14885  0.11909  1.0000
  O   O1        1.0  0.46249  0.75749  0.70978  1.0000
  O   O2        1.0  0.53753  0.25747  0.20978  1.0000
  O   O3        1.0  0.34395  0.52602  0.64256  1.0000
  O   O4        1.0  0.65605  0.02601  0.14256  1.0000
  O   O5        1.0  0.07897  0.68491  0.61112  1.0000
  O   O6        1.0  0.92106  0.18489  0.11113  1.0000
  O   O7        1.0  0.46789  0.62191  0.51580  1.0000
  O   O8        1.0  0.53213  0.12190  0.01580  1.0000
