data_image0
_chemical_formula_structural       U2H40C28O14
_chemical_formula_sum              "U2 H40 C28 O14"
_cell_length_a       6.27752
_cell_length_b       10.164
_cell_length_c       11.958
_cell_angle_alpha    92.629
_cell_angle_beta     97.1982
_cell_angle_gamma    94.8451

_space_group_name_H-M_alt    "P 1"
_space_group_IT_number       1

loop_
  _space_group_symop_operation_xyz
  'x, y, z'

loop_
  _atom_site_type_symbol
  _atom_site_label
  _atom_site_symmetry_multiplicity
  _atom_site_fract_x
  _atom_site_fract_y
  _atom_site_fract_z
  _atom_site_occupancy
  U   U1        1.0  0.00051  0.25148  0.42138  1.0000
  U   U2        1.0  0.99944  0.74852  0.57862  1.0000
  H   H1        1.0  0.74175  0.48418  0.43615  1.0000
  H   H2        1.0  0.25816  0.51583  0.56385  1.0000
  H   H3        1.0  0.56297  0.36199  0.38685  1.0000
  H   H4        1.0  0.43697  0.63800  0.61315  1.0000
  H   H5        1.0  0.53114  0.71921  0.27277  1.0000
  H   H6        1.0  0.46886  0.28078  0.72724  1.0000
  H   H7        1.0  0.28476  0.69628  0.32981  1.0000
  H   H8        1.0  0.71522  0.30371  0.67020  1.0000
  H   H9        1.0  0.02988  0.97274  0.17423  1.0000
  H   H10       1.0  0.97015  0.02726  0.82576  1.0000
  H   H11       1.0  0.97834  0.84430  0.26517  1.0000
  H   H12       1.0  0.02167  0.15569  0.73482  1.0000
  H   H13       1.0  0.80519  0.77968  0.07063  1.0000
  H   H14       1.0  0.19483  0.22033  0.92936  1.0000
  H   H15       1.0  0.93952  0.61003  0.19932  1.0000
  H   H16       1.0  0.06048  0.38997  0.80067  1.0000
  H   H17       1.0  0.95451  0.56091  0.05724  1.0000
  H   H18       1.0  0.04551  0.43909  0.94274  1.0000
  H   H19       1.0  0.54980  0.65071  0.06926  1.0000
  H   H20       1.0  0.45023  0.34928  0.93074  1.0000
  H   H21       1.0  0.31350  0.59143  0.97822  1.0000
  H   H22       1.0  0.68653  0.40858  0.02179  1.0000
  H   H23       1.0  0.41823  0.82724  0.94631  1.0000
  H   H24       1.0  0.58184  0.17276  0.05371  1.0000
  H   H25       1.0  0.38314  0.00107  0.09716  1.0000
  H   H26       1.0  0.61692  0.99894  0.90285  1.0000
  H   H27       1.0  0.59465  0.90324  0.14113  1.0000
  H   H28       1.0  0.40536  0.09674  0.85889  1.0000
  H   H29       1.0  0.03135  0.74071  0.91623  1.0000
  H   H30       1.0  0.96871  0.25931  0.08377  1.0000
  H   H31       1.0  0.05973  0.90898  0.96412  1.0000
  H   H32       1.0  0.94034  0.09103  0.03589  1.0000
  H   H33       1.0  0.28056  0.41682  0.10451  1.0000
  H   H34       1.0  0.71945  0.58318  0.89549  1.0000
  H   H35       1.0  0.49973  0.48302  0.20153  1.0000
  H   H36       1.0  0.50026  0.51697  0.79848  1.0000
  H   H37       1.0  0.56304  0.94521  0.35485  1.0000
  H   H38       1.0  0.43695  0.05479  0.64518  1.0000
  H   H39       1.0  0.41341  0.06701  0.28967  1.0000
  H   H40       1.0  0.58661  0.93298  0.71033  1.0000
  C   C1        1.0  0.26577  0.62330  0.15435  1.0000
  C   C2        1.0  0.73423  0.37669  0.84565  1.0000
  C   C3        1.0  0.35514  0.72310  0.25342  1.0000
  C   C4        1.0  0.64486  0.27689  0.74659  1.0000
  C   C5        1.0  0.30802  0.86495  0.22407  1.0000
  C   C6        1.0  0.69200  0.13505  0.77594  1.0000
  C   C7        1.0  0.06336  0.87089  0.19299  1.0000
  C   C8        1.0  0.93665  0.12912  0.80701  1.0000
  C   C9        1.0  0.97968  0.77420  0.09182  1.0000
  C   C10       1.0  0.02034  0.22581  0.90817  1.0000
  C   C11       1.0  0.02132  0.63410  0.12596  1.0000
  C   C12       1.0  0.97868  0.36590  0.87402  1.0000
  C   C13       1.0  0.37591  0.66096  0.05061  1.0000
  C   C14       1.0  0.62412  0.33904  0.94941  1.0000
  C   C15       1.0  0.33573  0.80208  0.01954  1.0000
  C   C16       1.0  0.66432  0.19792  0.98046  1.0000
  C   C17       1.0  0.41843  0.90063  0.11987  1.0000
  C   C18       1.0  0.58160  0.09937  0.88015  1.0000
  C   C19       1.0  0.09267  0.80923  0.98931  1.0000
  C   C20       1.0  0.90740  0.19078  0.01069  1.0000
  C   C21       1.0  0.32359  0.48312  0.18140  1.0000
  C   C22       1.0  0.67640  0.51687  0.81860  1.0000
  C   C23       1.0  0.22061  0.41197  0.27112  1.0000
  C   C24       1.0  0.77935  0.58804  0.72887  1.0000
  C   C25       1.0  0.39923  0.96740  0.32130  1.0000
  C   C26       1.0  0.60077  0.03259  0.67871  1.0000
  C   C27       1.0  0.26748  0.97103  0.41809  1.0000
  C   C28       1.0  0.73247  0.02896  0.58191  1.0000
  O   O1        1.0  0.85665  0.15648  0.29970  1.0000
  O   O2        1.0  0.14335  0.84352  0.70028  1.0000
  O   O3        1.0  0.14849  0.35243  0.54156  1.0000
  O   O4        1.0  0.85146  0.64758  0.45844  1.0000
  O   O5        1.0  0.03351  0.43154  0.29465  1.0000
  O   O6        1.0  0.96645  0.56847  0.70533  1.0000
  O   O7        1.0  0.31888  0.32041  0.32277  1.0000
  O   O8        1.0  0.68108  0.67959  0.67724  1.0000
  O   O9        1.0  0.21295  0.08280  0.45377  1.0000
  O   O10       1.0  0.78700  0.91719  0.54621  1.0000
  O   O11       1.0  0.21376  0.86474  0.46333  1.0000
  O   O12       1.0  0.78619  0.13526  0.53666  1.0000
  O   O13       1.0  0.70715  0.38669  0.43285  1.0000
  O   O14       1.0  0.29279  0.61332  0.56713  1.0000
