data_image0
_chemical_formula_structural       Cu3H8C20N22
_chemical_formula_sum              "Cu3 H8 C20 N22"
_cell_length_a       7.77127
_cell_length_b       9.29285
_cell_length_c       10.2288
_cell_angle_alpha    84.7728
_cell_angle_beta     87.7027
_cell_angle_gamma    71.37

_space_group_name_H-M_alt    "P 1"
_space_group_IT_number       1

loop_
  _space_group_symop_operation_xyz
  'x, y, z'

loop_
  _atom_site_type_symbol
  _atom_site_label
  _atom_site_symmetry_multiplicity
  _atom_site_fract_x
  _atom_site_fract_y
  _atom_site_fract_z
  _atom_site_occupancy
  Cu  Cu1       1.0  0.00005  0.99983  0.50012  1.0000
  Cu  Cu2       1.0  0.32691  0.27905  0.07401  1.0000
  Cu  Cu3       1.0  0.67410  0.72068  0.92658  1.0000
  H   H1        1.0  0.64487  0.74732  0.31767  1.0000
  H   H2        1.0  0.35457  0.25162  0.68205  1.0000
  H   H3        1.0  0.62525  0.97472  0.15642  1.0000
  H   H4        1.0  0.37443  0.02412  0.84332  1.0000
  H   H5        1.0  0.10356  0.19335  0.29115  1.0000
  H   H6        1.0  0.89651  0.80628  0.70893  1.0000
  H   H7        1.0  0.36875  0.76264  0.46597  1.0000
  H   H8        1.0  0.63096  0.23689  0.53415  1.0000
  C   C1        1.0  0.52441  0.84763  0.31383  1.0000
  C   C2        1.0  0.47526  0.15151  0.68607  1.0000
  C   C3        1.0  0.51491  0.97256  0.22458  1.0000
  C   C4        1.0  0.48483  0.02651  0.77525  1.0000
  C   C5        1.0  0.22489  0.09443  0.29760  1.0000
  C   C6        1.0  0.77510  0.90504  0.70244  1.0000
  C   C7        1.0  0.70452  0.18903  0.95567  1.0000
  C   C8        1.0  0.29567  0.81104  0.04443  1.0000
  C   C9        1.0  0.00250  0.30008  0.59734  1.0000
  C   C10       1.0  0.99693  0.70056  0.40172  1.0000
  C   C11       1.0  0.37448  0.85494  0.39410  1.0000
  C   C12       1.0  0.62527  0.14449  0.60599  1.0000
  C   C13       1.0  0.32223  0.53453  0.85507  1.0000
  C   C14       1.0  0.67907  0.46611  0.14626  1.0000
  C   C15       1.0  0.92488  0.49474  0.73512  1.0000
  C   C16       1.0  0.07469  0.50556  0.26428  1.0000
  C   C17       1.0  0.26714  0.76050  0.72485  1.0000
  C   C18       1.0  0.73214  0.23941  0.27511  1.0000
  C   C19       1.0  0.99856  0.19274  0.94282  1.0000
  C   C20       1.0  0.00134  0.80885  0.05681  1.0000
  N   N1        1.0  0.36487  0.09516  0.21734  1.0000
  N   N2        1.0  0.63512  0.90413  0.78257  1.0000
  N   N3        1.0  0.56821  0.17676  0.00336  1.0000
  N   N4        1.0  0.43226  0.82220  0.99643  1.0000
  N   N5        1.0  0.30578  0.45034  0.94419  1.0000
  N   N6        1.0  0.69804  0.55131  0.05877  1.0000
  N   N7        1.0  0.98853  0.20856  0.52928  1.0000
  N   N8        1.0  0.01098  0.79138  0.47051  1.0000
  N   N9        1.0  0.22563  0.97927  0.38558  1.0000
  N   N10       1.0  0.77429  0.02031  0.61461  1.0000
  N   N11       1.0  0.84772  0.19436  0.89177  1.0000
  N   N12       1.0  0.15207  0.80684  0.10834  1.0000
  N   N13       1.0  0.34897  0.61626  0.75251  1.0000
  N   N14       1.0  0.65050  0.38386  0.24785  1.0000
  N   N15       1.0  0.03658  0.39950  0.66241  1.0000
  N   N16       1.0  0.96245  0.60213  0.33565  1.0000
  N   N17       1.0  0.83585  0.58858  0.80111  1.0000
  N   N18       1.0  0.16414  0.41049  0.19953  1.0000
  N   N19       1.0  0.20214  0.89072  0.68831  1.0000
  N   N20       1.0  0.79700  0.10904  0.31127  1.0000
  N   N21       1.0  0.14168  0.19179  0.97723  1.0000
  N   N22       1.0  0.85839  0.81028  0.02167  1.0000
