data_image0
_chemical_formula_structural       Cu2H28C36S8N12O8
_chemical_formula_sum              "Cu2 H28 C36 S8 N12 O8"
_cell_length_a       9.4996
_cell_length_b       10.4258
_cell_length_c       12.052
_cell_angle_alpha    86.0448
_cell_angle_beta     78.0679
_cell_angle_gamma    67.974

_space_group_name_H-M_alt    "P 1"
_space_group_IT_number       1

loop_
  _space_group_symop_operation_xyz
  'x, y, z'

loop_
  _atom_site_type_symbol
  _atom_site_label
  _atom_site_symmetry_multiplicity
  _atom_site_fract_x
  _atom_site_fract_y
  _atom_site_fract_z
  _atom_site_occupancy
  Cu  Cu1       1.0  0.56409  0.09934  0.13319  1.0000
  Cu  Cu2       1.0  0.43591  0.90066  0.86681  1.0000
  H   H1        1.0  0.29168  0.02305  0.27575  1.0000
  H   H2        1.0  0.70833  0.97694  0.72425  1.0000
  H   H3        1.0  0.64814  0.26148  0.32408  1.0000
  H   H4        1.0  0.35186  0.73853  0.67592  1.0000
  H   H5        1.0  0.63856  0.33993  0.51752  1.0000
  H   H6        1.0  0.36144  0.66007  0.48248  1.0000
  H   H7        1.0  0.46676  0.29309  0.68508  1.0000
  H   H8        1.0  0.53324  0.70691  0.31492  1.0000
  H   H9        1.0  0.29187  0.17286  0.66807  1.0000
  H   H10       1.0  0.70814  0.82714  0.33193  1.0000
  H   H11       1.0  0.20105  0.98855  0.58499  1.0000
  H   H12       1.0  0.79896  0.01145  0.41501  1.0000
  H   H13       1.0  0.13531  0.98401  0.45772  1.0000
  H   H14       1.0  0.86470  0.01599  0.54229  1.0000
  H   H15       1.0  0.80624  0.56521  0.00483  1.0000
  H   H16       1.0  0.19376  0.43479  0.99517  1.0000
  H   H17       1.0  0.93710  0.39448  0.03428  1.0000
  H   H18       1.0  0.06290  0.60552  0.96572  1.0000
  H   H19       1.0  0.51682  0.72511  0.12165  1.0000
  H   H20       1.0  0.48317  0.27489  0.87836  1.0000
  H   H21       1.0  0.23294  0.79813  0.18626  1.0000
  H   H22       1.0  0.76705  0.20187  0.81374  1.0000
  H   H23       1.0  0.10624  0.62661  0.22685  1.0000
  H   H24       1.0  0.89375  0.37338  0.77315  1.0000
  H   H25       1.0  0.26094  0.37285  0.20028  1.0000
  H   H26       1.0  0.73906  0.62714  0.79971  1.0000
  H   H27       1.0  0.83725  0.21317  0.06382  1.0000
  H   H28       1.0  0.16276  0.78683  0.93618  1.0000
  C   C1        1.0  0.33800  0.07064  0.32911  1.0000
  C   C2        1.0  0.66201  0.92936  0.67089  1.0000
  C   C3        1.0  0.46992  0.17652  0.38677  1.0000
  C   C4        1.0  0.53008  0.82349  0.61322  1.0000
  C   C5        1.0  0.56919  0.24395  0.39736  1.0000
  C   C6        1.0  0.43081  0.75607  0.60263  1.0000
  C   C7        1.0  0.56383  0.28625  0.50595  1.0000
  C   C8        1.0  0.43616  0.71376  0.49404  1.0000
  C   C9        1.0  0.46530  0.26058  0.60165  1.0000
  C   C10       1.0  0.53470  0.73942  0.39835  1.0000
  C   C11       1.0  0.36568  0.19360  0.59268  1.0000
  C   C12       1.0  0.63433  0.80640  0.40732  1.0000
  C   C13       1.0  0.36944  0.15352  0.48381  1.0000
  C   C14       1.0  0.63055  0.84649  0.51619  1.0000
  C   C15       1.0  0.16559  0.04778  0.51008  1.0000
  C   C16       1.0  0.83442  0.95223  0.48993  1.0000
  C   C17       1.0  0.95164  0.27562  0.43903  1.0000
  C   C18       1.0  0.04837  0.72437  0.56097  1.0000
  C   C19       1.0  0.89436  0.42297  0.28022  1.0000
  C   C20       1.0  0.10564  0.57702  0.71977  1.0000
  C   C21       1.0  0.82938  0.48108  0.06676  1.0000
  C   C22       1.0  0.17061  0.51892  0.93324  1.0000
  C   C23       1.0  0.54760  0.50627  0.12890  1.0000
  C   C24       1.0  0.45240  0.49373  0.87110  1.0000
  C   C25       1.0  0.46325  0.64819  0.14162  1.0000
  C   C26       1.0  0.53674  0.35181  0.85838  1.0000
  C   C27       1.0  0.30363  0.68802  0.17870  1.0000
  C   C28       1.0  0.69637  0.31197  0.82130  1.0000
  C   C29       1.0  0.23179  0.59026  0.20143  1.0000
  C   C30       1.0  0.76821  0.40973  0.79857  1.0000
  C   C31       1.0  0.31619  0.44868  0.18709  1.0000
  C   C32       1.0  0.68381  0.55131  0.81291  1.0000
  C   C33       1.0  0.47636  0.40737  0.14979  1.0000
  C   C34       1.0  0.52364  0.59263  0.85022  1.0000
  C   C35       1.0  0.72442  0.29399  0.09045  1.0000
  C   C36       1.0  0.27558  0.70601  0.90956  1.0000
  S   S1        1.0  0.72928  0.87469  0.01340  1.0000
  S   S2        1.0  0.27072  0.12531  0.98661  1.0000
  S   S3        1.0  0.99371  0.19820  0.56730  1.0000
  S   S4        1.0  0.00630  0.80179  0.43269  1.0000
  S   S5        1.0  0.89419  0.45393  0.42097  1.0000
  S   S6        1.0  0.10582  0.54606  0.57902  1.0000
  S   S7        1.0  0.85190  0.56159  0.18873  1.0000
  S   S8        1.0  0.14810  0.43841  0.81127  1.0000
  N   N1        1.0  0.44743  0.12173  0.29226  1.0000
  N   N2        1.0  0.55257  0.87828  0.70774  1.0000
  N   N3        1.0  0.28794  0.08582  0.44395  1.0000
  N   N4        1.0  0.71206  0.91418  0.55604  1.0000
  N   N5        1.0  0.96435  0.20739  0.34724  1.0000
  N   N6        1.0  0.03566  0.79260  0.65275  1.0000
  N   N7        1.0  0.93309  0.29093  0.25631  1.0000
  N   N8        1.0  0.06692  0.70906  0.74369  1.0000
  N   N9        1.0  0.70488  0.43025  0.09209  1.0000
  N   N10       1.0  0.29511  0.56975  0.90791  1.0000
  N   N11       1.0  0.59069  0.27655  0.12369  1.0000
  N   N12       1.0  0.40932  0.72345  0.87631  1.0000
  O   O1        1.0  0.67696  0.82034  0.92646  1.0000
  O   O2        1.0  0.32304  0.17966  0.07353  1.0000
  O   O3        1.0  0.88482  0.78492  0.02831  1.0000
  O   O4        1.0  0.11517  0.21507  0.97170  1.0000
  O   O5        1.0  0.71825  0.02323  0.98783  1.0000
  O   O6        1.0  0.28175  0.97676  0.01217  1.0000
  O   O7        1.0  0.61357  0.89468  0.12660  1.0000
  O   O8        1.0  0.38643  0.10532  0.87340  1.0000
