data_image0
_chemical_formula_structural       Li4B4H32C16O4F16
_chemical_formula_sum              "Li4 B4 H32 C16 O4 F16"
_cell_length_a       8.8124
_cell_length_b       9.25493
_cell_length_c       9.59651
_cell_angle_alpha    90.0049
_cell_angle_beta     110.967
_cell_angle_gamma    89.9943

_space_group_name_H-M_alt    "P 1"
_space_group_IT_number       1

loop_
  _space_group_symop_operation_xyz
  'x, y, z'

loop_
  _atom_site_type_symbol
  _atom_site_label
  _atom_site_symmetry_multiplicity
  _atom_site_fract_x
  _atom_site_fract_y
  _atom_site_fract_z
  _atom_site_occupancy
  Li  Li1       1.0  0.96039  0.34461  0.14849  1.0000
  Li  Li2       1.0  0.03961  0.84458  0.35151  1.0000
  Li  Li3       1.0  0.03968  0.65539  0.85153  1.0000
  Li  Li4       1.0  0.96037  0.15540  0.64847  1.0000
  B   B1        1.0  0.14643  0.17277  0.43271  1.0000
  B   B2        1.0  0.85360  0.67273  0.06729  1.0000
  B   B3        1.0  0.85359  0.82720  0.56730  1.0000
  B   B4        1.0  0.14640  0.32726  0.93272  1.0000
  H   H1        1.0  0.74460  0.32775  0.81959  1.0000
  H   H2        1.0  0.25536  0.82773  0.68038  1.0000
  H   H3        1.0  0.25542  0.67227  0.18046  1.0000
  H   H4        1.0  0.74460  0.17232  0.31956  1.0000
  H   H5        1.0  0.60145  0.38504  0.90261  1.0000
  H   H6        1.0  0.39853  0.88503  0.59742  1.0000
  H   H7        1.0  0.39858  0.61496  0.09749  1.0000
  H   H8        1.0  0.60143  0.11498  0.40251  1.0000
  H   H9        1.0  0.45556  0.15997  0.84250  1.0000
  H   H10       1.0  0.54449  0.65999  0.65756  1.0000
  H   H11       1.0  0.54444  0.84002  0.15753  1.0000
  H   H12       1.0  0.45548  0.34003  0.34241  1.0000
  H   H13       1.0  0.51730  0.17239  0.68592  1.0000
  H   H14       1.0  0.48268  0.67238  0.81410  1.0000
  H   H15       1.0  0.48272  0.82766  0.31411  1.0000
  H   H16       1.0  0.51728  0.32766  0.18587  1.0000
  H   H17       1.0  0.75196  0.01720  0.80222  1.0000
  H   H18       1.0  0.24804  0.51724  0.69774  1.0000
  H   H19       1.0  0.24803  0.98283  0.19777  1.0000
  H   H20       1.0  0.75192  0.48278  0.30222  1.0000
  H   H21       1.0  0.60915  0.93432  0.86759  1.0000
  H   H22       1.0  0.39091  0.43430  0.63245  1.0000
  H   H23       1.0  0.39086  0.06567  0.13240  1.0000
  H   H24       1.0  0.60907  0.56572  0.36755  1.0000
  H   H25       1.0  0.72426  0.04350  0.10904  1.0000
  H   H26       1.0  0.27579  0.54345  0.39092  1.0000
  H   H27       1.0  0.27580  0.95646  0.89096  1.0000
  H   H28       1.0  0.72422  0.45655  0.60906  1.0000
  H   H29       1.0  0.90300  0.04517  0.06237  1.0000
  H   H30       1.0  0.09708  0.54514  0.43763  1.0000
  H   H31       1.0  0.09703  0.95480  0.93762  1.0000
  H   H32       1.0  0.90291  0.45485  0.56232  1.0000
  C   C1        1.0  0.66848  0.29217  0.88271  1.0000
  C   C2        1.0  0.33150  0.79215  0.61730  1.0000
  C   C3        1.0  0.33153  0.70784  0.11735  1.0000
  C   C4        1.0  0.66845  0.20788  0.38265  1.0000
  C   C5        1.0  0.56133  0.16470  0.80791  1.0000
  C   C6        1.0  0.43868  0.66469  0.69210  1.0000
  C   C7        1.0  0.43869  0.83531  0.19212  1.0000
  C   C8        1.0  0.56127  0.33533  0.30787  1.0000
  C   C9        1.0  0.67464  0.03518  0.86825  1.0000
  C   C10       1.0  0.32541  0.53517  0.63175  1.0000
  C   C11       1.0  0.32537  0.96484  0.13175  1.0000
  C   C12       1.0  0.67455  0.46486  0.36825  1.0000
  C   C13       1.0  0.77624  0.08134  0.02690  1.0000
  C   C14       1.0  0.22383  0.58131  0.47309  1.0000
  C   C15       1.0  0.22379  0.91863  0.97312  1.0000
  C   C16       1.0  0.77617  0.41869  0.52687  1.0000
  O   O1        1.0  0.77455  0.23906  0.02804  1.0000
  O   O2        1.0  0.22548  0.73903  0.47195  1.0000
  O   O3        1.0  0.22548  0.76092  0.97200  1.0000
  O   O4        1.0  0.77447  0.26096  0.52801  1.0000
  F   F1        1.0  0.04269  0.28557  0.34864  1.0000
  F   F2        1.0  0.95729  0.78554  0.15137  1.0000
  F   F3        1.0  0.95729  0.71441  0.65141  1.0000
  F   F4        1.0  0.04269  0.21448  0.84861  1.0000
  F   F5        1.0  0.13114  0.16631  0.57523  1.0000
  F   F6        1.0  0.86897  0.66617  0.92483  1.0000
  F   F7        1.0  0.86890  0.83364  0.42481  1.0000
  F   F8        1.0  0.13111  0.33374  0.07520  1.0000
  F   F9        1.0  0.08820  0.04029  0.35536  1.0000
  F   F10       1.0  0.91176  0.54028  0.14470  1.0000
  F   F11       1.0  0.91178  0.95969  0.64464  1.0000
  F   F12       1.0  0.08829  0.45973  0.85538  1.0000
  F   F13       1.0  0.30609  0.19641  0.44686  1.0000
  F   F14       1.0  0.69387  0.69641  0.05305  1.0000
  F   F15       1.0  0.69388  0.80358  0.55311  1.0000
  F   F16       1.0  0.30617  0.30355  0.94692  1.0000
