data_image0
_chemical_formula_structural       Li4B4H16C16N8F16
_chemical_formula_sum              "Li4 B4 H16 C16 N8 F16"
_cell_length_a       4.95832
_cell_length_b       9.08808
_cell_length_c       15.6513
_cell_angle_alpha    90
_cell_angle_beta     90.0001
_cell_angle_gamma    90

_space_group_name_H-M_alt    "P 1"
_space_group_IT_number       1

loop_
  _space_group_symop_operation_xyz
  'x, y, z'

loop_
  _atom_site_type_symbol
  _atom_site_label
  _atom_site_symmetry_multiplicity
  _atom_site_fract_x
  _atom_site_fract_y
  _atom_site_fract_z
  _atom_site_occupancy
  Li  Li1       1.0  0.47195  0.58552  0.55811  1.0000
  Li  Li2       1.0  0.97195  0.91448  0.44189  1.0000
  Li  Li3       1.0  0.52805  0.08552  0.94189  1.0000
  Li  Li4       1.0  0.02805  0.41448  0.05811  1.0000
  B   B1        1.0  0.02938  0.56595  0.43084  1.0000
  B   B2        1.0  0.52938  0.93405  0.56916  1.0000
  B   B3        1.0  0.97063  0.06595  0.06916  1.0000
  B   B4        1.0  0.47062  0.43405  0.93084  1.0000
  H   H1        1.0  0.66118  0.65479  0.75980  1.0000
  H   H2        1.0  0.16118  0.84521  0.24020  1.0000
  H   H3        1.0  0.33882  0.15479  0.74020  1.0000
  H   H4        1.0  0.83882  0.34521  0.25980  1.0000
  H   H5        1.0  0.76694  0.83898  0.74448  1.0000
  H   H6        1.0  0.26694  0.66102  0.25552  1.0000
  H   H7        1.0  0.23306  0.33898  0.75552  1.0000
  H   H8        1.0  0.73306  0.16102  0.24447  1.0000
  H   H9        1.0  0.76773  0.76557  0.89861  1.0000
  H   H10       1.0  0.26773  0.73443  0.10139  1.0000
  H   H11       1.0  0.23226  0.26557  0.60139  1.0000
  H   H12       1.0  0.73226  0.23443  0.39861  1.0000
  H   H13       1.0  0.99276  0.61811  0.87819  1.0000
  H   H14       1.0  0.49275  0.88189  0.12181  1.0000
  H   H15       1.0  0.00724  0.11811  0.62181  1.0000
  H   H16       1.0  0.50724  0.38189  0.37819  1.0000
  C   C1        1.0  0.03971  0.67859  0.70472  1.0000
  C   C2        1.0  0.53971  0.82141  0.29528  1.0000
  C   C3        1.0  0.96029  0.17859  0.79529  1.0000
  C   C4        1.0  0.46029  0.32141  0.20472  1.0000
  C   C5        1.0  0.83558  0.72909  0.76419  1.0000
  C   C6        1.0  0.33558  0.77091  0.23581  1.0000
  C   C7        1.0  0.16442  0.22909  0.73581  1.0000
  C   C8        1.0  0.66442  0.27091  0.26419  1.0000
  C   C9        1.0  0.93455  0.72901  0.85756  1.0000
  C   C10       1.0  0.43454  0.77099  0.14244  1.0000
  C   C11       1.0  0.06545  0.22901  0.64244  1.0000
  C   C12       1.0  0.56545  0.27099  0.35756  1.0000
  C   C13       1.0  0.15972  0.82717  0.87193  1.0000
  C   C14       1.0  0.65972  0.67283  0.12807  1.0000
  C   C15       1.0  0.84028  0.32717  0.62807  1.0000
  C   C16       1.0  0.34028  0.17283  0.37193  1.0000
  N   N1        1.0  0.20464  0.63686  0.65789  1.0000
  N   N2        1.0  0.70465  0.86314  0.34211  1.0000
  N   N3        1.0  0.79536  0.13686  0.84211  1.0000
  N   N4        1.0  0.29536  0.36314  0.15789  1.0000
  N   N5        1.0  0.33813  0.90761  0.88371  1.0000
  N   N6        1.0  0.83813  0.59239  0.11629  1.0000
  N   N7        1.0  0.66187  0.40761  0.61629  1.0000
  N   N8        1.0  0.16187  0.09239  0.38371  1.0000
  F   F1        1.0  0.19158  0.48293  0.48911  1.0000
  F   F2        1.0  0.69158  0.01707  0.51089  1.0000
  F   F3        1.0  0.80843  0.98293  0.01089  1.0000
  F   F4        1.0  0.30842  0.51707  0.98911  1.0000
  F   F5        1.0  0.75596  0.55957  0.45557  1.0000
  F   F6        1.0  0.25596  0.94043  0.54443  1.0000
  F   F7        1.0  0.24404  0.05957  0.04443  1.0000
  F   F8        1.0  0.74404  0.44043  0.95557  1.0000
  F   F9        1.0  0.12376  0.71388  0.43344  1.0000
  F   F10       1.0  0.62376  0.78612  0.56656  1.0000
  F   F11       1.0  0.87624  0.21388  0.06656  1.0000
  F   F12       1.0  0.37624  0.28612  0.93344  1.0000
  F   F13       1.0  0.06081  0.50802  0.34803  1.0000
  F   F14       1.0  0.56081  0.99198  0.65197  1.0000
  F   F15       1.0  0.93919  0.00802  0.15197  1.0000
  F   F16       1.0  0.43919  0.49198  0.84803  1.0000
