data_image0
_chemical_formula_structural       Cu2H32C12N4O10
_chemical_formula_sum              "Cu2 H32 C12 N4 O10"
_cell_length_a       7.73669
_cell_length_b       8.78997
_cell_length_c       8.83792
_cell_angle_alpha    105.659
_cell_angle_beta     94.5408
_cell_angle_gamma    110.719

_space_group_name_H-M_alt    "P 1"
_space_group_IT_number       1

loop_
  _space_group_symop_operation_xyz
  'x, y, z'

loop_
  _atom_site_type_symbol
  _atom_site_label
  _atom_site_symmetry_multiplicity
  _atom_site_fract_x
  _atom_site_fract_y
  _atom_site_fract_z
  _atom_site_occupancy
  Cu  Cu1       1.0  0.00000  1.00000  1.00000  1.0000
  Cu  Cu2       1.0  1.00000  0.49999  0.00001  1.0000
  H   H1        1.0  0.80766  0.78072  0.11689  1.0000
  H   H2        1.0  0.19235  0.21928  0.88311  1.0000
  H   H3        1.0  0.65894  0.84666  0.03457  1.0000
  H   H4        1.0  0.34106  0.15333  0.96543  1.0000
  H   H5        1.0  0.88843  0.71319  0.77923  1.0000
  H   H6        1.0  0.11157  0.28681  0.22077  1.0000
  H   H7        1.0  0.73880  0.80715  0.75522  1.0000
  H   H8        1.0  0.26119  0.19285  0.24478  1.0000
  H   H9        1.0  0.76688  0.52671  0.52753  1.0000
  H   H10       1.0  0.23315  0.47331  0.47248  1.0000
  H   H11       1.0  0.61746  0.30263  0.44843  1.0000
  H   H12       1.0  0.38255  0.69738  0.55157  1.0000
  H   H13       1.0  0.85110  0.37509  0.41843  1.0000
  H   H14       1.0  0.14891  0.62492  0.58157  1.0000
  H   H15       1.0  0.59666  0.68278  0.25460  1.0000
  H   H16       1.0  0.40334  0.31722  0.74540  1.0000
  H   H17       1.0  0.54878  0.52186  0.35011  1.0000
  H   H18       1.0  0.45117  0.47810  0.64986  1.0000
  H   H19       1.0  0.39436  0.48790  0.17433  1.0000
  H   H20       1.0  0.60565  0.51211  0.82565  1.0000
  H   H21       1.0  0.95954  0.79897  0.54716  1.0000
  H   H22       1.0  0.04045  0.20104  0.45283  1.0000
  H   H23       1.0  0.92965  0.99245  0.63915  1.0000
  H   H24       1.0  0.07035  0.00756  0.36086  1.0000
  H   H25       1.0  0.27255  0.04318  0.65829  1.0000
  H   H26       1.0  0.72744  0.95683  0.34171  1.0000
  H   H27       1.0  0.24356  0.89178  0.76142  1.0000
  H   H28       1.0  0.75642  0.10822  0.23859  1.0000
  H   H29       1.0  0.26784  0.79211  0.00775  1.0000
  H   H30       1.0  0.73217  0.20790  0.99224  1.0000
  H   H31       1.0  0.19117  0.81835  0.17220  1.0000
  H   H32       1.0  0.80883  0.18164  0.82779  1.0000
  C   C1        1.0  0.76095  0.39612  0.50492  1.0000
  C   C2        1.0  0.23906  0.60389  0.49508  1.0000
  C   C3        1.0  0.54260  0.54447  0.23407  1.0000
  C   C4        1.0  0.45740  0.45553  0.76593  1.0000
  C   C5        1.0  0.01842  0.10211  0.33766  1.0000
  C   C6        1.0  0.98157  0.89789  0.66234  1.0000
  C   C7        1.0  0.65200  0.45707  0.13480  1.0000
  C   C8        1.0  0.34802  0.54293  0.86522  1.0000
  C   C9        1.0  0.81006  0.01449  0.26099  1.0000
  C   C10       1.0  0.18994  0.98551  0.73901  1.0000
  C   C11       1.0  0.82365  0.36526  0.65698  1.0000
  C   C12       1.0  0.17634  0.63474  0.34303  1.0000
  N   N1        1.0  0.78991  0.88848  0.10475  1.0000
  N   N2        1.0  0.21009  0.11152  0.89525  1.0000
  N   N3        1.0  0.12202  0.17282  0.22212  1.0000
  N   N4        1.0  0.87798  0.82718  0.77789  1.0000
  O   O1        1.0  0.17185  0.82506  0.06131  1.0000
  O   O2        1.0  0.82816  0.17494  0.93869  1.0000
  O   O3        1.0  0.79423  0.55572  0.09303  1.0000
  O   O4        1.0  0.20578  0.44428  0.90698  1.0000
  O   O5        1.0  0.59688  0.29605  0.09937  1.0000
  O   O6        1.0  0.40313  0.70395  0.90063  1.0000
  O   O7        1.0  0.89888  0.50021  0.78298  1.0000
  O   O8        1.0  0.10112  0.49978  0.21702  1.0000
  O   O9        1.0  0.79863  0.21451  0.65112  1.0000
  O   O10       1.0  0.20138  0.78549  0.34888  1.0000
