data_image0
_chemical_formula_structural       P4H48Au4C60Cl4
_chemical_formula_sum              "P4 H48 Au4 C60 Cl4"
_cell_length_a       10.9519
_cell_length_b       10.952
_cell_length_c       11.6853
_cell_angle_alpha    79.3226
_cell_angle_beta     79.3229
_cell_angle_gamma    74.8028

_space_group_name_H-M_alt    "P 1"
_space_group_IT_number       1

loop_
  _space_group_symop_operation_xyz
  'x, y, z'

loop_
  _atom_site_type_symbol
  _atom_site_label
  _atom_site_symmetry_multiplicity
  _atom_site_fract_x
  _atom_site_fract_y
  _atom_site_fract_z
  _atom_site_occupancy
  P   P1        1.0  0.30558  0.03102  0.24052  1.0000
  P   P2        1.0  0.96898  0.69443  0.25948  1.0000
  P   P3        1.0  0.69443  0.96898  0.75948  1.0000
  P   P4        1.0  0.03102  0.30557  0.74052  1.0000
  H   H1        1.0  0.53471  0.84209  0.18017  1.0000
  H   H2        1.0  0.15792  0.46529  0.31983  1.0000
  H   H3        1.0  0.46530  0.15792  0.81983  1.0000
  H   H4        1.0  0.84208  0.53470  0.68016  1.0000
  H   H5        1.0  0.90200  0.36693  0.27083  1.0000
  H   H6        1.0  0.63307  0.09800  0.22915  1.0000
  H   H7        1.0  0.09800  0.63306  0.72915  1.0000
  H   H8        1.0  0.36694  0.90200  0.77085  1.0000
  H   H9        1.0  0.30663  0.18043  0.99978  1.0000
  H   H10       1.0  0.81957  0.69338  0.50022  1.0000
  H   H11       1.0  0.69337  0.81957  0.00022  1.0000
  H   H12       1.0  0.18042  0.30663  0.49977  1.0000
  H   H13       1.0  0.37261  0.02471  0.47327  1.0000
  H   H14       1.0  0.97531  0.62738  0.02675  1.0000
  H   H15       1.0  0.62738  0.97530  0.52674  1.0000
  H   H16       1.0  0.02469  0.37262  0.97326  1.0000
  H   H17       1.0  0.35993  0.28239  0.14509  1.0000
  H   H18       1.0  0.71761  0.64008  0.35490  1.0000
  H   H19       1.0  0.64008  0.71761  0.85490  1.0000
  H   H20       1.0  0.28239  0.35992  0.64510  1.0000
  H   H21       1.0  0.15186  0.98741  0.08175  1.0000
  H   H22       1.0  0.01258  0.84815  0.41825  1.0000
  H   H23       1.0  0.84814  0.01258  0.91824  1.0000
  H   H24       1.0  0.98742  0.15185  0.58176  1.0000
  H   H25       1.0  0.80971  0.28675  0.12712  1.0000
  H   H26       1.0  0.71325  0.19030  0.37287  1.0000
  H   H27       1.0  0.19030  0.71325  0.87288  1.0000
  H   H28       1.0  0.28675  0.80970  0.62713  1.0000
  H   H29       1.0  0.48111  0.38201  0.43850  1.0000
  H   H30       1.0  0.61801  0.51890  0.06149  1.0000
  H   H31       1.0  0.51889  0.61800  0.56149  1.0000
  H   H32       1.0  0.38199  0.48109  0.93852  1.0000
  H   H33       1.0  0.11929  0.25809  0.31766  1.0000
  H   H34       1.0  0.74192  0.88071  0.18233  1.0000
  H   H35       1.0  0.88071  0.74191  0.68233  1.0000
  H   H36       1.0  0.25808  0.11929  0.81767  1.0000
  H   H37       1.0  0.45235  0.17608  0.55797  1.0000
  H   H38       1.0  0.82395  0.54765  0.94203  1.0000
  H   H39       1.0  0.54765  0.82394  0.44203  1.0000
  H   H40       1.0  0.17605  0.45235  0.05797  1.0000
  H   H41       1.0  0.43149  0.43586  0.23197  1.0000
  H   H42       1.0  0.56414  0.56853  0.26802  1.0000
  H   H43       1.0  0.56852  0.56414  0.76802  1.0000
  H   H44       1.0  0.43586  0.43147  0.73199  1.0000
  H   H45       1.0  0.93348  0.09832  0.03431  1.0000
  H   H46       1.0  0.90167  0.06653  0.46569  1.0000
  H   H47       1.0  0.06652  0.90167  0.96569  1.0000
  H   H48       1.0  0.09832  0.93347  0.53432  1.0000
  Au  Au1       1.0  0.30286  0.83942  0.34804  1.0000
  Au  Au2       1.0  0.16058  0.69714  0.15196  1.0000
  Au  Au3       1.0  0.69714  0.16058  0.65196  1.0000
  Au  Au4       1.0  0.83941  0.30286  0.84804  1.0000
  C   C1        1.0  0.52063  0.91224  0.10147  1.0000
  C   C2        1.0  0.08776  0.47937  0.39853  1.0000
  C   C3        1.0  0.47938  0.08776  0.89853  1.0000
  C   C4        1.0  0.91223  0.52062  0.60147  1.0000
  C   C5        1.0  0.95723  0.28537  0.22769  1.0000
  C   C6        1.0  0.71463  0.04277  0.27230  1.0000
  C   C7        1.0  0.04277  0.71463  0.77230  1.0000
  C   C8        1.0  0.28537  0.95723  0.72770  1.0000
  C   C9        1.0  0.41184  0.01374  0.10241  1.0000
  C   C10       1.0  0.98626  0.58816  0.39760  1.0000
  C   C11       1.0  0.58816  0.98626  0.89759  1.0000
  C   C12       1.0  0.01373  0.41183  0.60240  1.0000
  C   C13       1.0  0.39102  0.10127  0.00019  1.0000
  C   C14       1.0  0.89873  0.60898  0.49980  1.0000
  C   C15       1.0  0.60898  0.89873  0.99981  1.0000
  C   C16       1.0  0.10127  0.39101  0.50019  1.0000
  C   C17       1.0  0.36050  0.14331  0.30423  1.0000
  C   C18       1.0  0.85669  0.63951  0.19578  1.0000
  C   C19       1.0  0.63950  0.85669  0.69577  1.0000
  C   C20       1.0  0.14330  0.36050  0.80423  1.0000
  C   C21       1.0  0.38667  0.11424  0.42035  1.0000
  C   C22       1.0  0.88577  0.61333  0.07965  1.0000
  C   C23       1.0  0.61332  0.88577  0.57965  1.0000
  C   C24       1.0  0.11422  0.38667  0.92035  1.0000
  C   C25       1.0  0.37817  0.25928  0.23619  1.0000
  C   C26       1.0  0.74072  0.62184  0.26381  1.0000
  C   C27       1.0  0.62184  0.74072  0.76380  1.0000
  C   C28       1.0  0.25928  0.37816  0.73620  1.0000
  C   C29       1.0  0.15018  0.11743  0.20127  1.0000
  C   C30       1.0  0.88257  0.84982  0.29873  1.0000
  C   C31       1.0  0.84982  0.88257  0.79873  1.0000
  C   C32       1.0  0.11743  0.15018  0.70127  1.0000
  C   C33       1.0  0.09729  0.07147  0.12190  1.0000
  C   C34       1.0  0.92852  0.90271  0.37810  1.0000
  C   C35       1.0  0.90271  0.92853  0.87809  1.0000
  C   C36       1.0  0.07148  0.09728  0.62190  1.0000
  C   C37       1.0  0.90538  0.24025  0.14803  1.0000
  C   C38       1.0  0.75974  0.09463  0.35196  1.0000
  C   C39       1.0  0.09463  0.75974  0.85196  1.0000
  C   C40       1.0  0.24026  0.90537  0.64804  1.0000
  C   C41       1.0  0.44676  0.31565  0.40075  1.0000
  C   C42       1.0  0.68436  0.55325  0.09924  1.0000
  C   C43       1.0  0.55325  0.68435  0.59924  1.0000
  C   C44       1.0  0.31564  0.44675  0.90077  1.0000
  C   C45       1.0  0.07941  0.22385  0.25451  1.0000
  C   C46       1.0  0.77615  0.92060  0.24549  1.0000
  C   C47       1.0  0.92060  0.77615  0.74548  1.0000
  C   C48       1.0  0.22385  0.07940  0.75452  1.0000
  C   C49       1.0  0.43034  0.20016  0.46792  1.0000
  C   C50       1.0  0.79986  0.56966  0.03208  1.0000
  C   C51       1.0  0.56966  0.79985  0.53207  1.0000
  C   C52       1.0  0.20014  0.43034  0.96793  1.0000
  C   C53       1.0  0.42015  0.34528  0.28481  1.0000
  C   C54       1.0  0.65472  0.57987  0.21518  1.0000
  C   C55       1.0  0.57986  0.65472  0.71518  1.0000
  C   C56       1.0  0.34527  0.42014  0.78483  1.0000
  C   C57       1.0  0.97544  0.13340  0.09554  1.0000
  C   C58       1.0  0.86660  0.02456  0.40446  1.0000
  C   C59       1.0  0.02456  0.86660  0.90446  1.0000
  C   C60       1.0  0.13340  0.97544  0.59555  1.0000
  Cl  Cl1       1.0  0.29537  0.64312  0.45742  1.0000
  Cl  Cl2       1.0  0.35688  0.70463  0.04258  1.0000
  Cl  Cl3       1.0  0.70462  0.35688  0.54258  1.0000
  Cl  Cl4       1.0  0.64312  0.29537  0.95742  1.0000
