data_image0
_chemical_formula_structural       Cd3H42C46N8O18
_chemical_formula_sum              "Cd3 H42 C46 N8 O18"
_cell_length_a       10.3521
_cell_length_b       10.5517
_cell_length_c       12.9758
_cell_angle_alpha    70.1078
_cell_angle_beta     70.7989
_cell_angle_gamma    84.5805

_space_group_name_H-M_alt    "P 1"
_space_group_IT_number       1

loop_
  _space_group_symop_operation_xyz
  'x, y, z'

loop_
  _atom_site_type_symbol
  _atom_site_label
  _atom_site_symmetry_multiplicity
  _atom_site_fract_x
  _atom_site_fract_y
  _atom_site_fract_z
  _atom_site_occupancy
  Cd  Cd1       1.0  0.50000  0.50000  0.50000  1.0000
  Cd  Cd2       1.0  0.14857  0.32750  0.26318  1.0000
  Cd  Cd3       1.0  0.85142  0.67250  0.73682  1.0000
  H   H1        1.0  0.14768  0.23683  0.51166  1.0000
  H   H2        1.0  0.85232  0.76317  0.48834  1.0000
  H   H3        1.0  0.06996  0.14485  0.47260  1.0000
  H   H4        1.0  0.93004  0.85515  0.52740  1.0000
  H   H5        1.0  0.75501  0.56252  0.44527  1.0000
  H   H6        1.0  0.24499  0.43748  0.55473  1.0000
  H   H7        1.0  0.77930  0.43206  0.40050  1.0000
  H   H8        1.0  0.22070  0.56794  0.59950  1.0000
  H   H9        1.0  0.46774  0.45453  0.29559  1.0000
  H   H10       1.0  0.53226  0.54547  0.70441  1.0000
  H   H11       1.0  0.50208  0.60952  0.26506  1.0000
  H   H12       1.0  0.49792  0.39049  0.73495  1.0000
  H   H13       1.0  0.07356  0.74599  0.40340  1.0000
  H   H14       1.0  0.92644  0.25401  0.59660  1.0000
  H   H15       1.0  0.15995  0.52794  0.81960  1.0000
  H   H16       1.0  0.84005  0.47206  0.18040  1.0000
  H   H17       1.0  0.32978  0.91226  0.25711  1.0000
  H   H18       1.0  0.67022  0.08775  0.74288  1.0000
  H   H19       1.0  0.53478  0.91532  0.08786  1.0000
  H   H20       1.0  0.46522  0.08468  0.91214  1.0000
  H   H21       1.0  0.55855  0.75053  0.98637  1.0000
  H   H22       1.0  0.44145  0.24947  0.01362  1.0000
  H   H23       1.0  0.38457  0.56614  0.05623  1.0000
  H   H24       1.0  0.61543  0.43386  0.94377  1.0000
  H   H25       1.0  0.97586  0.53903  0.40421  1.0000
  H   H26       1.0  0.02414  0.46097  0.59579  1.0000
  H   H27       1.0  0.15789  0.28095  0.76166  1.0000
  H   H28       1.0  0.84212  0.71905  0.23833  1.0000
  H   H29       1.0  0.16071  0.03213  0.85178  1.0000
  H   H30       1.0  0.83929  0.96787  0.14822  1.0000
  H   H31       1.0  0.16836  0.92810  0.05131  1.0000
  H   H32       1.0  0.83163  0.07190  0.94869  1.0000
  H   H33       1.0  0.17030  0.07054  0.17083  1.0000
  H   H34       1.0  0.82969  0.92946  0.82917  1.0000
  H   H35       1.0  0.16824  0.57328  0.99789  1.0000
  H   H36       1.0  0.83175  0.42672  0.00211  1.0000
  H   H37       1.0  0.84713  0.96047  0.37406  1.0000
  H   H38       1.0  0.15287  0.03953  0.62594  1.0000
  H   H39       1.0  0.43466  0.94645  0.37072  1.0000
  H   H40       1.0  0.56534  0.05355  0.62928  1.0000
  H   H41       1.0  0.63235  0.32777  0.28269  1.0000
  H   H42       1.0  0.36765  0.67223  0.71731  1.0000
  C   C1        1.0  0.25774  0.63732  0.19532  1.0000
  C   C2        1.0  0.74225  0.36268  0.80468  1.0000
  C   C3        1.0  0.24253  0.73592  0.25043  1.0000
  C   C4        1.0  0.75747  0.26408  0.74957  1.0000
  C   C5        1.0  0.34091  0.83745  0.21405  1.0000
  C   C6        1.0  0.65909  0.16255  0.78595  1.0000
  C   C7        1.0  0.45454  0.83896  0.11883  1.0000
  C   C8        1.0  0.54546  0.16104  0.88117  1.0000
  C   C9        1.0  0.46850  0.74412  0.06111  1.0000
  C   C10       1.0  0.53150  0.25588  0.93889  1.0000
  C   C11       1.0  0.37127  0.64185  0.09854  1.0000
  C   C12       1.0  0.62874  0.35815  0.90145  1.0000
  C   C13       1.0  0.06974  0.58895  0.34034  1.0000
  C   C14       1.0  0.93025  0.41106  0.65966  1.0000
  C   C15       1.0  0.16625  0.25557  0.03206  1.0000
  C   C16       1.0  0.83375  0.74443  0.96794  1.0000
  C   C17       1.0  0.16290  0.31450  0.91717  1.0000
  C   C18       1.0  0.83710  0.68550  0.08283  1.0000
  C   C19       1.0  0.16038  0.23626  0.84990  1.0000
  C   C20       1.0  0.83963  0.76374  0.15010  1.0000
  C   C21       1.0  0.16251  0.09701  0.90109  1.0000
  C   C22       1.0  0.83749  0.90299  0.09891  1.0000
  C   C23       1.0  0.16654  0.03761  0.01520  1.0000
  C   C24       1.0  0.83346  0.96239  0.98480  1.0000
  C   C25       1.0  0.16786  0.11538  0.08255  1.0000
  C   C26       1.0  0.83213  0.88461  0.91745  1.0000
  C   C27       1.0  0.16797  0.47332  0.99143  1.0000
  C   C28       1.0  0.83202  0.52668  0.00857  1.0000
  C   C29       1.0  0.75082  0.15107  0.32994  1.0000
  C   C30       1.0  0.24919  0.84893  0.67006  1.0000
  C   C31       1.0  0.75366  0.01041  0.36269  1.0000
  C   C32       1.0  0.24634  0.98958  0.63731  1.0000
  C   C33       1.0  0.63978  0.93631  0.37884  1.0000
  C   C34       1.0  0.36022  0.06369  0.62116  1.0000
  C   C35       1.0  0.52370  0.00422  0.35759  1.0000
  C   C36       1.0  0.47630  0.99578  0.64241  1.0000
  C   C37       1.0  0.52117  0.14505  0.32042  1.0000
  C   C38       1.0  0.47883  0.85495  0.67958  1.0000
  C   C39       1.0  0.63438  0.21829  0.30858  1.0000
  C   C40       1.0  0.36562  0.78171  0.69142  1.0000
  C   C41       1.0  0.87404  0.22572  0.31753  1.0000
  C   C42       1.0  0.12596  0.77428  0.68247  1.0000
  C   C43       1.0  0.64099  0.78549  0.41686  1.0000
  C   C44       1.0  0.35901  0.21451  0.58314  1.0000
  C   C45       1.0  0.39662  0.21514  0.29526  1.0000
  C   C46       1.0  0.60338  0.78486  0.70474  1.0000
  N   N1        1.0  0.14775  0.54616  0.25486  1.0000
  N   N2        1.0  0.85225  0.45385  0.74514  1.0000
  N   N3        1.0  0.12095  0.70199  0.34066  1.0000
  N   N4        1.0  0.87905  0.29801  0.65934  1.0000
  N   N5        1.0  0.16971  0.35840  0.07579  1.0000
  N   N6        1.0  0.83028  0.64160  0.92421  1.0000
  N   N7        1.0  0.16418  0.45246  0.89516  1.0000
  N   N8        1.0  0.83583  0.54754  0.10484  1.0000
  O   O1        1.0  0.87061  0.35414  0.29525  1.0000
  O   O2        1.0  0.12939  0.64586  0.70475  1.0000
  O   O3        1.0  0.97988  0.15789  0.32849  1.0000
  O   O4        1.0  0.02012  0.84211  0.67151  1.0000
  O   O5        1.0  0.74974  0.72539  0.43359  1.0000
  O   O6        1.0  0.25026  0.27461  0.56641  1.0000
  O   O7        1.0  0.53357  0.72618  0.42882  1.0000
  O   O8        1.0  0.46643  0.27382  0.57118  1.0000
  O   O9        1.0  0.30181  0.14499  0.29670  1.0000
  O   O10       1.0  0.69819  0.85502  0.70330  1.0000
  O   O11       1.0  0.38754  0.34288  0.27326  1.0000
  O   O12       1.0  0.61246  0.65712  0.72674  1.0000
  O   O13       1.0  0.07098  0.23365  0.47999  1.0000
  O   O14       1.0  0.92902  0.76635  0.52001  1.0000
  O   O15       1.0  0.73541  0.46386  0.46730  1.0000
  O   O16       1.0  0.26459  0.53615  0.53270  1.0000
  O   O17       1.0  0.52221  0.51867  0.30838  1.0000
  O   O18       1.0  0.47779  0.48133  0.69163  1.0000
