data_image0
_chemical_formula_structural       Er2H52C60N4O12
_chemical_formula_sum              "Er2 H52 C60 N4 O12"
_cell_length_a       9.36786
_cell_length_b       13.1492
_cell_length_c       16.3134
_cell_angle_alpha    112.807
_cell_angle_beta     99.3581
_cell_angle_gamma    91.6584

_space_group_name_H-M_alt    "P 1"
_space_group_IT_number       1

loop_
  _space_group_symop_operation_xyz
  'x, y, z'

loop_
  _atom_site_type_symbol
  _atom_site_label
  _atom_site_symmetry_multiplicity
  _atom_site_fract_x
  _atom_site_fract_y
  _atom_site_fract_z
  _atom_site_occupancy
  Er  Er1       1.0  0.08584  0.46099  0.15726  1.0000
  Er  Er2       1.0  0.91416  0.53901  0.84273  1.0000
  H   H1        1.0  0.35854  0.23419  0.96013  1.0000
  H   H2        1.0  0.64145  0.76581  0.03987  1.0000
  H   H3        1.0  0.39502  0.22337  0.85402  1.0000
  H   H4        1.0  0.60498  0.77663  0.14599  1.0000
  H   H5        1.0  0.23345  0.27662  0.88965  1.0000
  H   H6        1.0  0.76656  0.72339  0.11035  1.0000
  H   H7        1.0  0.32635  0.73288  0.00619  1.0000
  H   H8        1.0  0.67366  0.26712  0.99381  1.0000
  H   H9        1.0  0.37669  0.75252  0.12110  1.0000
  H   H10       1.0  0.62331  0.24748  0.87890  1.0000
  H   H11       1.0  0.21779  0.66566  0.05240  1.0000
  H   H12       1.0  0.78222  0.33434  0.94760  1.0000
  H   H13       1.0  0.11742  0.19623  0.22124  1.0000
  H   H14       1.0  0.88256  0.80378  0.77877  1.0000
  H   H15       1.0  0.19373  0.07344  0.21864  1.0000
  H   H16       1.0  0.80626  0.92655  0.78137  1.0000
  H   H17       1.0  0.01102  0.08934  0.23156  1.0000
  H   H18       1.0  0.98897  0.91066  0.76844  1.0000
  H   H19       1.0  0.99269  0.22228  0.93328  1.0000
  H   H20       1.0  0.00731  0.77773  0.06673  1.0000
  H   H21       1.0  0.84883  0.12384  0.85681  1.0000
  H   H22       1.0  0.15117  0.87616  0.14318  1.0000
  H   H23       1.0  0.02931  0.10734  0.83985  1.0000
  H   H24       1.0  0.97070  0.89266  0.16015  1.0000
  H   H25       1.0  0.87290  0.31760  0.27515  1.0000
  H   H26       1.0  0.12709  0.68240  0.72485  1.0000
  H   H27       1.0  0.73103  0.30990  0.33318  1.0000
  H   H28       1.0  0.26896  0.69010  0.66682  1.0000
  H   H29       1.0  0.88212  0.23371  0.33813  1.0000
  H   H30       1.0  0.11787  0.76629  0.66187  1.0000
  H   H31       1.0  0.31139  0.64847  0.49689  1.0000
  H   H32       1.0  0.68861  0.35152  0.50310  1.0000
  H   H33       1.0  0.18758  0.74898  0.53115  1.0000
  H   H34       1.0  0.81241  0.25102  0.46885  1.0000
  H   H35       1.0  0.17486  0.66338  0.41478  1.0000
  H   H36       1.0  0.82513  0.33661  0.58521  1.0000
  H   H37       1.0  0.40787  0.36135  0.13855  1.0000
  H   H38       1.0  0.59214  0.63866  0.86146  1.0000
  H   H39       1.0  0.67900  0.41626  0.18944  1.0000
  H   H40       1.0  0.32101  0.58375  0.81057  1.0000
  H   H41       1.0  0.76816  0.61052  0.28609  1.0000
  H   H42       1.0  0.23185  0.38949  0.71391  1.0000
  H   H43       1.0  0.70843  0.80929  0.36289  1.0000
  H   H44       1.0  0.29157  0.19072  0.63712  1.0000
  H   H45       1.0  0.52441  0.94383  0.40181  1.0000
  H   H46       1.0  0.47559  0.05618  0.59819  1.0000
  H   H47       1.0  0.26064  0.98018  0.39315  1.0000
  H   H48       1.0  0.73936  0.01983  0.60686  1.0000
  H   H49       1.0  0.99790  0.90415  0.33481  1.0000
  H   H50       1.0  0.00209  0.09585  0.66519  1.0000
  H   H51       1.0  0.93801  0.70081  0.23698  1.0000
  H   H52       1.0  0.06200  0.29919  0.76302  1.0000
  C   C1        1.0  0.18641  0.46675  0.96545  1.0000
  C   C2        1.0  0.81359  0.53324  0.03454  1.0000
  C   C3        1.0  0.34993  0.48439  0.98348  1.0000
  C   C4        1.0  0.65006  0.51561  0.01652  1.0000
  C   C5        1.0  0.42807  0.39101  0.95701  1.0000
  C   C6        1.0  0.57192  0.60899  0.04300  1.0000
  C   C7        1.0  0.34984  0.27575  0.91274  1.0000
  C   C8        1.0  0.65016  0.72426  0.08726  1.0000
  C   C9        1.0  0.41892  0.59302  0.02622  1.0000
  C   C10       1.0  0.58107  0.40698  0.97378  1.0000
  C   C11       1.0  0.33068  0.69057  0.05289  1.0000
  C   C12       1.0  0.66933  0.30944  0.94711  1.0000
  C   C13       1.0  0.05015  0.23765  0.08774  1.0000
  C   C14       1.0  0.94984  0.76235  0.91225  1.0000
  C   C15       1.0  0.02493  0.11401  0.04244  1.0000
  C   C16       1.0  0.97507  0.88599  0.95756  1.0000
  C   C17       1.0  0.04566  0.05134  0.09536  1.0000
  C   C18       1.0  0.95432  0.94865  0.90464  1.0000
  C   C19       1.0  0.09435  0.10605  0.19661  1.0000
  C   C20       1.0  0.90563  0.89395  0.80340  1.0000
  C   C21       1.0  0.98037  0.06483  0.94796  1.0000
  C   C22       1.0  0.01963  0.93517  0.05204  1.0000
  C   C23       1.0  0.96200  0.13366  0.89244  1.0000
  C   C24       1.0  0.03800  0.86634  0.10756  1.0000
  C   C25       1.0  0.04720  0.48045  0.32484  1.0000
  C   C26       1.0  0.95280  0.51955  0.67515  1.0000
  C   C27       1.0  0.02265  0.48960  0.41578  1.0000
  C   C28       1.0  0.97733  0.51039  0.58421  1.0000
  C   C29       1.0  0.92681  0.40933  0.42133  1.0000
  C   C30       1.0  0.07320  0.59066  0.57867  1.0000
  C   C31       1.0  0.84970  0.31334  0.33753  1.0000
  C   C32       1.0  0.15030  0.68666  0.66247  1.0000
  C   C33       1.0  0.09565  0.58012  0.49265  1.0000
  C   C34       1.0  0.90435  0.41987  0.50734  1.0000
  C   C35       1.0  0.19701  0.66451  0.48323  1.0000
  C   C36       1.0  0.80299  0.33548  0.51677  1.0000
  C   C37       1.0  0.45150  0.44728  0.17955  1.0000
  C   C38       1.0  0.54851  0.55273  0.82045  1.0000
  C   C39       1.0  0.60196  0.47788  0.20870  1.0000
  C   C40       1.0  0.39804  0.52212  0.79130  1.0000
  C   C41       1.0  0.65158  0.58745  0.26195  1.0000
  C   C42       1.0  0.34843  0.41254  0.73805  1.0000
  C   C43       1.0  0.55031  0.66645  0.28484  1.0000
  C   C44       1.0  0.44971  0.33355  0.71516  1.0000
  C   C45       1.0  0.59250  0.78195  0.33891  1.0000
  C   C46       1.0  0.40751  0.21805  0.66110  1.0000
  C   C47       1.0  0.49123  0.85599  0.36067  1.0000
  C   C48       1.0  0.50877  0.14401  0.63934  1.0000
  C   C49       1.0  0.33914  0.81996  0.32984  1.0000
  C   C50       1.0  0.66087  0.18004  0.67017  1.0000
  C   C51       1.0  0.22961  0.89214  0.35156  1.0000
  C   C52       1.0  0.77039  0.10787  0.64844  1.0000
  C   C53       1.0  0.08496  0.85059  0.31951  1.0000
  C   C54       1.0  0.91505  0.14942  0.68049  1.0000
  C   C55       1.0  0.05032  0.73714  0.26475  1.0000
  C   C56       1.0  0.94969  0.26287  0.73525  1.0000
  C   C57       1.0  0.29355  0.70606  0.27483  1.0000
  C   C58       1.0  0.70645  0.29394  0.72517  1.0000
  C   C59       1.0  0.40047  0.62811  0.25208  1.0000
  C   C60       1.0  0.59953  0.37189  0.74793  1.0000
  N   N1        1.0  0.35297  0.51993  0.20055  1.0000
  N   N2        1.0  0.64705  0.48008  0.79946  1.0000
  N   N3        1.0  0.15103  0.66692  0.24282  1.0000
  N   N4        1.0  0.84896  0.33307  0.75717  1.0000
  O   O1        1.0  0.12591  0.44419  0.02135  1.0000
  O   O2        1.0  0.87407  0.55580  0.97863  1.0000
  O   O3        1.0  0.11810  0.47332  0.89407  1.0000
  O   O4        1.0  0.88190  0.52667  0.10592  1.0000
  O   O5        1.0  0.17773  0.28615  0.10378  1.0000
  O   O6        1.0  0.82227  0.71384  0.89621  1.0000
  O   O7        1.0  0.94207  0.29401  0.10867  1.0000
  O   O8        1.0  0.05793  0.70599  0.89133  1.0000
  O   O9        1.0  0.95371  0.51427  0.27718  1.0000
  O   O10       1.0  0.04629  0.48573  0.72282  1.0000
  O   O11       1.0  0.16067  0.44082  0.29570  1.0000
  O   O12       1.0  0.83933  0.55918  0.70430  1.0000
