data_image0
_chemical_formula_structural       Tm2H30C30N2O16
_chemical_formula_sum              "Tm2 H30 C30 N2 O16"
_cell_length_a       8.5894
_cell_length_b       10.1083
_cell_length_c       10.9275
_cell_angle_alpha    64.8654
_cell_angle_beta     70.4713
_cell_angle_gamma    78.6069

_space_group_name_H-M_alt    "P 1"
_space_group_IT_number       1

loop_
  _space_group_symop_operation_xyz
  'x, y, z'

loop_
  _atom_site_type_symbol
  _atom_site_label
  _atom_site_symmetry_multiplicity
  _atom_site_fract_x
  _atom_site_fract_y
  _atom_site_fract_z
  _atom_site_occupancy
  Tm  Tm1       1.0  0.85973  0.55775  0.34827  1.0000
  Tm  Tm2       1.0  0.14026  0.44225  0.65173  1.0000
  H   H1        1.0  0.34850  0.87940  0.25418  1.0000
  H   H2        1.0  0.65150  0.12061  0.74582  1.0000
  H   H3        1.0  0.79200  0.91773  0.91298  1.0000
  H   H4        1.0  0.20800  0.08227  0.08702  1.0000
  H   H5        1.0  0.44511  0.66358  0.12849  1.0000
  H   H6        1.0  0.55490  0.33642  0.87151  1.0000
  H   H7        1.0  0.26645  0.37692  0.01402  1.0000
  H   H8        1.0  0.73356  0.62307  0.98598  1.0000
  H   H9        1.0  0.07874  0.23361  0.29336  1.0000
  H   H10       1.0  0.92125  0.76640  0.70664  1.0000
  H   H11       1.0  0.99068  0.97869  0.73702  1.0000
  H   H12       1.0  0.00931  0.02132  0.26299  1.0000
  H   H13       1.0  0.87527  0.34561  0.16199  1.0000
  H   H14       1.0  0.12473  0.65440  0.83799  1.0000
  H   H15       1.0  0.51205  0.21944  0.46421  1.0000
  H   H16       1.0  0.48796  0.78055  0.53579  1.0000
  H   H17       1.0  0.47914  0.08837  0.40512  1.0000
  H   H18       1.0  0.52087  0.91162  0.59487  1.0000
  H   H19       1.0  0.40888  0.27619  0.33199  1.0000
  H   H20       1.0  0.59112  0.72381  0.66801  1.0000
  H   H21       1.0  0.62170  0.16079  0.12378  1.0000
  H   H22       1.0  0.37829  0.83920  0.87621  1.0000
  H   H23       1.0  0.73765  0.02947  0.23797  1.0000
  H   H24       1.0  0.26235  0.97052  0.76203  1.0000
  H   H25       1.0  0.83277  0.18666  0.09338  1.0000
  H   H26       1.0  0.16724  0.81334  0.90661  1.0000
  H   H27       1.0  0.58643  0.40824  0.60704  1.0000
  H   H28       1.0  0.41357  0.59176  0.39296  1.0000
  H   H29       1.0  0.74251  0.42096  0.65032  1.0000
  H   H30       1.0  0.25749  0.57904  0.34968  1.0000
  C   C1        1.0  0.66862  0.76445  0.18640  1.0000
  C   C2        1.0  0.33138  0.23554  0.81360  1.0000
  C   C3        1.0  0.57961  0.88668  0.09227  1.0000
  C   C4        1.0  0.42039  0.11333  0.90773  1.0000
  C   C5        1.0  0.41442  0.93243  0.14304  1.0000
  C   C6        1.0  0.58558  0.06758  0.85696  1.0000
  C   C7        1.0  0.66385  0.95522  0.94923  1.0000
  C   C8        1.0  0.33615  0.04478  0.05077  1.0000
  C   C9        1.0  0.16972  0.54539  0.16589  1.0000
  C   C10       1.0  0.83029  0.45460  0.83411  1.0000
  C   C11       1.0  0.34032  0.52168  0.08055  1.0000
  C   C12       1.0  0.65968  0.47833  0.91945  1.0000
  C   C13       1.0  0.47103  0.59155  0.07238  1.0000
  C   C14       1.0  0.52898  0.40845  0.92762  1.0000
  C   C15       1.0  0.36958  0.42956  0.00784  1.0000
  C   C16       1.0  0.63042  0.57044  0.99217  1.0000
  C   C17       1.0  0.07203  0.24367  0.54000  1.0000
  C   C18       1.0  0.92796  0.75633  0.46000  1.0000
  C   C19       1.0  0.03750  0.11789  0.51777  1.0000
  C   C20       1.0  0.96248  0.88212  0.48224  1.0000
  C   C21       1.0  0.04416  0.13107  0.38323  1.0000
  C   C22       1.0  0.95582  0.86894  0.61677  1.0000
  C   C23       1.0  0.99422  0.98637  0.63372  1.0000
  C   C24       1.0  0.00577  0.01364  0.36628  1.0000
  C   C25       1.0  0.76019  0.32861  0.24925  1.0000
  C   C26       1.0  0.23982  0.67139  0.75076  1.0000
  C   C27       1.0  0.50743  0.20124  0.37354  1.0000
  C   C28       1.0  0.49257  0.79876  0.62645  1.0000
  C   C29       1.0  0.71736  0.14659  0.17516  1.0000
  C   C30       1.0  0.28265  0.85341  0.82483  1.0000
  N   N1        1.0  0.66621  0.22916  0.26533  1.0000
  N   N2        1.0  0.33379  0.77084  0.73466  1.0000
  O   O1        1.0  0.59340  0.69171  0.31561  1.0000
  O   O2        1.0  0.40659  0.30829  0.68440  1.0000
  O   O3        1.0  0.68719  0.46215  0.57354  1.0000
  O   O4        1.0  0.31281  0.53786  0.42646  1.0000
  O   O5        1.0  0.82140  0.73330  0.13537  1.0000
  O   O6        1.0  0.17860  0.26670  0.86463  1.0000
  O   O7        1.0  0.14229  0.62707  0.23576  1.0000
  O   O8        1.0  0.85771  0.37293  0.76424  1.0000
  O   O9        1.0  0.05178  0.48263  0.17122  1.0000
  O   O10       1.0  0.94822  0.51737  0.82878  1.0000
  O   O11       1.0  0.02390  0.37342  0.46854  1.0000
  O   O12       1.0  0.97611  0.62659  0.53146  1.0000
  O   O13       1.0  0.14724  0.21911  0.63052  1.0000
  O   O14       1.0  0.85276  0.78089  0.36948  1.0000
  O   O15       1.0  0.72259  0.39980  0.32699  1.0000
  O   O16       1.0  0.27741  0.60019  0.67300  1.0000
