data_image0
_chemical_formula_structural       Li4H64C40N4
_chemical_formula_sum              "Li4 H64 C40 N4"
_cell_length_a       8.54931
_cell_length_b       8.78083
_cell_length_c       12.7374
_cell_angle_alpha    90.0001
_cell_angle_beta     90
_cell_angle_gamma    90

_space_group_name_H-M_alt    "P 1"
_space_group_IT_number       1

loop_
  _space_group_symop_operation_xyz
  'x, y, z'

loop_
  _atom_site_type_symbol
  _atom_site_label
  _atom_site_symmetry_multiplicity
  _atom_site_fract_x
  _atom_site_fract_y
  _atom_site_fract_z
  _atom_site_occupancy
  Li  Li1       1.0  0.45776  0.64147  0.00032  1.0000
  Li  Li2       1.0  0.04223  0.35852  0.50032  1.0000
  Li  Li3       1.0  0.54224  0.14148  0.49969  1.0000
  Li  Li4       1.0  0.95777  0.85852  0.99968  1.0000
  H   H1        1.0  0.15231  0.72059  0.92048  1.0000
  H   H2        1.0  0.34769  0.27941  0.42048  1.0000
  H   H3        1.0  0.84769  0.22059  0.57952  1.0000
  H   H4        1.0  0.65231  0.77942  0.07952  1.0000
  H   H5        1.0  0.19411  0.43001  0.97737  1.0000
  H   H6        1.0  0.30589  0.56999  0.47737  1.0000
  H   H7        1.0  0.80589  0.93001  0.52263  1.0000
  H   H8        1.0  0.69411  0.06999  0.02263  1.0000
  H   H9        1.0  0.34886  0.42611  0.16221  1.0000
  H   H10       1.0  0.15114  0.57388  0.66221  1.0000
  H   H11       1.0  0.65114  0.92611  0.33779  1.0000
  H   H12       1.0  0.84886  0.07388  0.83779  1.0000
  H   H13       1.0  0.39305  0.71579  0.22332  1.0000
  H   H14       1.0  0.10694  0.28420  0.72332  1.0000
  H   H15       1.0  0.60695  0.21579  0.27668  1.0000
  H   H16       1.0  0.89306  0.78420  0.77668  1.0000
  H   H17       1.0  0.35724  0.14302  0.16325  1.0000
  H   H18       1.0  0.14276  0.85698  0.66325  1.0000
  H   H19       1.0  0.64276  0.64302  0.33675  1.0000
  H   H20       1.0  0.85725  0.35698  0.83675  1.0000
  H   H21       1.0  0.49056  0.99239  0.13937  1.0000
  H   H22       1.0  0.00944  0.00760  0.63938  1.0000
  H   H23       1.0  0.50944  0.49239  0.36063  1.0000
  H   H24       1.0  0.99056  0.50761  0.86063  1.0000
  H   H25       1.0  0.34682  0.97288  0.23847  1.0000
  H   H26       1.0  0.15318  0.02712  0.73847  1.0000
  H   H27       1.0  0.65318  0.47288  0.26153  1.0000
  H   H28       1.0  0.84682  0.52712  0.76153  1.0000
  H   H29       1.0  0.21547  0.97610  0.90924  1.0000
  H   H30       1.0  0.28453  0.02390  0.40924  1.0000
  H   H31       1.0  0.78453  0.47610  0.59076  1.0000
  H   H32       1.0  0.71547  0.52390  0.09076  1.0000
  H   H33       1.0  0.41620  0.97767  0.94676  1.0000
  H   H34       1.0  0.08380  0.02233  0.44676  1.0000
  H   H35       1.0  0.58380  0.47767  0.55324  1.0000
  H   H36       1.0  0.91620  0.52233  0.05324  1.0000
  H   H37       1.0  0.29849  0.14051  0.96862  1.0000
  H   H38       1.0  0.20151  0.85949  0.46862  1.0000
  H   H39       1.0  0.70151  0.64051  0.53138  1.0000
  H   H40       1.0  0.79849  0.35949  0.03138  1.0000
  H   H41       1.0  0.92439  0.16208  0.11444  1.0000
  H   H42       1.0  0.57561  0.83792  0.61444  1.0000
  H   H43       1.0  0.07561  0.66208  0.38556  1.0000
  H   H44       1.0  0.42439  0.33792  0.88556  1.0000
  H   H45       1.0  0.06363  0.19177  0.01391  1.0000
  H   H46       1.0  0.43637  0.80823  0.51391  1.0000
  H   H47       1.0  0.93637  0.69177  0.48609  1.0000
  H   H48       1.0  0.56363  0.30823  0.98609  1.0000
  H   H49       1.0  0.11665  0.22088  0.14818  1.0000
  H   H50       1.0  0.38335  0.77912  0.64817  1.0000
  H   H51       1.0  0.88335  0.72088  0.35182  1.0000
  H   H52       1.0  0.61666  0.27912  0.85182  1.0000
  H   H53       1.0  0.08580  0.98769  0.26977  1.0000
  H   H54       1.0  0.41419  0.01232  0.76977  1.0000
  H   H55       1.0  0.91420  0.48769  0.23023  1.0000
  H   H56       1.0  0.58580  0.51231  0.73023  1.0000
  H   H57       1.0  0.06630  0.80590  0.20834  1.0000
  H   H58       1.0  0.43370  0.19410  0.70834  1.0000
  H   H59       1.0  0.93370  0.30590  0.29166  1.0000
  H   H60       1.0  0.56630  0.69410  0.79166  1.0000
  H   H61       1.0  0.90734  0.93850  0.20765  1.0000
  H   H62       1.0  0.59266  0.06151  0.70765  1.0000
  H   H63       1.0  0.09266  0.43850  0.29235  1.0000
  H   H64       1.0  0.40734  0.56150  0.79235  1.0000
  C   C1        1.0  0.27042  0.77800  0.07406  1.0000
  C   C2        1.0  0.22958  0.22200  0.57407  1.0000
  C   C3        1.0  0.72958  0.27800  0.42594  1.0000
  C   C4        1.0  0.77042  0.72200  0.92594  1.0000
  C   C5        1.0  0.20444  0.68321  0.99436  1.0000
  C   C6        1.0  0.29556  0.31680  0.49437  1.0000
  C   C7        1.0  0.79556  0.18320  0.50564  1.0000
  C   C8        1.0  0.70444  0.81680  0.00563  1.0000
  C   C9        1.0  0.22825  0.52883  0.02340  1.0000
  C   C10       1.0  0.27175  0.47117  0.52340  1.0000
  C   C11       1.0  0.77175  0.02883  0.47660  1.0000
  C   C12       1.0  0.72825  0.97117  0.97660  1.0000
  C   C13       1.0  0.31018  0.52683  0.11977  1.0000
  C   C14       1.0  0.18982  0.47317  0.61977  1.0000
  C   C15       1.0  0.68982  0.02683  0.38023  1.0000
  C   C16       1.0  0.81018  0.97317  0.88023  1.0000
  C   C17       1.0  0.33531  0.68006  0.15136  1.0000
  C   C18       1.0  0.16469  0.31994  0.65136  1.0000
  C   C19       1.0  0.66469  0.18006  0.34864  1.0000
  C   C20       1.0  0.83531  0.81993  0.84864  1.0000
  C   C21       1.0  0.25776  0.95009  0.07749  1.0000
  C   C22       1.0  0.24224  0.04991  0.57749  1.0000
  C   C23       1.0  0.74224  0.45009  0.42251  1.0000
  C   C24       1.0  0.75776  0.54991  0.92251  1.0000
  C   C25       1.0  0.36883  0.01851  0.15977  1.0000
  C   C26       1.0  0.13117  0.98150  0.65977  1.0000
  C   C27       1.0  0.63117  0.51850  0.34023  1.0000
  C   C28       1.0  0.86883  0.48150  0.84023  1.0000
  C   C29       1.0  0.29858  0.01556  0.96916  1.0000
  C   C30       1.0  0.20142  0.98444  0.46916  1.0000
  C   C31       1.0  0.70142  0.51556  0.53084  1.0000
  C   C32       1.0  0.79858  0.48444  0.03084  1.0000
  C   C33       1.0  0.04823  0.14888  0.09395  1.0000
  C   C34       1.0  0.45177  0.85112  0.59395  1.0000
  C   C35       1.0  0.95177  0.64888  0.40605  1.0000
  C   C36       1.0  0.54823  0.35112  0.90605  1.0000
  C   C37       1.0  0.03498  0.92662  0.20221  1.0000
  C   C38       1.0  0.46501  0.07338  0.70221  1.0000
  C   C39       1.0  0.96502  0.42662  0.29779  1.0000
  C   C40       1.0  0.53498  0.57338  0.79779  1.0000
  N   N1        1.0  0.08750  0.98656  0.10039  1.0000
  N   N2        1.0  0.41249  0.01344  0.60039  1.0000
  N   N3        1.0  0.91250  0.48656  0.39961  1.0000
  N   N4        1.0  0.58750  0.51344  0.89961  1.0000
