data_image0
_chemical_formula_structural       Ag2H20C28S4N10O6
_chemical_formula_sum              "Ag2 H20 C28 S4 N10 O6"
_cell_length_a       3.74293
_cell_length_b       7.92269
_cell_length_c       26.1247
_cell_angle_alpha    90
_cell_angle_beta     91.7177
_cell_angle_gamma    90.0004

_space_group_name_H-M_alt    "P 1"
_space_group_IT_number       1

loop_
  _space_group_symop_operation_xyz
  'x, y, z'

loop_
  _atom_site_type_symbol
  _atom_site_label
  _atom_site_symmetry_multiplicity
  _atom_site_fract_x
  _atom_site_fract_y
  _atom_site_fract_z
  _atom_site_occupancy
  Ag  Ag1       1.0  0.74999  0.88736  0.25000  1.0000
  Ag  Ag2       1.0  0.25000  0.11264  0.75000  1.0000
  H   H1        1.0  0.54341  0.41242  0.15224  1.0000
  H   H2        1.0  0.95660  0.41241  0.34776  1.0000
  H   H3        1.0  0.45660  0.58758  0.84775  1.0000
  H   H4        1.0  0.04340  0.58758  0.65224  1.0000
  H   H5        1.0  0.68365  0.63314  0.08153  1.0000
  H   H6        1.0  0.81636  0.63313  0.41847  1.0000
  H   H7        1.0  0.31636  0.36687  0.91847  1.0000
  H   H8        1.0  0.18365  0.36686  0.58153  1.0000
  H   H9        1.0  0.02598  0.21973  0.18708  1.0000
  H   H10       1.0  0.47403  0.21972  0.31292  1.0000
  H   H11       1.0  0.97400  0.78028  0.81292  1.0000
  H   H12       1.0  0.52597  0.78028  0.68708  1.0000
  H   H13       1.0  0.11508  0.70581  0.14706  1.0000
  H   H14       1.0  0.38488  0.70582  0.35294  1.0000
  H   H15       1.0  0.88489  0.29419  0.85293  1.0000
  H   H16       1.0  0.61513  0.29418  0.64706  1.0000
  H   H17       1.0  0.37575  0.90171  0.06705  1.0000
  H   H18       1.0  0.12423  0.90171  0.43295  1.0000
  H   H19       1.0  0.62423  0.09829  0.93295  1.0000
  H   H20       1.0  0.87577  0.09829  0.56705  1.0000
  C   C1        1.0  0.34242  0.24594  0.09117  1.0000
  C   C2        1.0  0.15758  0.24592  0.40883  1.0000
  C   C3        1.0  0.65756  0.75408  0.90882  1.0000
  C   C4        1.0  0.84242  0.75407  0.59117  1.0000
  C   C5        1.0  0.48507  0.39193  0.11161  1.0000
  C   C6        1.0  0.01493  0.39192  0.38839  1.0000
  C   C7        1.0  0.51492  0.60807  0.88839  1.0000
  C   C8        1.0  0.98506  0.60807  0.61161  1.0000
  C   C9        1.0  0.55945  0.51163  0.07320  1.0000
  C   C10       1.0  0.94056  0.51164  0.42679  1.0000
  C   C11       1.0  0.44057  0.48835  0.92679  1.0000
  C   C12       1.0  0.05944  0.48838  0.57321  1.0000
  C   C13       1.0  0.47430  0.45740  0.02395  1.0000
  C   C14       1.0  0.02576  0.45740  0.47606  1.0000
  C   C15       1.0  0.52578  0.54259  0.97605  1.0000
  C   C16       1.0  0.97429  0.54261  0.52395  1.0000
  C   C17       1.0  0.08623  0.10566  0.16573  1.0000
  C   C18       1.0  0.41378  0.10565  0.33427  1.0000
  C   C19       1.0  0.91375  0.89435  0.83427  1.0000
  C   C20       1.0  0.58623  0.89434  0.66573  1.0000
  C   C21       1.0  0.13120  0.84136  0.14254  1.0000
  C   C22       1.0  0.36878  0.84133  0.35746  1.0000
  C   C23       1.0  0.86878  0.15866  0.85746  1.0000
  C   C24       1.0  0.63122  0.15866  0.64254  1.0000
  C   C25       1.0  0.25929  0.93563  0.10309  1.0000
  C   C26       1.0  0.24070  0.93563  0.39691  1.0000
  C   C27       1.0  0.74070  0.06437  0.89690  1.0000
  C   C28       1.0  0.75933  0.06437  0.60309  1.0000
  S   S1        1.0  0.29174  0.25530  0.02507  1.0000
  S   S2        1.0  0.20825  0.25530  0.47493  1.0000
  S   S3        1.0  0.70825  0.74470  0.97493  1.0000
  S   S4        1.0  0.79174  0.74470  0.52507  1.0000
  N   N1        1.0  0.23151  0.10348  0.11822  1.0000
  N   N2        1.0  0.26851  0.10347  0.38178  1.0000
  N   N3        1.0  0.76848  0.89653  0.88178  1.0000
  N   N4        1.0  0.73152  0.89652  0.61823  1.0000
  N   N5        1.0  0.02360  0.94863  0.18096  1.0000
  N   N6        1.0  0.47639  0.94863  0.31904  1.0000
  N   N7        1.0  0.97638  0.05137  0.81904  1.0000
  N   N8        1.0  0.52361  0.05136  0.68096  1.0000
  N   N9        1.0  0.75000  0.48696  0.25000  1.0000
  N   N10       1.0  0.25000  0.51304  0.75000  1.0000
  O   O1        1.0  0.83443  0.56715  0.21008  1.0000
  O   O2        1.0  0.66556  0.56714  0.28992  1.0000
  O   O3        1.0  0.16557  0.43285  0.78992  1.0000
  O   O4        1.0  0.33444  0.43286  0.71008  1.0000
  O   O5        1.0  0.75000  0.32679  0.25000  1.0000
  O   O6        1.0  0.25000  0.67321  0.75000  1.0000
