data_image0
_chemical_formula_structural       Ag4H40C56S8N16Cl4O16
_chemical_formula_sum              "Ag4 H40 C56 S8 N16 Cl4 O16"
_cell_length_a       7.96344
_cell_length_b       13.8953
_cell_length_c       14.9954
_cell_angle_alpha    101.647
_cell_angle_beta     89.9999
_cell_angle_gamma    90.0002

_space_group_name_H-M_alt    "P 1"
_space_group_IT_number       1

loop_
  _space_group_symop_operation_xyz
  'x, y, z'

loop_
  _atom_site_type_symbol
  _atom_site_label
  _atom_site_symmetry_multiplicity
  _atom_site_fract_x
  _atom_site_fract_y
  _atom_site_fract_z
  _atom_site_occupancy
  Ag  Ag1       1.0  0.91439  0.99575  0.76705  1.0000
  Ag  Ag2       1.0  0.41440  0.50425  0.73294  1.0000
  Ag  Ag3       1.0  0.08560  0.00425  0.23294  1.0000
  Ag  Ag4       1.0  0.58561  0.49575  0.26706  1.0000
  H   H1        1.0  0.22053  0.13625  0.84299  1.0000
  H   H2        1.0  0.72054  0.36375  0.65701  1.0000
  H   H3        1.0  0.77946  0.86375  0.15701  1.0000
  H   H4        1.0  0.27947  0.63625  0.34299  1.0000
  H   H5        1.0  0.70473  0.20695  0.86633  1.0000
  H   H6        1.0  0.20473  0.29305  0.63368  1.0000
  H   H7        1.0  0.29526  0.79305  0.13368  1.0000
  H   H8        1.0  0.79527  0.70695  0.36633  1.0000
  H   H9        1.0  0.89361  0.37720  0.93058  1.0000
  H   H10       1.0  0.39361  0.12280  0.56942  1.0000
  H   H11       1.0  0.10638  0.62280  0.06943  1.0000
  H   H12       1.0  0.60639  0.87720  0.43057  1.0000
  H   H13       1.0  0.40234  0.26504  0.80031  1.0000
  H   H14       1.0  0.90234  0.23496  0.69969  1.0000
  H   H15       1.0  0.59765  0.73495  0.19969  1.0000
  H   H16       1.0  0.09766  0.76505  0.30031  1.0000
  H   H17       1.0  0.62920  0.39998  0.86398  1.0000
  H   H18       1.0  0.12920  0.10002  0.63602  1.0000
  H   H19       1.0  0.37079  0.60001  0.13601  1.0000
  H   H20       1.0  0.87080  0.89999  0.36399  1.0000
  H   H21       1.0  0.20531  0.82847  0.73458  1.0000
  H   H22       1.0  0.70532  0.67153  0.76542  1.0000
  H   H23       1.0  0.79469  0.17153  0.26541  1.0000
  H   H24       1.0  0.29469  0.32847  0.23459  1.0000
  H   H25       1.0  0.74840  0.83242  0.59232  1.0000
  H   H26       1.0  0.24841  0.66758  0.90767  1.0000
  H   H27       1.0  0.25159  0.16757  0.40767  1.0000
  H   H28       1.0  0.75160  0.33243  0.09234  1.0000
  H   H29       1.0  0.95092  0.68086  0.49773  1.0000
  H   H30       1.0  0.45091  0.81914  0.00226  1.0000
  H   H31       1.0  0.04909  0.31913  0.50226  1.0000
  H   H32       1.0  0.54909  0.18087  0.99774  1.0000
  H   H33       1.0  0.46089  0.77977  0.63967  1.0000
  H   H34       1.0  0.96089  0.72023  0.86034  1.0000
  H   H35       1.0  0.53912  0.22023  0.36034  1.0000
  H   H36       1.0  0.03911  0.27977  0.13966  1.0000
  H   H37       1.0  0.67503  0.63780  0.57581  1.0000
  H   H38       1.0  0.17504  0.86220  0.92420  1.0000
  H   H39       1.0  0.32497  0.36220  0.42420  1.0000
  H   H40       1.0  0.82498  0.13780  0.07580  1.0000
  C   C1        1.0  0.10377  0.17627  0.85769  1.0000
  C   C2        1.0  0.60378  0.32373  0.64230  1.0000
  C   C3        1.0  0.89621  0.82373  0.14231  1.0000
  C   C4        1.0  0.39623  0.67627  0.35770  1.0000
  C   C5        1.0  0.83925  0.21770  0.87219  1.0000
  C   C6        1.0  0.33926  0.28230  0.62781  1.0000
  C   C7        1.0  0.16074  0.78230  0.12781  1.0000
  C   C8        1.0  0.66074  0.71770  0.37220  1.0000
  C   C9        1.0  0.92988  0.30167  0.90437  1.0000
  C   C10       1.0  0.42988  0.19832  0.59563  1.0000
  C   C11       1.0  0.07011  0.69832  0.09563  1.0000
  C   C12       1.0  0.57012  0.80168  0.40437  1.0000
  C   C13       1.0  0.24085  0.33434  0.91134  1.0000
  C   C14       1.0  0.74085  0.16566  0.58866  1.0000
  C   C15       1.0  0.75914  0.66565  0.08866  1.0000
  C   C16       1.0  0.25915  0.83435  0.41134  1.0000
  C   C17       1.0  0.38614  0.32245  0.86063  1.0000
  C   C18       1.0  0.88614  0.17755  0.63937  1.0000
  C   C19       1.0  0.61385  0.67754  0.13937  1.0000
  C   C20       1.0  0.11386  0.82245  0.36063  1.0000
  C   C21       1.0  0.50762  0.39430  0.89563  1.0000
  C   C22       1.0  0.00763  0.10570  0.60437  1.0000
  C   C23       1.0  0.49236  0.60570  0.10437  1.0000
  C   C24       1.0  0.99237  0.89430  0.39563  1.0000
  C   C25       1.0  0.45528  0.45906  0.97351  1.0000
  C   C26       1.0  0.95529  0.04093  0.52649  1.0000
  C   C27       1.0  0.54470  0.54093  0.02649  1.0000
  C   C28       1.0  0.04471  0.95907  0.47351  1.0000
  C   C29       1.0  0.10544  0.80976  0.68491  1.0000
  C   C30       1.0  0.60546  0.69024  0.81509  1.0000
  C   C31       1.0  0.89455  0.19024  0.31509  1.0000
  C   C32       1.0  0.39455  0.30976  0.18491  1.0000
  C   C33       1.0  0.87201  0.80811  0.60814  1.0000
  C   C34       1.0  0.37202  0.69189  0.89185  1.0000
  C   C35       1.0  0.12799  0.19189  0.39185  1.0000
  C   C36       1.0  0.62799  0.30811  0.10816  1.0000
  C   C37       1.0  0.96938  0.73337  0.56101  1.0000
  C   C38       1.0  0.46938  0.76663  0.93898  1.0000
  C   C39       1.0  0.03063  0.26663  0.43898  1.0000
  C   C40       1.0  0.53063  0.23338  0.06102  1.0000
  C   C41       1.0  0.26092  0.67767  0.58563  1.0000
  C   C42       1.0  0.76092  0.82233  0.91437  1.0000
  C   C43       1.0  0.73909  0.32233  0.41437  1.0000
  C   C44       1.0  0.23909  0.17767  0.08563  1.0000
  C   C45       1.0  0.42517  0.70667  0.60342  1.0000
  C   C46       1.0  0.92518  0.79333  0.89659  1.0000
  C   C47       1.0  0.57483  0.29333  0.39658  1.0000
  C   C48       1.0  0.07483  0.20668  0.10341  1.0000
  C   C49       1.0  0.53937  0.63032  0.56889  1.0000
  C   C50       1.0  0.03938  0.86968  0.93111  1.0000
  C   C51       1.0  0.46064  0.36968  0.43111  1.0000
  C   C52       1.0  0.96064  0.13032  0.06889  1.0000
  C   C53       1.0  0.46196  0.54484  0.52383  1.0000
  C   C54       1.0  0.96197  0.95516  0.97617  1.0000
  C   C55       1.0  0.53804  0.45516  0.47617  1.0000
  C   C56       1.0  0.03805  0.04484  0.02383  1.0000
  S   S1        1.0  0.24452  0.55695  0.52833  1.0000
  S   S2        1.0  0.74453  0.94306  0.97167  1.0000
  S   S3        1.0  0.75549  0.44305  0.47167  1.0000
  S   S4        1.0  0.25549  0.05695  0.02833  1.0000
  S   S5        1.0  0.25284  0.43055  0.00397  1.0000
  S   S6        1.0  0.75285  0.06944  0.49603  1.0000
  S   S7        1.0  0.74715  0.56944  0.99603  1.0000
  S   S8        1.0  0.24715  0.93056  0.50398  1.0000
  N   N1        1.0  0.94915  0.14053  0.84311  1.0000
  N   N2        1.0  0.44915  0.35947  0.65689  1.0000
  N   N3        1.0  0.05084  0.85947  0.15689  1.0000
  N   N4        1.0  0.55085  0.64054  0.34311  1.0000
  N   N5        1.0  0.09777  0.27445  0.89430  1.0000
  N   N6        1.0  0.59777  0.22555  0.60570  1.0000
  N   N7        1.0  0.90222  0.72554  0.10570  1.0000
  N   N8        1.0  0.40223  0.77446  0.39430  1.0000
  N   N9        1.0  0.95825  0.85505  0.68486  1.0000
  N   N10       1.0  0.45827  0.64495  0.81513  1.0000
  N   N11       1.0  0.04174  0.14495  0.31513  1.0000
  N   N12       1.0  0.54174  0.35505  0.18488  1.0000
  N   N13       1.0  0.11759  0.73547  0.61022  1.0000
  N   N14       1.0  0.61760  0.76453  0.88978  1.0000
  N   N15       1.0  0.88241  0.26453  0.38977  1.0000
  N   N16       1.0  0.38241  0.23548  0.11023  1.0000
  Cl  Cl1       1.0  0.45895  0.99834  0.75982  1.0000
  Cl  Cl2       1.0  0.95896  0.50166  0.74018  1.0000
  Cl  Cl3       1.0  0.54104  0.00166  0.24018  1.0000
  Cl  Cl4       1.0  0.04104  0.49834  0.25982  1.0000
  O   O1        1.0  0.30129  0.01899  0.71690  1.0000
  O   O2        1.0  0.80130  0.48101  0.78310  1.0000
  O   O3        1.0  0.69870  0.98101  0.28310  1.0000
  O   O4        1.0  0.19870  0.51899  0.21690  1.0000
  O   O5        1.0  0.50460  0.08393  0.82994  1.0000
  O   O6        1.0  0.00461  0.41607  0.67006  1.0000
  O   O7        1.0  0.49539  0.91607  0.17006  1.0000
  O   O8        1.0  0.99539  0.58393  0.32994  1.0000
  O   O9        1.0  0.59106  0.97870  0.69050  1.0000
  O   O10       1.0  0.09107  0.52130  0.80950  1.0000
  O   O11       1.0  0.40894  0.02130  0.30950  1.0000
  O   O12       1.0  0.90893  0.47870  0.19050  1.0000
  O   O13       1.0  0.43661  0.91273  0.80143  1.0000
  O   O14       1.0  0.93661  0.58727  0.69857  1.0000
  O   O15       1.0  0.56339  0.08727  0.19857  1.0000
  O   O16       1.0  0.06339  0.41273  0.30143  1.0000
