data_image0
_chemical_formula_structural       Ag2H20C32S4N8O4F6
_chemical_formula_sum              "Ag2 H20 C32 S4 N8 O4 F6"
_cell_length_a       8.12277
_cell_length_b       9.57177
_cell_length_c       12.8916
_cell_angle_alpha    71.7357
_cell_angle_beta     82.7438
_cell_angle_gamma    72.1895

_space_group_name_H-M_alt    "P 1"
_space_group_IT_number       1

loop_
  _space_group_symop_operation_xyz
  'x, y, z'

loop_
  _atom_site_type_symbol
  _atom_site_label
  _atom_site_symmetry_multiplicity
  _atom_site_fract_x
  _atom_site_fract_y
  _atom_site_fract_z
  _atom_site_occupancy
  Ag  Ag1       1.0  0.35316  0.58666  0.92601  1.0000
  Ag  Ag2       1.0  0.64683  0.41334  0.07399  1.0000
  H   H1        1.0  0.17723  0.40190  0.15506  1.0000
  H   H2        1.0  0.82277  0.59810  0.84494  1.0000
  H   H3        1.0  0.05564  0.14594  0.97530  1.0000
  H   H4        1.0  0.94436  0.85406  0.02471  1.0000
  H   H5        1.0  0.23030  0.34890  0.83872  1.0000
  H   H6        1.0  0.76970  0.65109  0.16128  1.0000
  H   H7        1.0  0.09711  0.93472  0.18387  1.0000
  H   H8        1.0  0.90288  0.06528  0.81613  1.0000
  H   H9        1.0  0.90585  0.87222  0.36310  1.0000
  H   H10       1.0  0.09414  0.12778  0.63690  1.0000
  H   H11       1.0  0.60425  0.36067  0.43270  1.0000
  H   H12       1.0  0.39575  0.63933  0.56730  1.0000
  H   H13       1.0  0.44992  0.28625  0.62711  1.0000
  H   H14       1.0  0.55009  0.71374  0.37289  1.0000
  H   H15       1.0  0.51270  0.76443  0.70202  1.0000
  H   H16       1.0  0.48730  0.23556  0.29798  1.0000
  H   H17       1.0  0.38834  0.88759  0.99477  1.0000
  H   H18       1.0  0.61166  0.11240  0.00523  1.0000
  H   H19       1.0  0.51057  0.11712  0.83712  1.0000
  H   H20       1.0  0.48943  0.88287  0.16288  1.0000
  C   C1        1.0  0.16806  0.36335  0.08610  1.0000
  C   C2        1.0  0.83194  0.63665  0.91390  1.0000
  C   C3        1.0  0.10907  0.22758  0.99109  1.0000
  C   C4        1.0  0.89094  0.77242  0.00891  1.0000
  C   C5        1.0  0.19236  0.32961  0.92450  1.0000
  C   C6        1.0  0.80764  0.67039  0.07550  1.0000
  C   C7        1.0  0.01617  0.17256  0.18892  1.0000
  C   C8        1.0  0.98383  0.82744  0.81108  1.0000
  C   C9        1.0  0.02022  0.02017  0.22372  1.0000
  C   C10       1.0  0.97978  0.97983  0.77628  1.0000
  C   C11       1.0  0.91999  0.98617  0.32148  1.0000
  C   C12       1.0  0.08001  0.01383  0.67852  1.0000
  C   C13       1.0  0.84191  0.11157  0.36036  1.0000
  C   C14       1.0  0.15810  0.88843  0.63964  1.0000
  C   C15       1.0  0.73517  0.11791  0.45796  1.0000
  C   C16       1.0  0.26483  0.88210  0.54204  1.0000
  C   C17       1.0  0.62614  0.24395  0.48684  1.0000
  C   C18       1.0  0.37386  0.75605  0.51316  1.0000
  C   C19       1.0  0.54107  0.20418  0.59003  1.0000
  C   C20       1.0  0.45894  0.79582  0.40997  1.0000
  C   C21       1.0  0.58593  0.04784  0.63792  1.0000
  C   C22       1.0  0.41407  0.95216  0.36208  1.0000
  C   C23       1.0  0.49388  0.82837  0.76074  1.0000
  C   C24       1.0  0.50613  0.17163  0.23926  1.0000
  C   C25       1.0  0.42978  0.89966  0.90985  1.0000
  C   C26       1.0  0.57022  0.10033  0.09014  1.0000
  C   C27       1.0  0.48678  0.01312  0.83345  1.0000
  C   C28       1.0  0.51322  0.98688  0.16655  1.0000
  C   C29       1.0  0.65766  0.38407  0.77064  1.0000
  C   C30       1.0  0.34234  0.61594  0.22936  1.0000
  C   C31       1.0  0.80979  0.42765  0.69067  1.0000
  C   C32       1.0  0.19021  0.57236  0.30933  1.0000
  S   S1        1.0  0.88991  0.27484  0.27432  1.0000
  S   S2        1.0  0.11009  0.72516  0.72568  1.0000
  S   S3        1.0  0.73325  0.94873  0.55893  1.0000
  S   S4        1.0  0.26676  0.05127  0.44107  1.0000
  N   N1        1.0  0.22754  0.41346  0.98470  1.0000
  N   N2        1.0  0.77246  0.58654  0.01530  1.0000
  N   N3        1.0  0.09553  0.24913  0.09400  1.0000
  N   N4        1.0  0.90447  0.75087  0.90600  1.0000
  N   N5        1.0  0.52653  0.96662  0.73896  1.0000
  N   N6        1.0  0.47348  0.03337  0.26104  1.0000
  N   N7        1.0  0.43571  0.78585  0.86342  1.0000
  N   N8        1.0  0.56429  0.21415  0.13657  1.0000
  O   O1        1.0  0.69730  0.25618  0.84192  1.0000
  O   O2        1.0  0.30269  0.74383  0.15807  1.0000
  O   O3        1.0  0.51430  0.48478  0.75025  1.0000
  O   O4        1.0  0.48570  0.51523  0.24974  1.0000
  F   F1        1.0  0.97115  0.33891  0.72594  1.0000
  F   F2        1.0  0.02885  0.66110  0.27406  1.0000
  F   F3        1.0  0.79723  0.41525  0.58938  1.0000
  F   F4        1.0  0.20277  0.58476  0.41062  1.0000
  F   F5        1.0  0.80920  0.57677  0.67537  1.0000
  F   F6        1.0  0.19081  0.42324  0.32462  1.0000
