data_image0
_chemical_formula_structural       Li2H16C10N2O8
_chemical_formula_sum              "Li2 H16 C10 N2 O8"
_cell_length_a       5.28688
_cell_length_b       7.86937
_cell_length_c       7.95336
_cell_angle_alpha    90.2386
_cell_angle_beta     107.14
_cell_angle_gamma    96.586

_space_group_name_H-M_alt    "P 1"
_space_group_IT_number       1

loop_
  _space_group_symop_operation_xyz
  'x, y, z'

loop_
  _atom_site_type_symbol
  _atom_site_label
  _atom_site_symmetry_multiplicity
  _atom_site_fract_x
  _atom_site_fract_y
  _atom_site_fract_z
  _atom_site_occupancy
  Li  Li1       1.0  0.06327  0.50447  0.75485  1.0000
  Li  Li2       1.0  0.26466  0.02595  0.19990  1.0000
  H   H1        1.0  0.16032  0.64961  0.33021  1.0000
  H   H2        1.0  0.72471  0.62903  0.39652  1.0000
  H   H3        1.0  0.66451  0.15514  0.92689  1.0000
  H   H4        1.0  0.33201  0.10907  0.53666  1.0000
  H   H5        1.0  0.21546  0.16521  0.71344  1.0000
  H   H6        1.0  0.55364  0.64690  0.17339  1.0000
  H   H7        1.0  0.79781  0.10789  0.75629  1.0000
  H   H8        1.0  0.68938  0.86367  0.93894  1.0000
  H   H9        1.0  0.00660  0.69519  0.10946  1.0000
  H   H10       1.0  0.75084  0.41076  0.04935  1.0000
  H   H11       1.0  0.66284  0.32053  0.29745  1.0000
  H   H12       1.0  0.76909  0.77008  0.70132  1.0000
  H   H13       1.0  0.44671  0.67553  0.65134  1.0000
  H   H14       1.0  0.89880  0.19641  0.29040  1.0000
  H   H15       1.0  0.52806  0.85426  0.55091  1.0000
  H   H16       1.0  0.98803  0.36969  0.43007  1.0000
  C   C1        1.0  0.26544  0.86367  0.84626  1.0000
  C   C2        1.0  0.54248  0.90048  0.81950  1.0000
  C   C3        1.0  0.61532  0.09111  0.79666  1.0000
  C   C4        1.0  0.39334  0.17424  0.66785  1.0000
  C   C5        1.0  0.47240  0.36146  0.64053  1.0000
  C   C6        1.0  0.17110  0.37958  0.12182  1.0000
  C   C7        1.0  0.92624  0.43330  0.16640  1.0000
  C   C8        1.0  0.97410  0.62456  0.22160  1.0000
  C   C9        1.0  0.74459  0.68736  0.27468  1.0000
  C   C10       1.0  0.75808  0.88049  0.30122  1.0000
  N   N1        1.0  0.56812  0.79391  0.67157  1.0000
  N   N2        1.0  0.86495  0.32451  0.30623  1.0000
  O   O1        1.0  0.22475  0.94609  0.96917  1.0000
  O   O2        1.0  0.09578  0.75355  0.74058  1.0000
  O   O3        1.0  0.71021  0.41306  0.64883  1.0000
  O   O4        1.0  0.28696  0.46026  0.60774  1.0000
  O   O5        1.0  0.30930  0.27929  0.22643  1.0000
  O   O6        1.0  0.22252  0.44274  0.98874  1.0000
  O   O7        1.0  0.57456  0.93499  0.35390  1.0000
  O   O8        1.0  0.94135  0.97993  0.26629  1.0000
