data_image0
_chemical_formula_structural       Cu4H40C68N8O24
_chemical_formula_sum              "Cu4 H40 C68 N8 O24"
_cell_length_a       9.29716
_cell_length_b       12.467
_cell_length_c       13.2204
_cell_angle_alpha    89.9985
_cell_angle_beta     102.363
_cell_angle_gamma    90.0035

_space_group_name_H-M_alt    "P 1"
_space_group_IT_number       1

loop_
  _space_group_symop_operation_xyz
  'x, y, z'

loop_
  _atom_site_type_symbol
  _atom_site_label
  _atom_site_symmetry_multiplicity
  _atom_site_fract_x
  _atom_site_fract_y
  _atom_site_fract_z
  _atom_site_occupancy
  Cu  Cu1       1.0  0.34714  0.97600  0.54319  1.0000
  Cu  Cu2       1.0  0.65283  0.47599  0.95680  1.0000
  Cu  Cu3       1.0  0.65284  0.02403  0.45681  1.0000
  Cu  Cu4       1.0  0.34721  0.52398  0.04320  1.0000
  H   H1        1.0  0.59874  0.05457  0.83934  1.0000
  H   H2        1.0  0.40124  0.55462  0.66064  1.0000
  H   H3        1.0  0.40130  0.94538  0.16063  1.0000
  H   H4        1.0  0.59879  0.44541  0.33935  1.0000
  H   H5        1.0  0.73962  0.87324  0.12631  1.0000
  H   H6        1.0  0.26037  0.37328  0.37369  1.0000
  H   H7        1.0  0.26036  0.12674  0.87369  1.0000
  H   H8        1.0  0.73963  0.62675  0.62631  1.0000
  H   H9        1.0  0.31563  0.14781  0.69921  1.0000
  H   H10       1.0  0.68439  0.64783  0.80078  1.0000
  H   H11       1.0  0.68436  0.85219  0.30080  1.0000
  H   H12       1.0  0.31561  0.35217  0.19923  1.0000
  H   H13       1.0  0.13234  0.29185  0.70678  1.0000
  H   H14       1.0  0.86771  0.79185  0.79321  1.0000
  H   H15       1.0  0.86766  0.70816  0.29322  1.0000
  H   H16       1.0  0.13229  0.20815  0.20681  1.0000
  H   H17       1.0  0.91086  0.30950  0.55625  1.0000
  H   H18       1.0  0.08917  0.80951  0.94376  1.0000
  H   H19       1.0  0.08915  0.69052  0.44374  1.0000
  H   H20       1.0  0.91083  0.19049  0.05626  1.0000
  H   H21       1.0  0.89238  0.18717  0.40512  1.0000
  H   H22       1.0  0.10760  0.68720  0.09490  1.0000
  H   H23       1.0  0.10763  0.81284  0.59487  1.0000
  H   H24       1.0  0.89239  0.31281  0.90511  1.0000
  H   H25       1.0  0.91505  0.09466  0.27271  1.0000
  H   H26       1.0  0.08490  0.59470  0.22731  1.0000
  H   H27       1.0  0.08491  0.90531  0.72731  1.0000
  H   H28       1.0  0.91505  0.40533  0.77272  1.0000
  H   H29       1.0  0.96002  0.97812  0.13151  1.0000
  H   H30       1.0  0.03994  0.47811  0.36848  1.0000
  H   H31       1.0  0.03995  0.02186  0.86849  1.0000
  H   H32       1.0  0.96003  0.52188  0.63154  1.0000
  H   H33       1.0  0.17557  0.84764  0.16875  1.0000
  H   H34       1.0  0.82445  0.34757  0.33120  1.0000
  H   H35       1.0  0.82445  0.15238  0.83123  1.0000
  H   H36       1.0  0.17556  0.65239  0.66879  1.0000
  H   H37       1.0  0.33697  0.84591  0.34613  1.0000
  H   H38       1.0  0.66306  0.34586  0.15383  1.0000
  H   H39       1.0  0.66307  0.15413  0.65386  1.0000
  H   H40       1.0  0.33698  0.65411  0.84616  1.0000
  C   C1        1.0  0.51145  0.90033  0.85010  1.0000
  C   C2        1.0  0.48855  0.40040  0.64990  1.0000
  C   C3        1.0  0.48857  0.09962  0.14989  1.0000
  C   C4        1.0  0.51146  0.59963  0.35010  1.0000
  C   C5        1.0  0.59949  0.98436  0.88800  1.0000
  C   C6        1.0  0.40051  0.48441  0.61199  1.0000
  C   C7        1.0  0.40056  0.01560  0.11198  1.0000
  C   C8        1.0  0.59951  0.51562  0.38801  1.0000
  C   C9        1.0  0.69098  0.98225  0.99129  1.0000
  C   C10       1.0  0.30902  0.48229  0.50870  1.0000
  C   C11       1.0  0.30906  0.01771  0.00870  1.0000
  C   C12       1.0  0.69101  0.51773  0.49129  1.0000
  C   C13       1.0  0.67816  0.88397  0.04722  1.0000
  C   C14       1.0  0.32183  0.38401  0.45277  1.0000
  C   C15       1.0  0.32184  0.11600  0.95277  1.0000
  C   C16       1.0  0.67818  0.61601  0.54722  1.0000
  C   C17       1.0  0.58601  0.80404  0.00418  1.0000
  C   C18       1.0  0.41403  0.30411  0.49582  1.0000
  C   C19       1.0  0.41400  0.19592  0.99582  1.0000
  C   C20       1.0  0.58598  0.69591  0.50417  1.0000
  C   C21       1.0  0.41283  0.89876  0.74344  1.0000
  C   C22       1.0  0.58713  0.39880  0.75655  1.0000
  C   C23       1.0  0.58715  0.10122  0.25655  1.0000
  C   C24       1.0  0.41286  0.60122  0.24346  1.0000
  C   C25       1.0  0.56569  0.70250  0.06266  1.0000
  C   C26       1.0  0.43434  0.20255  0.43734  1.0000
  C   C27       1.0  0.43428  0.29749  0.93733  1.0000
  C   C28       1.0  0.56565  0.79748  0.56265  1.0000
  C   C29       1.0  0.22087  0.16051  0.63585  1.0000
  C   C30       1.0  0.77915  0.66052  0.86414  1.0000
  C   C31       1.0  0.77912  0.83950  0.36416  1.0000
  C   C32       1.0  0.22086  0.33949  0.13587  1.0000
  C   C33       1.0  0.11682  0.23997  0.63911  1.0000
  C   C34       1.0  0.88320  0.73998  0.86088  1.0000
  C   C35       1.0  0.88318  0.76004  0.36089  1.0000
  C   C36       1.0  0.11679  0.26002  0.13913  1.0000
  C   C37       1.0  0.99648  0.24972  0.55593  1.0000
  C   C38       1.0  0.00353  0.74974  0.94407  1.0000
  C   C39       1.0  0.00352  0.75029  0.44406  1.0000
  C   C40       1.0  0.99647  0.25026  0.05594  1.0000
  C   C41       1.0  0.98665  0.18244  0.47032  1.0000
  C   C42       1.0  0.01335  0.68246  0.02969  1.0000
  C   C43       1.0  0.01336  0.81757  0.52967  1.0000
  C   C44       1.0  0.98665  0.31754  0.97032  1.0000
  C   C45       1.0  0.09765  0.10706  0.47014  1.0000
  C   C46       1.0  0.90234  0.60707  0.02986  1.0000
  C   C47       1.0  0.90234  0.89294  0.52987  1.0000
  C   C48       1.0  0.09765  0.39294  0.97015  1.0000
  C   C49       1.0  0.10622  0.03622  0.38265  1.0000
  C   C50       1.0  0.89377  0.53622  0.11734  1.0000
  C   C51       1.0  0.89377  0.96378  0.61735  1.0000
  C   C52       1.0  0.10623  0.46377  0.88267  1.0000
  C   C53       1.0  0.00858  0.03978  0.28647  1.0000
  C   C54       1.0  0.99139  0.53979  0.21353  1.0000
  C   C55       1.0  0.99140  0.96021  0.71354  1.0000
  C   C56       1.0  0.00858  0.46022  0.78649  1.0000
  C   C57       1.0  0.03353  0.97256  0.20760  1.0000
  C   C58       1.0  0.96645  0.47255  0.29238  1.0000
  C   C59       1.0  0.96645  0.02744  0.79240  1.0000
  C   C60       1.0  0.03352  0.52745  0.70763  1.0000
  C   C61       1.0  0.15182  0.90161  0.22768  1.0000
  C   C62       1.0  0.84820  0.40157  0.27228  1.0000
  C   C63       1.0  0.84819  0.09841  0.77231  1.0000
  C   C64       1.0  0.15180  0.59841  0.72771  1.0000
  C   C65       1.0  0.24380  0.90049  0.32593  1.0000
  C   C66       1.0  0.75622  0.40045  0.17404  1.0000
  C   C67       1.0  0.75623  0.09954  0.67406  1.0000
  C   C68       1.0  0.24380  0.59952  0.82596  1.0000
  N   N1        1.0  0.21028  0.09576  0.55359  1.0000
  N   N2        1.0  0.78972  0.59577  0.94639  1.0000
  N   N3        1.0  0.78970  0.90423  0.44641  1.0000
  N   N4        1.0  0.21028  0.40424  0.05362  1.0000
  N   N5        1.0  0.22152  0.96696  0.40064  1.0000
  N   N6        1.0  0.77847  0.46695  0.09933  1.0000
  N   N7        1.0  0.77848  0.03305  0.59935  1.0000
  N   N8        1.0  0.22155  0.53303  0.90067  1.0000
  O   O1        1.0  0.50320  0.81001  0.90620  1.0000
  O   O2        1.0  0.49681  0.31008  0.59379  1.0000
  O   O3        1.0  0.49681  0.18994  0.09380  1.0000
  O   O4        1.0  0.50319  0.68994  0.40621  1.0000
  O   O5        1.0  0.77208  0.05899  0.02951  1.0000
  O   O6        1.0  0.22789  0.55902  0.47047  1.0000
  O   O7        1.0  0.22797  0.94096  0.97045  1.0000
  O   O8        1.0  0.77212  0.44100  0.52953  1.0000
  O   O9        1.0  0.43308  0.98226  0.68984  1.0000
  O   O10       1.0  0.56686  0.48227  0.81016  1.0000
  O   O11       1.0  0.56687  0.01775  0.31016  1.0000
  O   O12       1.0  0.43312  0.51774  0.18986  1.0000
  O   O13       1.0  0.32376  0.82436  0.71624  1.0000
  O   O14       1.0  0.67621  0.32440  0.78375  1.0000
  O   O15       1.0  0.67623  0.17561  0.28375  1.0000
  O   O16       1.0  0.32379  0.67561  0.21624  1.0000
  O   O17       1.0  0.47589  0.63458  0.00756  1.0000
  O   O18       1.0  0.52418  0.13466  0.49245  1.0000
  O   O19       1.0  0.52406  0.36543  0.99245  1.0000
  O   O20       1.0  0.47578  0.86535  0.50755  1.0000
  O   O21       1.0  0.63606  0.69445  0.15319  1.0000
  O   O22       1.0  0.36395  0.19447  0.34684  1.0000
  O   O23       1.0  0.36391  0.30553  0.84682  1.0000
  O   O24       1.0  0.63607  0.80557  0.65316  1.0000
