data_image0
_chemical_formula_structural       Cu2Hg2H32C28N16Cl8
_chemical_formula_sum              "Cu2 Hg2 H32 C28 N16 Cl8"
_cell_length_a       8.94148
_cell_length_b       8.94148
_cell_length_c       14.3284
_cell_angle_alpha    92.643
_cell_angle_beta     92.6432
_cell_angle_gamma    111.65

_space_group_name_H-M_alt    "P 1"
_space_group_IT_number       1

loop_
  _space_group_symop_operation_xyz
  'x, y, z'

loop_
  _atom_site_type_symbol
  _atom_site_label
  _atom_site_symmetry_multiplicity
  _atom_site_fract_x
  _atom_site_fract_y
  _atom_site_fract_z
  _atom_site_occupancy
  Cu  Cu1       1.0  1.00000  0.50000  1.00000  1.0000
  Cu  Cu2       1.0  0.50000  0.00000  0.50000  1.0000
  Hg  Hg1       1.0  0.20574  0.79426  0.75000  1.0000
  Hg  Hg2       1.0  0.79426  0.20573  0.25000  1.0000
  H   H1        1.0  0.08589  0.20701  0.91093  1.0000
  H   H2        1.0  0.79299  0.91411  0.58907  1.0000
  H   H3        1.0  0.91411  0.79299  0.08907  1.0000
  H   H4        1.0  0.20701  0.08589  0.41093  1.0000
  H   H5        1.0  0.85009  0.95818  0.80933  1.0000
  H   H6        1.0  0.04182  0.14991  0.69067  1.0000
  H   H7        1.0  0.14991  0.04182  0.19067  1.0000
  H   H8        1.0  0.95818  0.85009  0.30933  1.0000
  H   H9        1.0  0.56738  0.99904  0.85087  1.0000
  H   H10       1.0  0.00096  0.43262  0.64913  1.0000
  H   H11       1.0  0.43262  0.00096  0.14913  1.0000
  H   H12       1.0  0.99904  0.56738  0.35087  1.0000
  H   H13       1.0  0.43101  0.39917  0.86753  1.0000
  H   H14       1.0  0.60083  0.56899  0.63247  1.0000
  H   H15       1.0  0.56899  0.60083  0.13247  1.0000
  H   H16       1.0  0.39917  0.43101  0.36753  1.0000
  H   H17       1.0  0.60200  0.70551  0.81571  1.0000
  H   H18       1.0  0.29449  0.39800  0.68429  1.0000
  H   H19       1.0  0.39800  0.29449  0.18429  1.0000
  H   H20       1.0  0.70552  0.60200  0.31571  1.0000
  H   H21       1.0  0.91234  0.77204  0.89425  1.0000
  H   H22       1.0  0.22796  0.08767  0.60575  1.0000
  H   H23       1.0  0.08766  0.22796  0.10575  1.0000
  H   H24       1.0  0.77204  0.91234  0.39425  1.0000
  H   H25       1.0  0.65300  0.29465  0.05107  1.0000
  H   H26       1.0  0.70535  0.34700  0.44893  1.0000
  H   H27       1.0  0.34700  0.70535  0.94893  1.0000
  H   H28       1.0  0.29465  0.65300  0.55107  1.0000
  H   H29       1.0  0.50091  0.19439  0.95637  1.0000
  H   H30       1.0  0.80561  0.49909  0.54363  1.0000
  H   H31       1.0  0.49909  0.80561  0.04363  1.0000
  H   H32       1.0  0.19439  0.50091  0.45637  1.0000
  C   C1        1.0  0.95662  0.17617  0.90803  1.0000
  C   C2        1.0  0.82383  0.04338  0.59197  1.0000
  C   C3        1.0  0.04338  0.82383  0.09197  1.0000
  C   C4        1.0  0.17617  0.95662  0.40803  1.0000
  C   C5        1.0  0.83484  0.04855  0.85662  1.0000
  C   C6        1.0  0.95145  0.16516  0.64338  1.0000
  C   C7        1.0  0.16516  0.95145  0.14338  1.0000
  C   C8        1.0  0.04855  0.83484  0.35662  1.0000
  C   C9        1.0  0.69163  0.06656  0.87595  1.0000
  C   C10       1.0  0.93344  0.30837  0.62405  1.0000
  C   C11       1.0  0.30837  0.93344  0.12405  1.0000
  C   C12       1.0  0.06656  0.69163  0.37594  1.0000
  C   C13       1.0  0.55674  0.47624  0.88257  1.0000
  C   C14       1.0  0.52376  0.44326  0.61743  1.0000
  C   C15       1.0  0.44326  0.52376  0.11743  1.0000
  C   C16       1.0  0.47624  0.55674  0.38257  1.0000
  C   C17       1.0  0.64604  0.63081  0.85797  1.0000
  C   C18       1.0  0.36919  0.35396  0.64203  1.0000
  C   C19       1.0  0.35396  0.36919  0.14203  1.0000
  C   C20       1.0  0.63081  0.64604  0.35797  1.0000
  C   C21       1.0  0.80339  0.66568  0.89697  1.0000
  C   C22       1.0  0.33432  0.19661  0.60303  1.0000
  C   C23       1.0  0.19661  0.33432  0.10303  1.0000
  C   C24       1.0  0.66568  0.80339  0.39697  1.0000
  C   C25       1.0  0.62698  0.27297  0.97487  1.0000
  C   C26       1.0  0.72703  0.37302  0.52513  1.0000
  C   C27       1.0  0.37302  0.72703  0.02513  1.0000
  C   C28       1.0  0.27297  0.62698  0.47487  1.0000
  N   N1        1.0  0.89232  0.26672  0.95692  1.0000
  N   N2        1.0  0.73328  0.10768  0.54308  1.0000
  N   N3        1.0  0.10768  0.73328  0.04308  1.0000
  N   N4        1.0  0.26672  0.89232  0.45693  1.0000
  N   N5        1.0  0.73054  0.19811  0.93658  1.0000
  N   N6        1.0  0.80189  0.26946  0.56342  1.0000
  N   N7        1.0  0.26946  0.80189  0.06342  1.0000
  N   N8        1.0  0.19811  0.73054  0.43658  1.0000
  N   N9        1.0  0.65825  0.42623  0.93410  1.0000
  N   N10       1.0  0.57377  0.34175  0.56590  1.0000
  N   N11       1.0  0.34175  0.57377  0.06590  1.0000
  N   N12       1.0  0.42623  0.65826  0.43410  1.0000
  N   N13       1.0  0.80933  0.54085  0.94364  1.0000
  N   N14       1.0  0.45915  0.19067  0.55636  1.0000
  N   N15       1.0  0.19067  0.45915  0.05636  1.0000
  N   N16       1.0  0.54085  0.80933  0.44364  1.0000
  Cl  Cl1       1.0  0.25001  0.02248  0.86953  1.0000
  Cl  Cl2       1.0  0.97752  0.74999  0.63047  1.0000
  Cl  Cl3       1.0  0.74999  0.97752  0.13047  1.0000
  Cl  Cl4       1.0  0.02248  0.25001  0.36953  1.0000
  Cl  Cl5       1.0  0.15980  0.52663  0.82256  1.0000
  Cl  Cl6       1.0  0.47337  0.84019  0.67744  1.0000
  Cl  Cl7       1.0  0.84019  0.47337  0.17744  1.0000
  Cl  Cl8       1.0  0.52663  0.15980  0.32256  1.0000
