data_image0
_chemical_formula_structural       Zn5H38C46S2N12O20
_chemical_formula_sum              "Zn5 H38 C46 S2 N12 O20"
_cell_length_a       10.5585
_cell_length_b       12.5013
_cell_length_c       14.5686
_cell_angle_alpha    82.6016
_cell_angle_beta     68.9535
_cell_angle_gamma    64.776

_space_group_name_H-M_alt    "P 1"
_space_group_IT_number       1

loop_
  _space_group_symop_operation_xyz
  'x, y, z'

loop_
  _atom_site_type_symbol
  _atom_site_label
  _atom_site_symmetry_multiplicity
  _atom_site_fract_x
  _atom_site_fract_y
  _atom_site_fract_z
  _atom_site_occupancy
  Zn  Zn1       1.0  0.75442  0.55895  0.04411  1.0000
  Zn  Zn2       1.0  0.24557  0.44105  0.95589  1.0000
  Zn  Zn3       1.0  0.78428  0.79702  0.90756  1.0000
  Zn  Zn4       1.0  0.21572  0.20298  0.09244  1.0000
  Zn  Zn5       1.0  0.50000  0.50000  1.00000  1.0000
  H   H1        1.0  0.46525  0.30240  0.99347  1.0000
  H   H2        1.0  0.53475  0.69760  0.00653  1.0000
  H   H3        1.0  0.94859  0.64229  0.99525  1.0000
  H   H4        1.0  0.05141  0.35771  0.00475  1.0000
  H   H5        1.0  0.50241  0.88462  0.92737  1.0000
  H   H6        1.0  0.49759  0.11539  0.07262  1.0000
  H   H7        1.0  0.52414  0.88766  0.03571  1.0000
  H   H8        1.0  0.47586  0.11234  0.96429  1.0000
  H   H9        1.0  0.53441  0.73651  0.67432  1.0000
  H   H10       1.0  0.46559  0.26349  0.32568  1.0000
  H   H11       1.0  0.49484  0.70318  0.85343  1.0000
  H   H12       1.0  0.50516  0.29683  0.14657  1.0000
  H   H13       1.0  0.67219  0.33939  0.81320  1.0000
  H   H14       1.0  0.32782  0.66061  0.18679  1.0000
  H   H15       1.0  0.60222  0.70328  0.39564  1.0000
  H   H16       1.0  0.39777  0.29673  0.60437  1.0000
  H   H17       1.0  0.14405  0.24453  0.88691  1.0000
  H   H18       1.0  0.85594  0.75547  0.11309  1.0000
  H   H19       1.0  0.77843  0.14629  0.94345  1.0000
  H   H20       1.0  0.22157  0.85371  0.05655  1.0000
  H   H21       1.0  0.80011  0.35469  0.17926  1.0000
  H   H22       1.0  0.19989  0.64531  0.82074  1.0000
  H   H23       1.0  0.72035  0.35712  0.63004  1.0000
  H   H24       1.0  0.27966  0.64289  0.36996  1.0000
  H   H25       1.0  0.84806  0.78175  0.53811  1.0000
  H   H26       1.0  0.15196  0.21824  0.46188  1.0000
  H   H27       1.0  0.00609  0.44509  0.67395  1.0000
  H   H28       1.0  0.99391  0.55490  0.32605  1.0000
  H   H29       1.0  0.22807  0.89386  0.80861  1.0000
  H   H30       1.0  0.77193  0.10613  0.19139  1.0000
  H   H31       1.0  0.75520  0.88039  0.70364  1.0000
  H   H32       1.0  0.24481  0.11960  0.29636  1.0000
  H   H33       1.0  0.64481  0.71972  0.21501  1.0000
  H   H34       1.0  0.35518  0.28028  0.78499  1.0000
  H   H35       1.0  0.75438  0.32531  0.35876  1.0000
  H   H36       1.0  0.24562  0.67469  0.64125  1.0000
  H   H37       1.0  0.91328  0.55744  0.83331  1.0000
  H   H38       1.0  0.08672  0.44255  0.16670  1.0000
  C   C1        1.0  0.84027  0.32638  0.96828  1.0000
  C   C2        1.0  0.15973  0.67362  0.03173  1.0000
  C   C3        1.0  0.56571  0.64732  0.70251  1.0000
  C   C4        1.0  0.43429  0.35268  0.29749  1.0000
  C   C5        1.0  0.54478  0.62851  0.80212  1.0000
  C   C6        1.0  0.45522  0.37149  0.19788  1.0000
  C   C7        1.0  0.94914  0.20912  0.91848  1.0000
  C   C8        1.0  0.05086  0.79087  0.08152  1.0000
  C   C9        1.0  0.64501  0.42506  0.77841  1.0000
  C   C10       1.0  0.35500  0.57494  0.22159  1.0000
  C   C11       1.0  0.64605  0.62453  0.34995  1.0000
  C   C12       1.0  0.35395  0.37547  0.65005  1.0000
  C   C13       1.0  0.10220  0.18055  0.88165  1.0000
  C   C14       1.0  0.89781  0.81945  0.11834  1.0000
  C   C15       1.0  0.89717  0.12488  0.91318  1.0000
  C   C16       1.0  0.10283  0.87512  0.08682  1.0000
  C   C17       1.0  0.99763  0.01234  0.87193  1.0000
  C   C18       1.0  0.00236  0.98766  0.12807  1.0000
  C   C19       1.0  0.75499  0.43006  0.22905  1.0000
  C   C20       1.0  0.24500  0.56995  0.77096  1.0000
  C   C21       1.0  0.20222  0.06752  0.84246  1.0000
  C   C22       1.0  0.79777  0.93249  0.15753  1.0000
  C   C23       1.0  0.93361  0.60620  0.59446  1.0000
  C   C24       1.0  0.06641  0.39378  0.40554  1.0000
  C   C25       1.0  0.66947  0.43490  0.67812  1.0000
  C   C26       1.0  0.33053  0.56510  0.32188  1.0000
  C   C27       1.0  0.86410  0.72990  0.60227  1.0000
  C   C28       1.0  0.13591  0.27009  0.39773  1.0000
  C   C29       1.0  0.94485  0.91921  0.86973  1.0000
  C   C30       1.0  0.05515  0.08078  0.13026  1.0000
  C   C31       1.0  0.95140  0.54121  0.67827  1.0000
  C   C32       1.0  0.04861  0.45877  0.32173  1.0000
  C   C33       1.0  0.67760  0.51170  0.39036  1.0000
  C   C34       1.0  0.32240  0.48830  0.60964  1.0000
  C   C35       1.0  0.15096  0.98324  0.83716  1.0000
  C   C36       1.0  0.84904  0.01676  0.16284  1.0000
  C   C37       1.0  0.81324  0.78455  0.69369  1.0000
  C   C38       1.0  0.18676  0.21544  0.30631  1.0000
  C   C39       1.0  0.67095  0.63374  0.24973  1.0000
  C   C40       1.0  0.32905  0.36626  0.75027  1.0000
  C   C41       1.0  0.62666  0.54880  0.63975  1.0000
  C   C42       1.0  0.37334  0.45120  0.36025  1.0000
  C   C43       1.0  0.73030  0.41357  0.32913  1.0000
  C   C44       1.0  0.26969  0.58644  0.67087  1.0000
  C   C45       1.0  0.89994  0.60268  0.76601  1.0000
  C   C46       1.0  0.10007  0.39731  0.23399  1.0000
  S   S1        1.0  0.39825  0.03042  0.80082  1.0000
  S   S2        1.0  0.60175  0.96958  0.19917  1.0000
  N   N1        1.0  0.58326  0.51986  0.83940  1.0000
  N   N2        1.0  0.41674  0.48014  0.16060  1.0000
  N   N3        1.0  0.72666  0.53791  0.19014  1.0000
  N   N4        1.0  0.27334  0.46210  0.80987  1.0000
  N   N5        1.0  0.83223  0.72209  0.77376  1.0000
  N   N6        1.0  0.16777  0.27791  0.22624  1.0000
  N   N7        1.0  0.65762  0.48867  0.49127  1.0000
  N   N8        1.0  0.34238  0.51134  0.50874  1.0000
  N   N9        1.0  0.64550  0.57191  0.53918  1.0000
  N   N10       1.0  0.35450  0.42809  0.46082  1.0000
  N   N11       1.0  0.98486  0.55468  0.49971  1.0000
  N   N12       1.0  0.01515  0.44531  0.50029  1.0000
  O   O1        1.0  0.41706  0.10914  0.85740  1.0000
  O   O2        1.0  0.58294  0.89086  0.14260  1.0000
  O   O3        1.0  0.44443  0.04750  0.69506  1.0000
  O   O4        1.0  0.55557  0.95251  0.30493  1.0000
  O   O5        1.0  0.46495  0.90478  0.82743  1.0000
  O   O6        1.0  0.53506  0.09522  0.17257  1.0000
  O   O7        1.0  0.89390  0.40032  0.97455  1.0000
  O   O8        1.0  0.10610  0.59969  0.02545  1.0000
  O   O9        1.0  0.70439  0.34718  0.00227  1.0000
  O   O10       1.0  0.29561  0.65282  0.99773  1.0000
  O   O11       1.0  0.43650  0.38316  0.96964  1.0000
  O   O12       1.0  0.56350  0.61684  0.03035  1.0000
  O   O13       1.0  0.85900  0.65732  0.97963  1.0000
  O   O14       1.0  0.14100  0.34268  0.02037  1.0000
  O   O15       1.0  0.55925  0.84308  0.97384  1.0000
  O   O16       1.0  0.44075  0.15692  0.02616  1.0000
  O   O17       1.0  0.80224  0.94786  0.90705  1.0000
  O   O18       1.0  0.19776  0.05214  0.09295  1.0000
  O   O19       1.0  0.03702  0.81760  0.83472  1.0000
  O   O20       1.0  0.96298  0.18241  0.16528  1.0000
