data_image0
_chemical_formula_structural       Sm2Cu2H26C30N4O26
_chemical_formula_sum              "Sm2 Cu2 H26 C30 N4 O26"
_cell_length_a       8.10618
_cell_length_b       10.9668
_cell_length_c       11.8032
_cell_angle_alpha    101.055
_cell_angle_beta     106.488
_cell_angle_gamma    102.64

_space_group_name_H-M_alt    "P 1"
_space_group_IT_number       1

loop_
  _space_group_symop_operation_xyz
  'x, y, z'

loop_
  _atom_site_type_symbol
  _atom_site_label
  _atom_site_symmetry_multiplicity
  _atom_site_fract_x
  _atom_site_fract_y
  _atom_site_fract_z
  _atom_site_occupancy
  Sm  Sm1       1.0  0.98608  0.66250  0.42136  1.0000
  Sm  Sm2       1.0  0.01391  0.33750  0.57864  1.0000
  Cu  Cu1       1.0  0.96466  0.76965  0.94415  1.0000
  Cu  Cu2       1.0  0.03533  0.23035  0.05585  1.0000
  H   H1        1.0  0.17333  0.88742  0.64830  1.0000
  H   H2        1.0  0.82667  0.11258  0.35170  1.0000
  H   H3        1.0  0.24560  0.91347  0.54201  1.0000
  H   H4        1.0  0.75441  0.08653  0.45799  1.0000
  H   H5        1.0  0.60471  0.32247  0.34962  1.0000
  H   H6        1.0  0.39528  0.67753  0.65037  1.0000
  H   H7        1.0  0.78318  0.86769  0.44323  1.0000
  H   H8        1.0  0.21682  0.13231  0.55677  1.0000
  H   H9        1.0  0.84955  0.87324  0.33006  1.0000
  H   H10       1.0  0.15045  0.12676  0.66994  1.0000
  H   H11       1.0  0.70247  0.67398  0.52273  1.0000
  H   H12       1.0  0.29753  0.32602  0.47727  1.0000
  H   H13       1.0  0.83935  0.66320  0.64243  1.0000
  H   H14       1.0  0.16064  0.33681  0.35757  1.0000
  H   H15       1.0  0.49096  0.54434  0.19860  1.0000
  H   H16       1.0  0.50904  0.45566  0.80140  1.0000
  H   H17       1.0  0.55197  0.64890  0.03899  1.0000
  H   H18       1.0  0.44804  0.35110  0.96101  1.0000
  H   H19       1.0  0.31396  0.74162  0.92277  1.0000
  H   H20       1.0  0.68605  0.25839  0.07723  1.0000
  H   H21       1.0  0.50168  0.94641  0.28080  1.0000
  H   H22       1.0  0.49832  0.05359  0.71920  1.0000
  H   H23       1.0  0.58174  0.05524  0.12775  1.0000
  H   H24       1.0  0.41826  0.94478  0.87226  1.0000
  H   H25       1.0  0.37165  0.17110  0.02198  1.0000
  H   H26       1.0  0.62834  0.82889  0.97801  1.0000
  C   C1        1.0  0.70681  0.41499  0.36456  1.0000
  C   C2        1.0  0.29319  0.58500  0.63544  1.0000
  C   C3        1.0  0.20203  0.51478  0.26865  1.0000
  C   C4        1.0  0.79797  0.48521  0.73135  1.0000
  C   C5        1.0  0.23373  0.58081  0.17248  1.0000
  C   C6        1.0  0.76627  0.41919  0.82752  1.0000
  C   C7        1.0  0.39348  0.58567  0.14714  1.0000
  C   C8        1.0  0.60652  0.41432  0.85286  1.0000
  C   C9        1.0  0.42740  0.64449  0.05840  1.0000
  C   C10       1.0  0.57261  0.35551  0.94159  1.0000
  C   C11       1.0  0.29979  0.69673  0.99544  1.0000
  C   C12       1.0  0.70021  0.30327  0.00456  1.0000
  C   C13       1.0  0.11298  0.63717  0.10724  1.0000
  C   C14       1.0  0.88702  0.36282  0.89276  1.0000
  C   C15       1.0  0.93524  0.64124  0.12161  1.0000
  C   C16       1.0  0.06476  0.35876  0.87839  1.0000
  C   C17       1.0  0.21666  0.94279  0.35681  1.0000
  C   C18       1.0  0.78335  0.05721  0.64319  1.0000
  C   C19       1.0  0.25565  0.99999  0.25717  1.0000
  C   C20       1.0  0.74435  0.00001  0.74283  1.0000
  C   C21       1.0  0.41374  0.99587  0.23234  1.0000
  C   C22       1.0  0.58626  0.00414  0.76766  1.0000
  C   C23       1.0  0.45790  0.05572  0.14676  1.0000
  C   C24       1.0  0.54209  0.94428  0.85324  1.0000
  C   C25       1.0  0.34437  0.12077  0.08863  1.0000
  C   C26       1.0  0.65562  0.87923  0.91137  1.0000
  C   C27       1.0  0.14466  0.06186  0.19103  1.0000
  C   C28       1.0  0.85534  0.93814  0.80897  1.0000
  C   C29       1.0  0.96495  0.06687  0.19956  1.0000
  C   C30       1.0  0.03505  0.93313  0.80045  1.0000
  N   N1        1.0  0.14851  0.69339  0.02107  1.0000
  N   N2        1.0  0.85149  0.30660  0.97893  1.0000
  N   N3        1.0  0.19207  0.12324  0.11095  1.0000
  N   N4        1.0  0.80792  0.87676  0.88905  1.0000
  O   O1        1.0  0.20773  0.84294  0.58097  1.0000
  O   O2        1.0  0.79227  0.15706  0.41903  1.0000
  O   O3        1.0  0.65950  0.51383  0.34717  1.0000
  O   O4        1.0  0.34050  0.48617  0.65283  1.0000
  O   O5        1.0  0.81194  0.81454  0.37763  1.0000
  O   O6        1.0  0.18806  0.18547  0.62238  1.0000
  O   O7        1.0  0.87294  0.41774  0.39997  1.0000
  O   O8        1.0  0.12706  0.58225  0.60002  1.0000
  O   O9        1.0  0.83006  0.70389  0.57163  1.0000
  O   O10       1.0  0.16994  0.29611  0.42837  1.0000
  O   O11       1.0  0.13529  0.82315  0.32688  1.0000
  O   O12       1.0  0.86470  0.17684  0.67312  1.0000
  O   O13       1.0  0.28009  0.01893  0.46459  1.0000
  O   O14       1.0  0.71991  0.98107  0.53540  1.0000
  O   O15       1.0  0.89539  0.00494  0.26169  1.0000
  O   O16       1.0  0.10461  0.99506  0.73831  1.0000
  O   O17       1.0  0.88796  0.13642  0.13828  1.0000
  O   O18       1.0  0.11204  0.86358  0.86172  1.0000
  O   O19       1.0  0.84458  0.69818  0.05193  1.0000
  O   O20       1.0  0.15542  0.30181  0.94808  1.0000
  O   O21       1.0  0.88032  0.58877  0.19516  1.0000
  O   O22       1.0  0.11967  0.41121  0.80483  1.0000
  O   O23       1.0  0.21672  0.58462  0.37204  1.0000
  O   O24       1.0  0.78329  0.41540  0.62797  1.0000
  O   O25       1.0  0.17216  0.39251  0.24137  1.0000
  O   O26       1.0  0.82784  0.60749  0.75864  1.0000
