data_image0
_chemical_formula_structural       Nd2Cu2H26C30N4O26
_chemical_formula_sum              "Nd2 Cu2 H26 C30 N4 O26"
_cell_length_a       8.09504
_cell_length_b       11.0445
_cell_length_c       11.8545
_cell_angle_alpha    100.881
_cell_angle_beta     106.596
_cell_angle_gamma    102.814

_space_group_name_H-M_alt    "P 1"
_space_group_IT_number       1

loop_
  _space_group_symop_operation_xyz
  'x, y, z'

loop_
  _atom_site_type_symbol
  _atom_site_label
  _atom_site_symmetry_multiplicity
  _atom_site_fract_x
  _atom_site_fract_y
  _atom_site_fract_z
  _atom_site_occupancy
  Nd  Nd1       1.0  0.01525  0.33764  0.07983  1.0000
  Nd  Nd2       1.0  0.98474  0.66236  0.92017  1.0000
  Cu  Cu1       1.0  0.96695  0.77062  0.44442  1.0000
  Cu  Cu2       1.0  0.03306  0.22938  0.55558  1.0000
  H   H1        1.0  0.40112  0.67708  0.14732  1.0000
  H   H2        1.0  0.59889  0.32291  0.85267  1.0000
  H   H3        1.0  0.75391  0.08529  0.95845  1.0000
  H   H4        1.0  0.24609  0.91472  0.04155  1.0000
  H   H5        1.0  0.82420  0.11076  0.85147  1.0000
  H   H6        1.0  0.17580  0.88924  0.14853  1.0000
  H   H7        1.0  0.15431  0.12517  0.16923  1.0000
  H   H8        1.0  0.84569  0.87483  0.83077  1.0000
  H   H9        1.0  0.22030  0.13208  0.05650  1.0000
  H   H10       1.0  0.77970  0.86792  0.94351  1.0000
  H   H11       1.0  0.30260  0.33146  0.97730  1.0000
  H   H12       1.0  0.69740  0.66853  0.02269  1.0000
  H   H13       1.0  0.16333  0.33770  0.85656  1.0000
  H   H14       1.0  0.83667  0.66229  0.14344  1.0000
  H   H15       1.0  0.51131  0.45901  0.30541  1.0000
  H   H16       1.0  0.48868  0.54097  0.69459  1.0000
  H   H17       1.0  0.44815  0.35301  0.46314  1.0000
  H   H18       1.0  0.55185  0.64700  0.53686  1.0000
  H   H19       1.0  0.68371  0.25728  0.57639  1.0000
  H   H20       1.0  0.31628  0.74273  0.42362  1.0000
  H   H21       1.0  0.63078  0.82931  0.47822  1.0000
  H   H22       1.0  0.36924  0.17070  0.52178  1.0000
  H   H23       1.0  0.42033  0.94449  0.37301  1.0000
  H   H24       1.0  0.57969  0.05552  0.62700  1.0000
  H   H25       1.0  0.49993  0.05275  0.22033  1.0000
  H   H26       1.0  0.50007  0.94726  0.77968  1.0000
  C   C1        1.0  0.29866  0.58571  0.13435  1.0000
  C   C2        1.0  0.70134  0.41428  0.86564  1.0000
  C   C3        1.0  0.79882  0.48657  0.23422  1.0000
  C   C4        1.0  0.20118  0.51343  0.76578  1.0000
  C   C5        1.0  0.78510  0.05692  0.14467  1.0000
  C   C6        1.0  0.21491  0.94308  0.85533  1.0000
  C   C7        1.0  0.06466  0.35862  0.38003  1.0000
  C   C8        1.0  0.93534  0.64138  0.61997  1.0000
  C   C9        1.0  0.88672  0.36312  0.39414  1.0000
  C   C10       1.0  0.11328  0.63687  0.60585  1.0000
  C   C11       1.0  0.76714  0.42082  0.33013  1.0000
  C   C12       1.0  0.23286  0.57917  0.66987  1.0000
  C   C13       1.0  0.60769  0.41664  0.35591  1.0000
  C   C14       1.0  0.39231  0.58335  0.64408  1.0000
  C   C15       1.0  0.57273  0.35722  0.44359  1.0000
  C   C16       1.0  0.42726  0.64278  0.55640  1.0000
  C   C17       1.0  0.69899  0.30335  0.50500  1.0000
  C   C18       1.0  0.30101  0.69664  0.49501  1.0000
  C   C19       1.0  0.74636  0.99973  0.24385  1.0000
  C   C20       1.0  0.25364  0.00028  0.75616  1.0000
  C   C21       1.0  0.85744  0.93800  0.30946  1.0000
  C   C22       1.0  0.14256  0.06200  0.69054  1.0000
  C   C23       1.0  0.03695  0.93276  0.30045  1.0000
  C   C24       1.0  0.96305  0.06724  0.69955  1.0000
  C   C25       1.0  0.65813  0.87971  0.41199  1.0000
  C   C26       1.0  0.34188  0.12029  0.58801  1.0000
  C   C27       1.0  0.54452  0.94445  0.35424  1.0000
  C   C28       1.0  0.45549  0.05555  0.64577  1.0000
  C   C29       1.0  0.58826  0.00386  0.26877  1.0000
  C   C30       1.0  0.41174  0.99615  0.73123  1.0000
  N   N1        1.0  0.85000  0.30608  0.47908  1.0000
  N   N2        1.0  0.14999  0.69392  0.52093  1.0000
  N   N3        1.0  0.81023  0.87698  0.38935  1.0000
  N   N4        1.0  0.18979  0.12303  0.61066  1.0000
  O   O1        1.0  0.79022  0.15490  0.91861  1.0000
  O   O2        1.0  0.20979  0.84511  0.08139  1.0000
  O   O3        1.0  0.34642  0.48820  0.15342  1.0000
  O   O4        1.0  0.65357  0.51179  0.84658  1.0000
  O   O5        1.0  0.19233  0.18414  0.12246  1.0000
  O   O6        1.0  0.80767  0.81586  0.87755  1.0000
  O   O7        1.0  0.13222  0.58313  0.09942  1.0000
  O   O8        1.0  0.86778  0.41687  0.90058  1.0000
  O   O9        1.0  0.17479  0.29868  0.92813  1.0000
  O   O10       1.0  0.82520  0.70132  0.07187  1.0000
  O   O11       1.0  0.78289  0.41674  0.13139  1.0000
  O   O12       1.0  0.21711  0.58326  0.86861  1.0000
  O   O13       1.0  0.12127  0.41184  0.30787  1.0000
  O   O14       1.0  0.87872  0.58817  0.69213  1.0000
  O   O15       1.0  0.86570  0.17609  0.17458  1.0000
  O   O16       1.0  0.13431  0.82391  0.82542  1.0000
  O   O17       1.0  0.15394  0.30062  0.44865  1.0000
  O   O18       1.0  0.84605  0.69938  0.55134  1.0000
  O   O19       1.0  0.82943  0.60805  0.26076  1.0000
  O   O20       1.0  0.17055  0.39195  0.73923  1.0000
  O   O21       1.0  0.72169  0.98156  0.03738  1.0000
  O   O22       1.0  0.27831  0.01844  0.96262  1.0000
  O   O23       1.0  0.10620  0.99424  0.23823  1.0000
  O   O24       1.0  0.89379  0.00577  0.76177  1.0000
  O   O25       1.0  0.11406  0.86360  0.36146  1.0000
  O   O26       1.0  0.88595  0.13640  0.63853  1.0000
