data_image0
_chemical_formula_structural       Pr2Cu2H26C30N4O26
_chemical_formula_sum              "Pr2 Cu2 H26 C30 N4 O26"
_cell_length_a       8.1168
_cell_length_b       10.6809
_cell_length_c       12.2712
_cell_angle_alpha    100.334
_cell_angle_beta     105.983
_cell_angle_gamma    102.875

_space_group_name_H-M_alt    "P 1"
_space_group_IT_number       1

loop_
  _space_group_symop_operation_xyz
  'x, y, z'

loop_
  _atom_site_type_symbol
  _atom_site_label
  _atom_site_symmetry_multiplicity
  _atom_site_fract_x
  _atom_site_fract_y
  _atom_site_fract_z
  _atom_site_occupancy
  Pr  Pr1       1.0  0.99234  0.66671  0.42086  1.0000
  Pr  Pr2       1.0  0.00766  0.33329  0.57914  1.0000
  Cu  Cu1       1.0  0.03299  0.23147  0.04704  1.0000
  Cu  Cu2       1.0  0.96701  0.76853  0.95296  1.0000
  H   H1        1.0  0.58649  0.32530  0.35420  1.0000
  H   H2        1.0  0.41351  0.67471  0.64582  1.0000
  H   H3        1.0  0.78429  0.79735  0.56410  1.0000
  H   H4        1.0  0.21572  0.20264  0.43589  1.0000
  H   H5        1.0  0.82574  0.68556  0.63357  1.0000
  H   H6        1.0  0.17427  0.31443  0.36643  1.0000
  H   H7        1.0  0.16115  0.90678  0.63913  1.0000
  H   H8        1.0  0.83885  0.09322  0.36087  1.0000
  H   H9        1.0  0.22242  0.94787  0.53359  1.0000
  H   H10       1.0  0.77758  0.05213  0.46640  1.0000
  H   H11       1.0  0.67147  0.73585  0.28640  1.0000
  H   H12       1.0  0.32853  0.26415  0.71361  1.0000
  H   H13       1.0  0.82659  0.85962  0.29318  1.0000
  H   H14       1.0  0.17341  0.14038  0.70682  1.0000
  H   H15       1.0  0.48152  0.52494  0.18953  1.0000
  H   H16       1.0  0.51848  0.47507  0.81048  1.0000
  H   H17       1.0  0.54612  0.63718  0.03748  1.0000
  H   H18       1.0  0.45389  0.36282  0.96253  1.0000
  H   H19       1.0  0.31314  0.73779  0.93003  1.0000
  H   H20       1.0  0.68687  0.26221  0.06997  1.0000
  H   H21       1.0  0.37282  0.17206  0.01707  1.0000
  H   H22       1.0  0.62718  0.82793  0.98293  1.0000
  H   H23       1.0  0.58724  0.06296  0.12890  1.0000
  H   H24       1.0  0.41277  0.93704  0.87110  1.0000
  H   H25       1.0  0.50565  0.95722  0.28007  1.0000
  H   H26       1.0  0.49435  0.04278  0.71993  1.0000
  C   C1        1.0  0.69628  0.41487  0.36616  1.0000
  C   C2        1.0  0.30371  0.58513  0.63384  1.0000
  C   C3        1.0  0.20049  0.50043  0.26456  1.0000
  C   C4        1.0  0.79952  0.49957  0.73544  1.0000
  C   C5        1.0  0.23131  0.57051  0.17167  1.0000
  C   C6        1.0  0.76869  0.42948  0.82832  1.0000
  C   C7        1.0  0.38795  0.57240  0.14336  1.0000
  C   C8        1.0  0.61205  0.42760  0.85664  1.0000
  C   C9        1.0  0.42356  0.63456  0.05859  1.0000
  C   C10       1.0  0.57644  0.36544  0.94142  1.0000
  C   C11       1.0  0.29867  0.69124  0.00011  1.0000
  C   C12       1.0  0.70133  0.30876  0.99990  1.0000
  C   C13       1.0  0.11313  0.63089  0.11015  1.0000
  C   C14       1.0  0.88687  0.36911  0.88985  1.0000
  C   C15       1.0  0.93562  0.63534  0.12418  1.0000
  C   C16       1.0  0.06439  0.36466  0.87581  1.0000
  C   C17       1.0  0.95726  0.06255  0.18397  1.0000
  C   C18       1.0  0.04273  0.93744  0.81603  1.0000
  C   C19       1.0  0.13969  0.06038  0.17847  1.0000
  C   C20       1.0  0.86031  0.93962  0.82153  1.0000
  C   C21       1.0  0.34447  0.12219  0.08260  1.0000
  C   C22       1.0  0.65553  0.87781  0.91741  1.0000
  C   C23       1.0  0.46067  0.06105  0.14417  1.0000
  C   C24       1.0  0.53934  0.93896  0.85583  1.0000
  C   C25       1.0  0.41482  0.00179  0.22787  1.0000
  C   C26       1.0  0.58519  0.99822  0.77214  1.0000
  C   C27       1.0  0.25250  0.00225  0.24707  1.0000
  C   C28       1.0  0.74750  0.99775  0.75293  1.0000
  C   C29       1.0  0.21152  0.95100  0.34623  1.0000
  C   C30       1.0  0.78848  0.04900  0.65377  1.0000
  N   N1        1.0  0.14880  0.68863  0.02640  1.0000
  N   N2        1.0  0.85120  0.31137  0.97360  1.0000
  N   N3        1.0  0.18899  0.12170  0.10026  1.0000
  N   N4        1.0  0.81100  0.87829  0.89974  1.0000
  O   O1        1.0  0.14745  0.82674  0.32757  1.0000
  O   O2        1.0  0.85255  0.17326  0.67243  1.0000
  O   O3        1.0  0.83958  0.72384  0.56741  1.0000
  O   O4        1.0  0.16042  0.27616  0.43258  1.0000
  O   O5        1.0  0.19478  0.87247  0.57079  1.0000
  O   O6        1.0  0.80522  0.12753  0.42921  1.0000
  O   O7        1.0  0.87924  0.58071  0.19431  1.0000
  O   O8        1.0  0.12076  0.41928  0.80568  1.0000
  O   O9        1.0  0.78513  0.79798  0.33794  1.0000
  O   O10       1.0  0.21487  0.20201  0.66205  1.0000
  O   O11       1.0  0.20852  0.56942  0.36221  1.0000
  O   O12       1.0  0.79149  0.43058  0.63779  1.0000
  O   O13       1.0  0.66020  0.51590  0.33896  1.0000
  O   O14       1.0  0.33979  0.48410  0.66105  1.0000
  O   O15       1.0  0.85847  0.41167  0.40802  1.0000
  O   O16       1.0  0.14153  0.58833  0.59197  1.0000
  O   O17       1.0  0.17863  0.37621  0.23882  1.0000
  O   O18       1.0  0.82137  0.62378  0.76118  1.0000
  O   O19       1.0  0.84640  0.69488  0.05704  1.0000
  O   O20       1.0  0.15360  0.30512  0.94295  1.0000
  O   O21       1.0  0.88044  0.13212  0.12287  1.0000
  O   O22       1.0  0.11956  0.86788  0.87713  1.0000
  O   O23       1.0  0.88620  0.99792  0.24337  1.0000
  O   O24       1.0  0.11379  0.00207  0.75662  1.0000
  O   O25       1.0  0.25347  0.03842  0.44155  1.0000
  O   O26       1.0  0.74653  0.96158  0.55845  1.0000
