data_image0
_chemical_formula_structural       La2Cu2H26C30N4O26
_chemical_formula_sum              "La2 Cu2 H26 C30 N4 O26"
_cell_length_a       8.13133
_cell_length_b       10.9499
_cell_length_c       12.1167
_cell_angle_alpha    101.063
_cell_angle_beta     106.488
_cell_angle_gamma    103.215

_space_group_name_H-M_alt    "P 1"
_space_group_IT_number       1

loop_
  _space_group_symop_operation_xyz
  'x, y, z'

loop_
  _atom_site_type_symbol
  _atom_site_label
  _atom_site_symmetry_multiplicity
  _atom_site_fract_x
  _atom_site_fract_y
  _atom_site_fract_z
  _atom_site_occupancy
  La  La1       1.0  0.98095  0.16229  0.91852  1.0000
  La  La2       1.0  0.01905  0.83771  0.08148  1.0000
  Cu  Cu1       1.0  0.97420  0.26760  0.44896  1.0000
  Cu  Cu2       1.0  0.02581  0.73240  0.55104  1.0000
  H   H1        1.0  0.76460  0.27617  0.07349  1.0000
  H   H2        1.0  0.23539  0.72383  0.92650  1.0000
  H   H3        1.0  0.83058  0.17441  0.14281  1.0000
  H   H4        1.0  0.16942  0.82559  0.85719  1.0000
  H   H5        1.0  0.23959  0.43151  0.03821  1.0000
  H   H6        1.0  0.76040  0.56848  0.96179  1.0000
  H   H7        1.0  0.18093  0.40079  0.14698  1.0000
  H   H8        1.0  0.81907  0.59922  0.85301  1.0000
  H   H9        1.0  0.77672  0.37210  0.92846  1.0000
  H   H10       1.0  0.22327  0.62790  0.07154  1.0000
  H   H11       1.0  0.83680  0.37319  0.81539  1.0000
  H   H12       1.0  0.16319  0.62681  0.18461  1.0000
  H   H13       1.0  0.59233  0.81692  0.85704  1.0000
  H   H14       1.0  0.40768  0.18307  0.14297  1.0000
  H   H15       1.0  0.36347  0.67579  0.52061  1.0000
  H   H16       1.0  0.63653  0.32421  0.47939  1.0000
  H   H17       1.0  0.57289  0.56180  0.62604  1.0000
  H   H18       1.0  0.42711  0.43820  0.37396  1.0000
  H   H19       1.0  0.48907  0.45212  0.77387  1.0000
  H   H20       1.0  0.51093  0.54788  0.22613  1.0000
  H   H21       1.0  0.32318  0.23866  0.43153  1.0000
  H   H22       1.0  0.67682  0.76134  0.56847  1.0000
  H   H23       1.0  0.55586  0.14423  0.54537  1.0000
  H   H24       1.0  0.44414  0.85577  0.45463  1.0000
  H   H25       1.0  0.48711  0.03634  0.69788  1.0000
  H   H26       1.0  0.51289  0.96366  0.30212  1.0000
  C   C1        1.0  0.20650  0.45290  0.84876  1.0000
  C   C2        1.0  0.79349  0.54709  0.15124  1.0000
  C   C3        1.0  0.24311  0.50443  0.74843  1.0000
  C   C4        1.0  0.75689  0.49557  0.25157  1.0000
  C   C5        1.0  0.13174  0.56405  0.68214  1.0000
  C   C6        1.0  0.86826  0.43595  0.31786  1.0000
  C   C7        1.0  0.69706  0.90671  0.86582  1.0000
  C   C8        1.0  0.30294  0.09328  0.13418  1.0000
  C   C9        1.0  0.33454  0.62478  0.58486  1.0000
  C   C10       1.0  0.66547  0.37523  0.41514  1.0000
  C   C11       1.0  0.95060  0.56697  0.68863  1.0000
  C   C12       1.0  0.04940  0.43303  0.31137  1.0000
  C   C13       1.0  0.44780  0.56094  0.64279  1.0000
  C   C14       1.0  0.55220  0.43906  0.35721  1.0000
  C   C15       1.0  0.40179  0.50079  0.72553  1.0000
  C   C16       1.0  0.59821  0.49921  0.27446  1.0000
  C   C17       1.0  0.93776  0.13841  0.62017  1.0000
  C   C18       1.0  0.06224  0.86158  0.37983  1.0000
  C   C19       1.0  0.11564  0.13347  0.60826  1.0000
  C   C20       1.0  0.88436  0.86654  0.39175  1.0000
  C   C21       1.0  0.19957  0.00833  0.76511  1.0000
  C   C22       1.0  0.80043  0.99167  0.23489  1.0000
  C   C23       1.0  0.30622  0.19328  0.50159  1.0000
  C   C24       1.0  0.69379  0.80672  0.49841  1.0000
  C   C25       1.0  0.43078  0.13976  0.56317  1.0000
  C   C26       1.0  0.56922  0.86024  0.43683  1.0000
  C   C27       1.0  0.39292  0.07963  0.64805  1.0000
  C   C28       1.0  0.60709  0.92037  0.35196  1.0000
  C   C29       1.0  0.23294  0.07542  0.67191  1.0000
  C   C30       1.0  0.76706  0.92458  0.32809  1.0000
  N   N1        1.0  0.18067  0.62508  0.60423  1.0000
  N   N2        1.0  0.81933  0.37492  0.39577  1.0000
  N   N3        1.0  0.15435  0.19015  0.52507  1.0000
  N   N4        1.0  0.84565  0.80985  0.47493  1.0000
  O   O1        1.0  0.86241  0.90833  0.90385  1.0000
  O   O2        1.0  0.13760  0.09167  0.09616  1.0000
  O   O3        1.0  0.84087  0.21868  0.07850  1.0000
  O   O4        1.0  0.15913  0.78132  0.92150  1.0000
  O   O5        1.0  0.21171  0.36151  0.07767  1.0000
  O   O6        1.0  0.78829  0.63849  0.92232  1.0000
  O   O7        1.0  0.65275  0.00284  0.83936  1.0000
  O   O8        1.0  0.34725  0.99716  0.16064  1.0000
  O   O9        1.0  0.87901  0.08581  0.69038  1.0000
  O   O10       1.0  0.12099  0.91419  0.30962  1.0000
  O   O11       1.0  0.79756  0.31614  0.86284  1.0000
  O   O12       1.0  0.20243  0.68386  0.13716  1.0000
  O   O13       1.0  0.20972  0.07847  0.86447  1.0000
  O   O14       1.0  0.79028  0.92153  0.13553  1.0000
  O   O15       1.0  0.13956  0.33179  0.82808  1.0000
  O   O16       1.0  0.86044  0.66820  0.17192  1.0000
  O   O17       1.0  0.25970  0.53860  0.94927  1.0000
  O   O18       1.0  0.74030  0.46140  0.05073  1.0000
  O   O19       1.0  0.88014  0.50314  0.74798  1.0000
  O   O20       1.0  0.11986  0.49686  0.25202  1.0000
  O   O21       1.0  0.87438  0.63562  0.62822  1.0000
  O   O22       1.0  0.12562  0.36438  0.37178  1.0000
  O   O23       1.0  0.85088  0.19689  0.55229  1.0000
  O   O24       1.0  0.14912  0.80311  0.44772  1.0000
  O   O25       1.0  0.17361  0.88601  0.73962  1.0000
  O   O26       1.0  0.82638  0.11399  0.26038  1.0000
