data_image0
_chemical_formula_structural       Gd2Cu2H26C30N4O26
_chemical_formula_sum              "Gd2 Cu2 H26 C30 N4 O26"
_cell_length_a       8.12402
_cell_length_b       10.5373
_cell_length_c       12.1376
_cell_angle_alpha    100.385
_cell_angle_beta     105.707
_cell_angle_gamma    102.512

_space_group_name_H-M_alt    "P 1"
_space_group_IT_number       1

loop_
  _space_group_symop_operation_xyz
  'x, y, z'

loop_
  _atom_site_type_symbol
  _atom_site_label
  _atom_site_symmetry_multiplicity
  _atom_site_fract_x
  _atom_site_fract_y
  _atom_site_fract_z
  _atom_site_occupancy
  Gd  Gd1       1.0  0.99529  0.16498  0.92201  1.0000
  Gd  Gd2       1.0  0.00471  0.83502  0.07799  1.0000
  Cu  Cu1       1.0  0.03228  0.73189  0.54688  1.0000
  Cu  Cu2       1.0  0.96772  0.26811  0.45312  1.0000
  H   H1        1.0  0.78961  0.29625  0.05827  1.0000
  H   H2        1.0  0.21039  0.70375  0.94173  1.0000
  H   H3        1.0  0.83324  0.18547  0.13125  1.0000
  H   H4        1.0  0.16676  0.81452  0.86875  1.0000
  H   H5        1.0  0.59983  0.82902  0.86016  1.0000
  H   H6        1.0  0.40016  0.17098  0.13984  1.0000
  H   H7        1.0  0.22770  0.43798  0.03399  1.0000
  H   H8        1.0  0.77230  0.56203  0.96601  1.0000
  H   H9        1.0  0.16183  0.39333  0.13749  1.0000
  H   H10       1.0  0.83817  0.60667  0.86251  1.0000
  H   H11       1.0  0.83699  0.36011  0.80132  1.0000
  H   H12       1.0  0.16301  0.63989  0.19868  1.0000
  H   H13       1.0  0.68468  0.23552  0.79911  1.0000
  H   H14       1.0  0.31532  0.76447  0.20089  1.0000
  H   H15       1.0  0.48633  0.02784  0.69688  1.0000
  H   H16       1.0  0.51367  0.97216  0.30312  1.0000
  H   H17       1.0  0.54987  0.13884  0.54143  1.0000
  H   H18       1.0  0.45014  0.86116  0.45857  1.0000
  H   H19       1.0  0.31444  0.23647  0.42935  1.0000
  H   H20       1.0  0.68556  0.76353  0.57065  1.0000
  H   H21       1.0  0.50625  0.45587  0.78318  1.0000
  H   H22       1.0  0.49376  0.54413  0.21682  1.0000
  H   H23       1.0  0.58769  0.56341  0.63041  1.0000
  H   H24       1.0  0.41231  0.43658  0.36959  1.0000
  H   H25       1.0  0.37172  0.67224  0.51650  1.0000
  H   H26       1.0  0.62828  0.32775  0.48349  1.0000
  C   C1        1.0  0.70795  0.91917  0.87040  1.0000
  C   C2        1.0  0.29204  0.08083  0.12960  1.0000
  C   C3        1.0  0.20208  0.00191  0.77034  1.0000
  C   C4        1.0  0.79792  0.99809  0.22966  1.0000
  C   C5        1.0  0.23459  0.07211  0.67654  1.0000
  C   C6        1.0  0.76540  0.92789  0.32346  1.0000
  C   C7        1.0  0.39184  0.07434  0.64879  1.0000
  C   C8        1.0  0.60816  0.92566  0.35121  1.0000
  C   C9        1.0  0.42665  0.13568  0.56197  1.0000
  C   C10       1.0  0.57336  0.86432  0.43803  1.0000
  C   C11       1.0  0.30043  0.19079  0.50108  1.0000
  C   C12       1.0  0.69958  0.80921  0.49893  1.0000
  C   C13       1.0  0.11534  0.13123  0.61293  1.0000
  C   C14       1.0  0.88466  0.86877  0.38707  1.0000
  C   C15       1.0  0.93792  0.13475  0.62730  1.0000
  C   C16       1.0  0.06208  0.86526  0.37270  1.0000
  C   C17       1.0  0.21203  0.44747  0.84919  1.0000
  C   C18       1.0  0.78797  0.55254  0.15081  1.0000
  C   C19       1.0  0.25235  0.50007  0.74906  1.0000
  C   C20       1.0  0.74765  0.49993  0.25094  1.0000
  C   C21       1.0  0.41515  0.50056  0.73007  1.0000
  C   C22       1.0  0.58485  0.49944  0.26994  1.0000
  C   C23       1.0  0.46074  0.56069  0.64544  1.0000
  C   C24       1.0  0.53926  0.43931  0.35456  1.0000
  C   C25       1.0  0.34383  0.62190  0.58295  1.0000
  C   C26       1.0  0.65617  0.37809  0.41705  1.0000
  C   C27       1.0  0.13925  0.55887  0.67996  1.0000
  C   C28       1.0  0.86075  0.44114  0.32004  1.0000
  C   C29       1.0  0.95750  0.56196  0.68616  1.0000
  C   C30       1.0  0.04250  0.43804  0.31384  1.0000
  N   N1        1.0  0.14998  0.18782  0.52712  1.0000
  N   N2        1.0  0.85002  0.81218  0.47288  1.0000
  N   N3        1.0  0.18839  0.62106  0.60090  1.0000
  N   N4        1.0  0.81161  0.37894  0.39910  1.0000
  O   O1        1.0  0.67167  0.02236  0.84471  1.0000
  O   O2        1.0  0.32832  0.97764  0.15528  1.0000
  O   O3        1.0  0.85237  0.22636  0.06624  1.0000
  O   O4        1.0  0.14763  0.77364  0.93376  1.0000
  O   O5        1.0  0.87003  0.91542  0.90922  1.0000
  O   O6        1.0  0.12996  0.08458  0.09078  1.0000
  O   O7        1.0  0.19830  0.35974  0.06933  1.0000
  O   O8        1.0  0.80169  0.64026  0.93067  1.0000
  O   O9        1.0  0.80032  0.29692  0.84730  1.0000
  O   O10       1.0  0.19968  0.70307  0.15270  1.0000
  O   O11       1.0  0.88385  0.08084  0.69969  1.0000
  O   O12       1.0  0.11615  0.91916  0.30030  1.0000
  O   O13       1.0  0.84661  0.19253  0.55795  1.0000
  O   O14       1.0  0.15339  0.80747  0.44205  1.0000
  O   O15       1.0  0.20719  0.07168  0.86846  1.0000
  O   O16       1.0  0.79281  0.92832  0.13154  1.0000
  O   O17       1.0  0.18101  0.87629  0.74459  1.0000
  O   O18       1.0  0.81899  0.12371  0.25541  1.0000
  O   O19       1.0  0.88651  0.49768  0.74682  1.0000
  O   O20       1.0  0.11350  0.50233  0.25319  1.0000
  O   O21       1.0  0.88098  0.63273  0.62443  1.0000
  O   O22       1.0  0.11902  0.36728  0.37556  1.0000
  O   O23       1.0  0.25906  0.53505  0.94653  1.0000
  O   O24       1.0  0.74095  0.46495  0.05348  1.0000
  O   O25       1.0  0.14404  0.32225  0.82939  1.0000
  O   O26       1.0  0.85595  0.67775  0.17061  1.0000
