data_image0
_chemical_formula_structural       Cu2Hg2H22C30N6Cl8
_chemical_formula_sum              "Cu2 Hg2 H22 C30 N6 Cl8"
_cell_length_a       7.27247
_cell_length_b       9.0825
_cell_length_c       13.312
_cell_angle_alpha    84.2936
_cell_angle_beta     82.8212
_cell_angle_gamma    86.2562

_space_group_name_H-M_alt    "P 1"
_space_group_IT_number       1

loop_
  _space_group_symop_operation_xyz
  'x, y, z'

loop_
  _atom_site_type_symbol
  _atom_site_label
  _atom_site_symmetry_multiplicity
  _atom_site_fract_x
  _atom_site_fract_y
  _atom_site_fract_z
  _atom_site_occupancy
  Cu  Cu1       1.0  0.61087  0.23541  0.20814  1.0000
  Cu  Cu2       1.0  0.38913  0.76459  0.79185  1.0000
  Hg  Hg1       1.0  0.06256  0.11104  0.33119  1.0000
  Hg  Hg2       1.0  0.93744  0.88896  0.66881  1.0000
  H   H1        1.0  0.48947  0.07486  0.41755  1.0000
  H   H2        1.0  0.51054  0.92514  0.58245  1.0000
  H   H3        1.0  0.29308  0.14861  0.57630  1.0000
  H   H4        1.0  0.70692  0.85138  0.42369  1.0000
  H   H5        1.0  0.18042  0.41655  0.58303  1.0000
  H   H6        1.0  0.81957  0.58344  0.41697  1.0000
  H   H7        1.0  0.27237  0.59764  0.43587  1.0000
  H   H8        1.0  0.72762  0.40236  0.56413  1.0000
  H   H9        1.0  0.40156  0.74648  0.30212  1.0000
  H   H10       1.0  0.59844  0.25352  0.69788  1.0000
  H   H11       1.0  0.52797  0.87192  0.13695  1.0000
  H   H12       1.0  0.47203  0.12808  0.86305  1.0000
  H   H13       1.0  0.69403  0.72418  0.00070  1.0000
  H   H14       1.0  0.30598  0.27583  0.99930  1.0000
  H   H15       1.0  0.83295  0.56323  0.89471  1.0000
  H   H16       1.0  0.16705  0.43677  0.10529  1.0000
  H   H17       1.0  0.97705  0.36428  0.79086  1.0000
  H   H18       1.0  0.02296  0.63573  0.20914  1.0000
  H   H19       1.0  0.96031  0.09814  0.86398  1.0000
  H   H20       1.0  0.03969  0.90187  0.13602  1.0000
  H   H21       1.0  0.80628  0.04447  0.04261  1.0000
  H   H22       1.0  0.19372  0.95553  0.95739  1.0000
  C   C1        1.0  0.43928  0.18908  0.42589  1.0000
  C   C2        1.0  0.56071  0.81092  0.57410  1.0000
  C   C3        1.0  0.33059  0.23133  0.51331  1.0000
  C   C4        1.0  0.66941  0.76866  0.48668  1.0000
  C   C5        1.0  0.26875  0.37929  0.51704  1.0000
  C   C6        1.0  0.73125  0.62070  0.48296  1.0000
  C   C7        1.0  0.31981  0.48141  0.43465  1.0000
  C   C8        1.0  0.68019  0.51858  0.56535  1.0000
  C   C9        1.0  0.42947  0.43202  0.34976  1.0000
  C   C10       1.0  0.57053  0.56798  0.65024  1.0000
  C   C11       1.0  0.49261  0.52701  0.25765  1.0000
  C   C12       1.0  0.50739  0.47299  0.74235  1.0000
  C   C13       1.0  0.47326  0.68147  0.24301  1.0000
  C   C14       1.0  0.52674  0.31853  0.75699  1.0000
  C   C15       1.0  0.54591  0.75169  0.14974  1.0000
  C   C16       1.0  0.45410  0.24831  0.85027  1.0000
  C   C17       1.0  0.63860  0.66925  0.07391  1.0000
  C   C18       1.0  0.36140  0.33075  0.92609  1.0000
  C   C19       1.0  0.65396  0.51507  0.09331  1.0000
  C   C20       1.0  0.34605  0.48493  0.90669  1.0000
  C   C21       1.0  0.74614  0.40871  0.02434  1.0000
  C   C22       1.0  0.25387  0.59129  0.97566  1.0000
  C   C23       1.0  0.83114  0.44759  0.92613  1.0000
  C   C24       1.0  0.16887  0.55241  0.07388  1.0000
  C   C25       1.0  0.91123  0.33556  0.86785  1.0000
  C   C26       1.0  0.08877  0.66444  0.13215  1.0000
  C   C27       1.0  0.90277  0.18829  0.90829  1.0000
  C   C28       1.0  0.09723  0.81171  0.09171  1.0000
  C   C29       1.0  0.81701  0.15735  0.00701  1.0000
  C   C30       1.0  0.18299  0.84265  0.99299  1.0000
  N   N1        1.0  0.48590  0.28662  0.34616  1.0000
  N   N2        1.0  0.51410  0.71338  0.65383  1.0000
  N   N3        1.0  0.57957  0.44989  0.18276  1.0000
  N   N4        1.0  0.42043  0.55011  0.81724  1.0000
  N   N5        1.0  0.74224  0.26460  0.06388  1.0000
  N   N6        1.0  0.25776  0.73541  0.93612  1.0000
  Cl  Cl1       1.0  0.75432  0.01310  0.25464  1.0000
  Cl  Cl2       1.0  0.24568  0.98690  0.74536  1.0000
  Cl  Cl3       1.0  0.31782  0.12734  0.16153  1.0000
  Cl  Cl4       1.0  0.68218  0.87265  0.83847  1.0000
  Cl  Cl5       1.0  0.95695  0.36761  0.31201  1.0000
  Cl  Cl6       1.0  0.04305  0.63239  0.68799  1.0000
  Cl  Cl7       1.0  0.15497  0.87891  0.41881  1.0000
  Cl  Cl8       1.0  0.84503  0.12108  0.58119  1.0000
