data_image0
_chemical_formula_structural       Co2H40C28O16
_chemical_formula_sum              "Co2 H40 C28 O16"
_cell_length_a       5.25612
_cell_length_b       10.1465
_cell_length_c       15.1876
_cell_angle_alpha    101.178
_cell_angle_beta     99.9687
_cell_angle_gamma    89.9943

_space_group_name_H-M_alt    "P 1"
_space_group_IT_number       1

loop_
  _space_group_symop_operation_xyz
  'x, y, z'

loop_
  _atom_site_type_symbol
  _atom_site_label
  _atom_site_symmetry_multiplicity
  _atom_site_fract_x
  _atom_site_fract_y
  _atom_site_fract_z
  _atom_site_occupancy
  Co  Co1       1.0  0.21139  0.74445  0.99738  1.0000
  Co  Co2       1.0  0.78584  0.24439  0.99737  1.0000
  H   H1        1.0  0.87894  0.80410  0.10559  1.0000
  H   H2        1.0  0.75428  0.70731  0.89727  1.0000
  H   H3        1.0  0.14366  0.20746  0.89752  1.0000
  H   H4        1.0  0.22631  0.30405  0.10561  1.0000
  H   H5        1.0  0.95219  0.93885  0.07875  1.0000
  H   H6        1.0  0.85948  0.56493  0.91296  1.0000
  H   H7        1.0  0.05383  0.06501  0.91307  1.0000
  H   H8        1.0  0.12631  0.43879  0.07870  1.0000
  H   H9        1.0  0.47403  0.56387  0.23638  1.0000
  H   H10       1.0  0.23483  0.93978  0.76196  1.0000
  H   H11       1.0  0.52680  0.43994  0.76202  1.0000
  H   H12       1.0  0.76214  0.06362  0.23629  1.0000
  H   H13       1.0  0.63235  0.45734  0.15907  1.0000
  H   H14       1.0  0.47161  0.04456  0.83966  1.0000
  H   H15       1.0  0.36748  0.54466  0.83969  1.0000
  H   H16       1.0  0.52689  0.95710  0.15884  1.0000
  H   H17       1.0  0.85007  0.72777  0.28011  1.0000
  H   H18       1.0  0.56224  0.77050  0.72203  1.0000
  H   H19       1.0  0.16023  0.27041  0.72201  1.0000
  H   H20       1.0  0.42928  0.22731  0.27987  1.0000
  H   H21       1.0  0.00525  0.63406  0.19472  1.0000
  H   H22       1.0  0.80353  0.86404  0.80747  1.0000
  H   H23       1.0  0.00369  0.36366  0.80735  1.0000
  H   H24       1.0  0.18903  0.13330  0.19451  1.0000
  H   H25       1.0  0.86338  0.52857  0.35696  1.0000
  H   H26       1.0  0.50624  0.96811  0.64344  1.0000
  H   H27       1.0  0.13686  0.46791  0.64336  1.0000
  H   H28       1.0  0.49369  0.02807  0.35677  1.0000
  H   H29       1.0  0.02209  0.43674  0.26985  1.0000
  H   H30       1.0  0.75306  0.05954  0.73026  1.0000
  H   H31       1.0  0.97680  0.55931  0.73017  1.0000
  H   H32       1.0  0.24713  0.93639  0.26991  1.0000
  H   H33       1.0  0.63533  0.71271  0.46499  1.0000
  H   H34       1.0  0.17011  0.78155  0.53581  1.0000
  H   H35       1.0  0.36593  0.28159  0.53566  1.0000
  H   H36       1.0  0.83041  0.21282  0.46519  1.0000
  H   H37       1.0  0.88359  0.63057  0.59482  1.0000
  H   H38       1.0  0.28895  0.86399  0.40610  1.0000
  H   H39       1.0  0.11729  0.36410  0.40599  1.0000
  H   H40       1.0  0.71161  0.13062  0.59490  1.0000
  C   C1        1.0  0.48655  0.63268  0.11549  1.0000
  C   C2        1.0  0.35287  0.87461  0.88495  1.0000
  C   C3        1.0  0.53210  0.37476  0.88497  1.0000
  C   C4        1.0  0.62871  0.13266  0.11548  1.0000
  C   C5        1.0  0.61325  0.56359  0.18960  1.0000
  C   C6        1.0  0.41783  0.93829  0.80993  1.0000
  C   C7        1.0  0.39179  0.43838  0.80999  1.0000
  C   C8        1.0  0.57622  0.06332  0.18947  1.0000
  C   C9        1.0  0.87272  0.62577  0.24213  1.0000
  C   C10       1.0  0.62568  0.87254  0.75926  1.0000
  C   C11       1.0  0.13347  0.37238  0.75922  1.0000
  C   C12       1.0  0.36903  0.12526  0.24195  1.0000
  C   C13       1.0  0.99055  0.53800  0.30772  1.0000
  C   C14       1.0  0.68202  0.95817  0.69288  1.0000
  C   C15       1.0  0.01066  0.45797  0.69282  1.0000
  C   C16       1.0  0.31702  0.03762  0.30766  1.0000
  C   C17       1.0  0.35886  0.54556  0.42681  1.0000
  C   C18       1.0  0.93189  0.94893  0.57410  1.0000
  C   C19       1.0  0.64236  0.44889  0.57398  1.0000
  C   C20       1.0  0.06841  0.04558  0.42698  1.0000
  C   C21       1.0  0.57637  0.61799  0.48060  1.0000
  C   C22       1.0  0.09564  0.87636  0.52036  1.0000
  C   C23       1.0  0.42481  0.37643  0.52025  1.0000
  C   C24       1.0  0.90500  0.11814  0.48083  1.0000
  C   C25       1.0  0.71785  0.57064  0.55388  1.0000
  C   C26       1.0  0.16424  0.92388  0.44715  1.0000
  C   C27       1.0  0.28310  0.42395  0.44703  1.0000
  C   C28       1.0  0.83661  0.07073  0.55404  1.0000
  O   O1        1.0  0.57431  0.74316  0.10293  1.0000
  O   O2        1.0  0.46424  0.76987  0.90660  1.0000
  O   O3        1.0  0.44270  0.26997  0.90666  1.0000
  O   O4        1.0  0.52852  0.24324  0.10313  1.0000
  O   O5        1.0  0.27483  0.58147  0.06319  1.0000
  O   O6        1.0  0.17453  0.92209  0.92826  1.0000
  O   O7        1.0  0.75358  0.42235  0.92833  1.0000
  O   O8        1.0  0.78793  0.08144  0.06310  1.0000
  O   O9        1.0  0.23352  0.60068  0.35610  1.0000
  O   O10       1.0  0.87580  0.89397  0.64485  1.0000
  O   O11       1.0  0.76892  0.39381  0.64473  1.0000
  O   O12       1.0  0.12311  0.10061  0.35626  1.0000
  O   O13       1.0  0.03080  0.85560  0.09623  1.0000
  O   O14       1.0  0.91490  0.65454  0.90168  1.0000
  O   O15       1.0  0.98744  0.15470  0.90189  1.0000
  O   O16       1.0  0.06509  0.35555  0.09615  1.0000
