data_image0
_chemical_formula_structural       K2H14C6O6
_chemical_formula_sum              "K2 H14 C6 O6"
_cell_length_a       5.23971
_cell_length_b       5.2397
_cell_length_c       8.94853
_cell_angle_alpha    87.3271
_cell_angle_beta     87.3267
_cell_angle_gamma    90.1203

_space_group_name_H-M_alt    "P 1"
_space_group_IT_number       1

loop_
  _space_group_symop_operation_xyz
  'x, y, z'

loop_
  _atom_site_type_symbol
  _atom_site_label
  _atom_site_symmetry_multiplicity
  _atom_site_fract_x
  _atom_site_fract_y
  _atom_site_fract_z
  _atom_site_occupancy
  K   K1        1.0  0.71024  0.71024  0.06045  1.0000
  K   K2        1.0  0.28976  0.28976  0.93955  1.0000
  H   H1        1.0  0.18722  0.83950  0.81204  1.0000
  H   H2        1.0  0.16050  0.81278  0.18796  1.0000
  H   H3        1.0  0.81278  0.16051  0.18796  1.0000
  H   H4        1.0  0.83949  0.18722  0.81204  1.0000
  H   H5        1.0  0.49027  0.06389  0.65528  1.0000
  H   H6        1.0  0.93611  0.50973  0.34472  1.0000
  H   H7        1.0  0.50973  0.93611  0.34471  1.0000
  H   H8        1.0  0.06390  0.49027  0.65529  1.0000
  H   H9        1.0  0.43020  0.75427  0.59345  1.0000
  H   H10       1.0  0.24573  0.56980  0.40655  1.0000
  H   H11       1.0  0.56980  0.24573  0.40655  1.0000
  H   H12       1.0  0.75427  0.43020  0.59345  1.0000
  H   H13       1.0  0.87351  0.87351  0.57223  1.0000
  H   H14       1.0  0.12649  0.12649  0.42777  1.0000
  C   C1        1.0  0.51270  0.85771  0.68527  1.0000
  C   C2        1.0  0.14229  0.48730  0.31473  1.0000
  C   C3        1.0  0.48730  0.14229  0.31473  1.0000
  C   C4        1.0  0.85771  0.51270  0.68527  1.0000
  C   C5        1.0  0.79924  0.79924  0.68505  1.0000
  C   C6        1.0  0.20076  0.20076  0.31495  1.0000
  O   O1        1.0  0.38120  0.79311  0.82478  1.0000
  O   O2        1.0  0.20689  0.61880  0.17522  1.0000
  O   O3        1.0  0.61881  0.20690  0.17521  1.0000
  O   O4        1.0  0.79311  0.38119  0.82479  1.0000
  O   O5        1.0  0.92078  0.92078  0.79989  1.0000
  O   O6        1.0  0.07922  0.07922  0.20011  1.0000
