data_image0
_chemical_formula_structural       Na2H22C12S2O16
_chemical_formula_sum              "Na2 H22 C12 S2 O16"
_cell_length_a       5.59034
_cell_length_b       6.45549
_cell_length_c       14.9911
_cell_angle_alpha    77.7133
_cell_angle_beta     85.1817
_cell_angle_gamma    83.819

_space_group_name_H-M_alt    "P 1"
_space_group_IT_number       1

loop_
  _space_group_symop_operation_xyz
  'x, y, z'

loop_
  _atom_site_type_symbol
  _atom_site_label
  _atom_site_symmetry_multiplicity
  _atom_site_fract_x
  _atom_site_fract_y
  _atom_site_fract_z
  _atom_site_occupancy
  Na  Na1       1.0  0.65610  0.72708  0.50331  1.0000
  Na  Na2       1.0  0.34388  0.27292  0.49669  1.0000
  H   H1        1.0  0.00986  0.88055  0.78604  1.0000
  H   H2        1.0  0.99016  0.11944  0.21396  1.0000
  H   H3        1.0  0.39636  0.05928  0.74637  1.0000
  H   H4        1.0  0.60363  0.94072  0.25363  1.0000
  H   H5        1.0  0.55212  0.82010  0.72502  1.0000
  H   H6        1.0  0.44790  0.17988  0.27499  1.0000
  H   H7        1.0  0.71811  0.28935  0.85905  1.0000
  H   H8        1.0  0.28191  0.71065  0.14096  1.0000
  H   H9        1.0  0.90559  0.24581  0.75957  1.0000
  H   H10       1.0  0.09441  0.75419  0.24043  1.0000
  H   H11       1.0  0.03362  0.20341  0.86845  1.0000
  H   H12       1.0  0.96640  0.79659  0.13155  1.0000
  H   H13       1.0  0.91197  0.84877  0.97699  1.0000
  H   H14       1.0  0.08803  0.15123  0.02301  1.0000
  H   H15       1.0  0.60596  0.84577  0.02678  1.0000
  H   H16       1.0  0.39404  0.15421  0.97322  1.0000
  H   H17       1.0  0.75244  0.61651  0.98905  1.0000
  H   H18       1.0  0.24756  0.38348  0.01095  1.0000
  H   H19       1.0  0.47844  0.59059  0.34547  1.0000
  H   H20       1.0  0.52153  0.40941  0.65453  1.0000
  H   H21       1.0  0.25846  0.71439  0.39201  1.0000
  H   H22       1.0  0.74151  0.28562  0.60799  1.0000
  C   C1        1.0  0.16277  0.81216  0.74757  1.0000
  C   C2        1.0  0.83725  0.18784  0.25243  1.0000
  C   C3        1.0  0.40085  0.88472  0.76593  1.0000
  C   C4        1.0  0.59917  0.11527  0.23407  1.0000
  C   C5        1.0  0.15623  0.57293  0.77039  1.0000
  C   C6        1.0  0.84379  0.42706  0.22961  1.0000
  C   C7        1.0  0.44923  0.81539  0.86577  1.0000
  C   C8        1.0  0.55078  0.18462  0.13422  1.0000
  C   C9        1.0  0.89754  0.29882  0.82459  1.0000
  C   C10       1.0  0.10246  0.70118  0.17542  1.0000
  C   C11       1.0  0.73602  0.79074  0.97593  1.0000
  C   C12       1.0  0.26400  0.20925  0.02407  1.0000
  S   S1        1.0  0.09315  0.91139  0.62785  1.0000
  S   S2        1.0  0.90684  0.08862  0.37215  1.0000
  O   O1        1.0  0.40721  0.61806  0.40448  1.0000
  O   O2        1.0  0.59279  0.38194  0.59551  1.0000
  O   O3        1.0  0.89407  0.79415  0.61481  1.0000
  O   O4        1.0  0.10591  0.20585  0.38518  1.0000
  O   O5        1.0  0.02859  0.14259  0.62107  1.0000
  O   O6        1.0  0.97138  0.85741  0.37894  1.0000
  O   O7        1.0  0.31493  0.87305  0.57228  1.0000
  O   O8        1.0  0.68506  0.12696  0.42771  1.0000
  O   O9        1.0  0.32482  0.44202  0.75680  1.0000
  O   O10       1.0  0.67519  0.55799  0.24320  1.0000
  O   O11       1.0  0.31630  0.71406  0.92443  1.0000
  O   O12       1.0  0.68369  0.28599  0.07558  1.0000
  O   O13       1.0  0.93867  0.52148  0.80710  1.0000
  O   O14       1.0  0.06135  0.47852  0.19290  1.0000
  O   O15       1.0  0.65951  0.87736  0.88415  1.0000
  O   O16       1.0  0.34051  0.12264  0.11585  1.0000
