data_image0
_chemical_formula_structural       H12Pb4C28N4O16
_chemical_formula_sum              "H12 Pb4 C28 N4 O16"
_cell_length_a       4.53163
_cell_length_b       11.7086
_cell_length_c       14.2416
_cell_angle_alpha    90.1598
_cell_angle_beta     90.0014
_cell_angle_gamma    89.9972

_space_group_name_H-M_alt    "P 1"
_space_group_IT_number       1

loop_
  _space_group_symop_operation_xyz
  'x, y, z'

loop_
  _atom_site_type_symbol
  _atom_site_label
  _atom_site_symmetry_multiplicity
  _atom_site_fract_x
  _atom_site_fract_y
  _atom_site_fract_z
  _atom_site_occupancy
  H   H1        1.0  0.75208  0.96188  0.01444  1.0000
  H   H2        1.0  0.25184  0.03814  0.48556  1.0000
  H   H3        1.0  0.24822  0.03814  0.98555  1.0000
  H   H4        1.0  0.74802  0.96187  0.51447  1.0000
  H   H5        1.0  0.96049  0.00124  0.17243  1.0000
  H   H6        1.0  0.46036  0.99879  0.32758  1.0000
  H   H7        1.0  0.03943  0.99885  0.82760  1.0000
  H   H8        1.0  0.53951  0.00122  0.67244  1.0000
  H   H9        1.0  0.88474  0.85625  0.30079  1.0000
  H   H10       1.0  0.38447  0.14377  0.19920  1.0000
  H   H11       1.0  0.11548  0.14377  0.69920  1.0000
  H   H12       1.0  0.61524  0.85622  0.80081  1.0000
  Pb  Pb1       1.0  0.98406  0.39067  0.14048  1.0000
  Pb  Pb2       1.0  0.48368  0.60931  0.35950  1.0000
  Pb  Pb3       1.0  0.01616  0.60930  0.85952  1.0000
  Pb  Pb4       1.0  0.51624  0.39070  0.64048  1.0000
  C   C1        1.0  0.52024  0.72604  0.13222  1.0000
  C   C2        1.0  0.02010  0.27401  0.36778  1.0000
  C   C3        1.0  0.48008  0.27396  0.86776  1.0000
  C   C4        1.0  0.97964  0.72597  0.63223  1.0000
  C   C5        1.0  0.55750  0.80086  0.05625  1.0000
  C   C6        1.0  0.05733  0.19918  0.44375  1.0000
  C   C7        1.0  0.44286  0.19915  0.94373  1.0000
  C   C8        1.0  0.94241  0.80080  0.55627  1.0000
  C   C9        1.0  0.71843  0.90114  0.07110  1.0000
  C   C10       1.0  0.21825  0.09889  0.42890  1.0000
  C   C11       1.0  0.28184  0.09888  0.92889  1.0000
  C   C12       1.0  0.78157  0.90111  0.57112  1.0000
  C   C13       1.0  0.83693  0.92309  0.15940  1.0000
  C   C14       1.0  0.33677  0.07694  0.34060  1.0000
  C   C15       1.0  0.16319  0.07696  0.84060  1.0000
  C   C16       1.0  0.66306  0.92306  0.65942  1.0000
  C   C17       1.0  0.79218  0.84385  0.23087  1.0000
  C   C18       1.0  0.29200  0.15617  0.26913  1.0000
  C   C19       1.0  0.20803  0.15617  0.76912  1.0000
  C   C20       1.0  0.70776  0.84381  0.73089  1.0000
  C   C21       1.0  0.34447  0.61684  0.12356  1.0000
  C   C22       1.0  0.84442  0.38324  0.37642  1.0000
  C   C23       1.0  0.65564  0.38321  0.87642  1.0000
  C   C24       1.0  0.15537  0.61675  0.62358  1.0000
  C   C25       1.0  0.43050  0.77506  0.96098  1.0000
  C   C26       1.0  0.93036  0.22495  0.53902  1.0000
  C   C27       1.0  0.56991  0.22489  0.03900  1.0000
  C   C28       1.0  0.06933  0.77502  0.46099  1.0000
  N   N1        1.0  0.63660  0.74786  0.21741  1.0000
  N   N2        1.0  0.13646  0.25218  0.28259  1.0000
  N   N3        1.0  0.36369  0.25214  0.78256  1.0000
  N   N4        1.0  0.86331  0.74780  0.71743  1.0000
  O   O1        1.0  0.15647  0.60589  0.05913  1.0000
  O   O2        1.0  0.65647  0.39424  0.44087  1.0000
  O   O3        1.0  0.84345  0.39425  0.94090  1.0000
  O   O4        1.0  0.34337  0.60579  0.55914  1.0000
  O   O5        1.0  0.39587  0.53935  0.18566  1.0000
  O   O6        1.0  0.89583  0.46070  0.31430  1.0000
  O   O7        1.0  0.60423  0.46066  0.81429  1.0000
  O   O8        1.0  0.10396  0.53928  0.68568  1.0000
  O   O9        1.0  0.55652  0.69629  0.91194  1.0000
  O   O10       1.0  0.05652  0.30363  0.58811  1.0000
  O   O11       1.0  0.44378  0.30357  0.08811  1.0000
  O   O12       1.0  0.94328  0.69624  0.41196  1.0000
  O   O13       1.0  0.20821  0.82935  0.93343  1.0000
  O   O14       1.0  0.70797  0.17070  0.56654  1.0000
  O   O15       1.0  0.79229  0.17063  0.06651  1.0000
  O   O16       1.0  0.29155  0.82931  0.43341  1.0000
