data_image0
_chemical_formula_structural       Cu4H24C24Br4N4O16
_chemical_formula_sum              "Cu4 H24 C24 Br4 N4 O16"
_cell_length_a       9.66259
_cell_length_b       9.60079
_cell_length_c       9.8119
_cell_angle_alpha    90.0004
_cell_angle_beta     89.9995
_cell_angle_gamma    110.461

_space_group_name_H-M_alt    "P 1"
_space_group_IT_number       1

loop_
  _space_group_symop_operation_xyz
  'x, y, z'

loop_
  _atom_site_type_symbol
  _atom_site_label
  _atom_site_symmetry_multiplicity
  _atom_site_fract_x
  _atom_site_fract_y
  _atom_site_fract_z
  _atom_site_occupancy
  Cu  Cu1       1.0  0.41163  0.49237  0.34225  1.0000
  Cu  Cu2       1.0  0.08837  0.50764  0.84225  1.0000
  Cu  Cu3       1.0  0.58837  0.50763  0.65775  1.0000
  Cu  Cu4       1.0  0.91163  0.49237  0.15776  1.0000
  H   H1        1.0  0.50688  0.00603  0.25807  1.0000
  H   H2        1.0  0.99313  0.99398  0.75808  1.0000
  H   H3        1.0  0.49312  0.99396  0.74193  1.0000
  H   H4        1.0  0.00688  0.00603  0.24193  1.0000
  H   H5        1.0  0.30665  0.80261  0.37962  1.0000
  H   H6        1.0  0.19335  0.19739  0.87963  1.0000
  H   H7        1.0  0.69334  0.19739  0.62037  1.0000
  H   H8        1.0  0.80665  0.80261  0.12037  1.0000
  H   H9        1.0  0.16296  0.87455  0.56233  1.0000
  H   H10       1.0  0.33704  0.12546  0.06233  1.0000
  H   H11       1.0  0.83703  0.12545  0.43767  1.0000
  H   H12       1.0  0.66297  0.87456  0.93767  1.0000
  H   H13       1.0  0.21992  0.15106  0.60897  1.0000
  H   H14       1.0  0.28008  0.84894  0.10896  1.0000
  H   H15       1.0  0.78008  0.84894  0.39103  1.0000
  H   H16       1.0  0.71992  0.15107  0.89103  1.0000
  H   H17       1.0  0.17454  0.51989  0.36334  1.0000
  H   H18       1.0  0.32546  0.48012  0.86334  1.0000
  H   H19       1.0  0.82547  0.48012  0.63666  1.0000
  H   H20       1.0  0.67454  0.51988  0.13666  1.0000
  H   H21       1.0  0.21321  0.48433  0.51225  1.0000
  H   H22       1.0  0.28679  0.51567  0.01224  1.0000
  H   H23       1.0  0.78678  0.51566  0.48775  1.0000
  H   H24       1.0  0.71322  0.48432  0.98775  1.0000
  C   C1        1.0  0.46485  0.18038  0.36434  1.0000
  C   C2        1.0  0.03514  0.81962  0.86433  1.0000
  C   C3        1.0  0.53515  0.81961  0.63566  1.0000
  C   C4        1.0  0.96485  0.18038  0.13567  1.0000
  C   C5        1.0  0.43779  0.03125  0.33496  1.0000
  C   C6        1.0  0.06221  0.96876  0.83496  1.0000
  C   C7        1.0  0.56220  0.96875  0.66503  1.0000
  C   C8        1.0  0.93780  0.03125  0.16504  1.0000
  C   C9        1.0  0.32810  0.91913  0.40313  1.0000
  C   C10       1.0  0.17191  0.08087  0.90314  1.0000
  C   C11       1.0  0.67189  0.08086  0.59686  1.0000
  C   C12       1.0  0.82810  0.91914  0.09687  1.0000
  C   C13       1.0  0.24770  0.95900  0.50476  1.0000
  C   C14       1.0  0.25230  0.04099  0.00476  1.0000
  C   C15       1.0  0.75229  0.04100  0.49524  1.0000
  C   C16       1.0  0.74771  0.95900  0.99524  1.0000
  C   C17       1.0  0.27649  0.10732  0.53342  1.0000
  C   C18       1.0  0.22351  0.89268  0.03343  1.0000
  C   C19       1.0  0.72351  0.89268  0.46658  1.0000
  C   C20       1.0  0.77649  0.10732  0.96658  1.0000
  C   C21       1.0  0.58199  0.30028  0.28748  1.0000
  C   C22       1.0  0.91801  0.69973  0.78747  1.0000
  C   C23       1.0  0.41802  0.69972  0.71252  1.0000
  C   C24       1.0  0.08199  0.30028  0.21253  1.0000
  Br  Br1       1.0  0.44644  0.67642  0.16648  1.0000
  Br  Br2       1.0  0.05356  0.32357  0.66648  1.0000
  Br  Br3       1.0  0.55355  0.32357  0.83352  1.0000
  Br  Br4       1.0  0.94642  0.67642  0.33352  1.0000
  N   N1        1.0  0.38199  0.21479  0.46269  1.0000
  N   N2        1.0  0.11801  0.78521  0.96267  1.0000
  N   N3        1.0  0.61801  0.78520  0.53731  1.0000
  N   N4        1.0  0.88200  0.21479  0.03731  1.0000
  O   O1        1.0  0.40364  0.35508  0.49656  1.0000
  O   O2        1.0  0.09636  0.64492  0.99655  1.0000
  O   O3        1.0  0.59636  0.64492  0.50343  1.0000
  O   O4        1.0  0.90364  0.35508  0.00343  1.0000
  O   O5        1.0  0.56088  0.42369  0.26048  1.0000
  O   O6        1.0  0.93912  0.57632  0.76048  1.0000
  O   O7        1.0  0.43912  0.57630  0.73951  1.0000
  O   O8        1.0  0.06088  0.42371  0.23951  1.0000
  O   O9        1.0  0.69135  0.27130  0.24775  1.0000
  O   O10       1.0  0.80865  0.72871  0.74775  1.0000
  O   O11       1.0  0.30865  0.72870  0.75225  1.0000
  O   O12       1.0  0.19136  0.27131  0.25225  1.0000
  O   O13       1.0  0.25537  0.55130  0.43371  1.0000
  O   O14       1.0  0.24462  0.44869  0.93371  1.0000
  O   O15       1.0  0.74463  0.44869  0.56630  1.0000
  O   O16       1.0  0.75536  0.55129  0.06630  1.0000
