data_image0
_chemical_formula_structural       Mn12H24C24O48
_chemical_formula_sum              "Mn12 H24 C24 O48"
_cell_length_a       8.40769
_cell_length_b       11.5459
_cell_length_c       12.9164
_cell_angle_alpha    89.984
_cell_angle_beta     89.9968
_cell_angle_gamma    90.0014

_space_group_name_H-M_alt    "P 1"
_space_group_IT_number       1

loop_
  _space_group_symop_operation_xyz
  'x, y, z'

loop_
  _atom_site_type_symbol
  _atom_site_label
  _atom_site_symmetry_multiplicity
  _atom_site_fract_x
  _atom_site_fract_y
  _atom_site_fract_z
  _atom_site_occupancy
  Mn  Mn1       1.0  0.13630  0.21814  0.53461  1.0000
  Mn  Mn2       1.0  0.86303  0.71867  0.46528  1.0000
  Mn  Mn3       1.0  0.36321  0.21863  0.03498  1.0000
  Mn  Mn4       1.0  0.63587  0.71849  0.96515  1.0000
  Mn  Mn5       1.0  0.87495  0.35027  0.69693  1.0000
  Mn  Mn6       1.0  0.12571  0.84974  0.30312  1.0000
  Mn  Mn7       1.0  0.62585  0.34989  0.19675  1.0000
  Mn  Mn8       1.0  0.37454  0.85006  0.80335  1.0000
  Mn  Mn9       1.0  0.50169  0.27947  0.62363  1.0000
  Mn  Mn10      1.0  0.49811  0.77946  0.37664  1.0000
  Mn  Mn11      1.0  0.99821  0.27962  0.12346  1.0000
  Mn  Mn12      1.0  0.00233  0.77965  0.87625  1.0000
  H   H1        1.0  0.15141  0.05677  0.73342  1.0000
  H   H2        1.0  0.84809  0.55624  0.26754  1.0000
  H   H3        1.0  0.34806  0.05609  0.23259  1.0000
  H   H4        1.0  0.65177  0.55644  0.76738  1.0000
  H   H5        1.0  0.79993  0.28821  0.41634  1.0000
  H   H6        1.0  0.20005  0.78859  0.58325  1.0000
  H   H7        1.0  0.69977  0.28840  0.91672  1.0000
  H   H8        1.0  0.29986  0.78827  0.08365  1.0000
  H   H9        1.0  0.16718  0.52967  0.69440  1.0000
  H   H10       1.0  0.83296  0.02977  0.30576  1.0000
  H   H11       1.0  0.33310  0.52984  0.19424  1.0000
  H   H12       1.0  0.66708  0.02935  0.80474  1.0000
  H   H13       1.0  0.41176  0.01934  0.50922  1.0000
  H   H14       1.0  0.58858  0.51936  0.49100  1.0000
  H   H15       1.0  0.08820  0.01956  0.00870  1.0000
  H   H16       1.0  0.91181  0.51962  0.99072  1.0000
  H   H17       1.0  0.84465  0.03046  0.55260  1.0000
  H   H18       1.0  0.15521  0.53018  0.44694  1.0000
  H   H19       1.0  0.65537  0.03023  0.05310  1.0000
  H   H20       1.0  0.34439  0.53017  0.94733  1.0000
  H   H21       1.0  0.29925  0.29836  0.32802  1.0000
  H   H22       1.0  0.70099  0.79815  0.67214  1.0000
  H   H23       1.0  0.20118  0.29818  0.82826  1.0000
  H   H24       1.0  0.79930  0.79804  0.17177  1.0000
  C   C1        1.0  0.27610  0.08416  0.71928  1.0000
  C   C2        1.0  0.72335  0.58390  0.28102  1.0000
  C   C3        1.0  0.22335  0.08386  0.21911  1.0000
  C   C4        1.0  0.77639  0.58431  0.78099  1.0000
  C   C5        1.0  0.89862  0.28472  0.36007  1.0000
  C   C6        1.0  0.10152  0.78489  0.63965  1.0000
  C   C7        1.0  0.60134  0.28453  0.86026  1.0000
  C   C8        1.0  0.39860  0.78475  0.13988  1.0000
  C   C9        1.0  0.21401  0.44950  0.65864  1.0000
  C   C10       1.0  0.78624  0.94945  0.34141  1.0000
  C   C11       1.0  0.28632  0.44956  0.15863  1.0000
  C   C12       1.0  0.71381  0.94941  0.84106  1.0000
  C   C13       1.0  0.29766  0.98736  0.47727  1.0000
  C   C14       1.0  0.70278  0.48733  0.52279  1.0000
  C   C15       1.0  0.20258  0.98757  0.97716  1.0000
  C   C16       1.0  0.79770  0.48759  0.02263  1.0000
  C   C17       1.0  0.79950  0.11413  0.58273  1.0000
  C   C18       1.0  0.20027  0.61407  0.41718  1.0000
  C   C19       1.0  0.70042  0.11410  0.08289  1.0000
  C   C20       1.0  0.29919  0.61386  0.91725  1.0000
  C   C21       1.0  0.40243  0.28888  0.38033  1.0000
  C   C22       1.0  0.59764  0.78875  0.61996  1.0000
  C   C23       1.0  0.09773  0.28873  0.88035  1.0000
  C   C24       1.0  0.90249  0.78878  0.11942  1.0000
  O   O1        1.0  0.36936  0.27046  0.47607  1.0000
  O   O2        1.0  0.63040  0.77004  0.52423  1.0000
  O   O3        1.0  0.13024  0.27005  0.97615  1.0000
  O   O4        1.0  0.86944  0.77049  0.02369  1.0000
  O   O5        1.0  0.36174  0.43446  0.65608  1.0000
  O   O6        1.0  0.63853  0.93428  0.34412  1.0000
  O   O7        1.0  0.13863  0.43439  0.15602  1.0000
  O   O8        1.0  0.86150  0.93435  0.84403  1.0000
  O   O9        1.0  0.10779  0.37874  0.62372  1.0000
  O   O10       1.0  0.89262  0.87864  0.37606  1.0000
  O   O11       1.0  0.39268  0.37876  0.12391  1.0000
  O   O12       1.0  0.60735  0.87894  0.87620  1.0000
  O   O13       1.0  0.86076  0.30056  0.26491  1.0000
  O   O14       1.0  0.13967  0.80056  0.73476  1.0000
  O   O15       1.0  0.63967  0.29976  0.76513  1.0000
  O   O16       1.0  0.36078  0.80050  0.23505  1.0000
  O   O17       1.0  0.65223  0.13013  0.58596  1.0000
  O   O18       1.0  0.34754  0.63033  0.41420  1.0000
  O   O19       1.0  0.84766  0.13038  0.08588  1.0000
  O   O20       1.0  0.15193  0.62996  0.91417  1.0000
  O   O21       1.0  0.90731  0.18719  0.61143  1.0000
  O   O22       1.0  0.09239  0.68713  0.38861  1.0000
  O   O23       1.0  0.59248  0.18716  0.11141  1.0000
  O   O24       1.0  0.40700  0.68691  0.88844  1.0000
  O   O25       1.0  0.38822  0.02305  0.75243  1.0000
  O   O26       1.0  0.61137  0.52295  0.24751  1.0000
  O   O27       1.0  0.11127  0.02288  0.25248  1.0000
  O   O28       1.0  0.88862  0.52342  0.74771  1.0000
  O   O29       1.0  0.17032  0.04147  0.49430  1.0000
  O   O30       1.0  0.82997  0.54162  0.50574  1.0000
  O   O31       1.0  0.32972  0.04173  0.99459  1.0000
  O   O32       1.0  0.67039  0.54173  0.00554  1.0000
  O   O33       1.0  0.54124  0.29513  0.34518  1.0000
  O   O34       1.0  0.45895  0.79535  0.65523  1.0000
  O   O35       1.0  0.95911  0.29525  0.84496  1.0000
  O   O36       1.0  0.04130  0.79515  0.15461  1.0000
  O   O37       1.0  0.03848  0.26609  0.39041  1.0000
  O   O38       1.0  0.96159  0.76617  0.60945  1.0000
  O   O39       1.0  0.46133  0.26606  0.89048  1.0000
  O   O40       1.0  0.53845  0.76620  0.10947  1.0000
  O   O41       1.0  0.29436  0.17860  0.66840  1.0000
  O   O42       1.0  0.70492  0.67854  0.33149  1.0000
  O   O43       1.0  0.20507  0.17863  0.16877  1.0000
  O   O44       1.0  0.79447  0.67905  0.83136  1.0000
  O   O45       1.0  0.30334  0.89421  0.42313  1.0000
  O   O46       1.0  0.69731  0.39401  0.57673  1.0000
  O   O47       1.0  0.19732  0.89438  0.92305  1.0000
  O   O48       1.0  0.80338  0.39443  0.07678  1.0000
