data_image0
_chemical_formula_structural       Mn4H8C8O16
_chemical_formula_sum              "Mn4 H8 C8 O16"
_cell_length_a       5.74688
_cell_length_b       7.56091
_cell_length_c       9.50152
_cell_angle_alpha    90
_cell_angle_beta     89.9999
_cell_angle_gamma    90.0013

_space_group_name_H-M_alt    "P 1"
_space_group_IT_number       1

loop_
  _space_group_symop_operation_xyz
  'x, y, z'

loop_
  _atom_site_type_symbol
  _atom_site_label
  _atom_site_symmetry_multiplicity
  _atom_site_fract_x
  _atom_site_fract_y
  _atom_site_fract_z
  _atom_site_occupancy
  Mn  Mn1       1.0  0.25000  0.50000  0.39111  1.0000
  Mn  Mn2       1.0  0.75000  1.00000  0.10889  1.0000
  Mn  Mn3       1.0  0.75000  0.50000  0.60889  1.0000
  Mn  Mn4       1.0  0.25000  0.00000  0.89111  1.0000
  H   H1        1.0  0.31981  0.83615  0.58974  1.0000
  H   H2        1.0  0.81981  0.66386  0.91026  1.0000
  H   H3        1.0  0.18019  0.16385  0.58974  1.0000
  H   H4        1.0  0.68019  0.33614  0.91026  1.0000
  H   H5        1.0  0.68019  0.16385  0.41026  1.0000
  H   H6        1.0  0.18019  0.33614  0.08974  1.0000
  H   H7        1.0  0.81981  0.83615  0.41026  1.0000
  H   H8        1.0  0.31981  0.66386  0.08974  1.0000
  C   C1        1.0  0.34658  0.21652  0.62940  1.0000
  C   C2        1.0  0.84659  0.28348  0.87059  1.0000
  C   C3        1.0  0.15342  0.78348  0.62940  1.0000
  C   C4        1.0  0.65341  0.71652  0.87059  1.0000
  C   C5        1.0  0.65342  0.78348  0.37060  1.0000
  C   C6        1.0  0.15341  0.71652  0.12941  1.0000
  C   C7        1.0  0.84657  0.21652  0.37060  1.0000
  C   C8        1.0  0.34659  0.28348  0.12941  1.0000
  O   O1        1.0  0.43414  0.34581  0.55997  1.0000
  O   O2        1.0  0.93415  0.15418  0.94004  1.0000
  O   O3        1.0  0.06586  0.65419  0.55997  1.0000
  O   O4        1.0  0.56585  0.84582  0.94004  1.0000
  O   O5        1.0  0.56586  0.65419  0.44003  1.0000
  O   O6        1.0  0.06585  0.84582  0.05996  1.0000
  O   O7        1.0  0.93414  0.34581  0.44003  1.0000
  O   O8        1.0  0.43415  0.15419  0.05996  1.0000
  O   O9        1.0  0.43927  0.14755  0.73615  1.0000
  O   O10       1.0  0.93928  0.35244  0.76385  1.0000
  O   O11       1.0  0.06072  0.85245  0.73616  1.0000
  O   O12       1.0  0.56071  0.64756  0.76384  1.0000
  O   O13       1.0  0.56073  0.85245  0.26384  1.0000
  O   O14       1.0  0.06072  0.64756  0.23616  1.0000
  O   O15       1.0  0.93928  0.14755  0.26384  1.0000
  O   O16       1.0  0.43929  0.35244  0.23615  1.0000
