data_image0
_chemical_formula_structural       Cu2H16C24S4N10
_chemical_formula_sum              "Cu2 H16 C24 S4 N10"
_cell_length_a       7.66909
_cell_length_b       9.37399
_cell_length_c       9.87851
_cell_angle_alpha    83.516
_cell_angle_beta     81.6781
_cell_angle_gamma    71.6451

_space_group_name_H-M_alt    "P 1"
_space_group_IT_number       1

loop_
  _space_group_symop_operation_xyz
  'x, y, z'

loop_
  _atom_site_type_symbol
  _atom_site_label
  _atom_site_symmetry_multiplicity
  _atom_site_fract_x
  _atom_site_fract_y
  _atom_site_fract_z
  _atom_site_occupancy
  Cu  Cu1       1.0  0.95926  0.83079  0.16708  1.0000
  Cu  Cu2       1.0  0.04074  0.16921  0.83292  1.0000
  H   H1        1.0  0.98913  0.86307  0.57968  1.0000
  H   H2        1.0  0.01087  0.13693  0.42033  1.0000
  H   H3        1.0  0.23922  0.94278  0.65490  1.0000
  H   H4        1.0  0.76078  0.05722  0.34511  1.0000
  H   H5        1.0  0.56979  0.82366  0.55486  1.0000
  H   H6        1.0  0.43021  0.17633  0.44515  1.0000
  H   H7        1.0  0.63119  0.63072  0.38406  1.0000
  H   H8        1.0  0.36881  0.36928  0.61594  1.0000
  H   H9        1.0  0.33776  0.28399  0.09452  1.0000
  H   H10       1.0  0.66224  0.71602  0.90548  1.0000
  H   H11       1.0  0.46149  0.33642  0.85065  1.0000
  H   H12       1.0  0.53851  0.66358  0.14935  1.0000
  H   H13       1.0  0.36312  0.60069  0.74481  1.0000
  H   H14       1.0  0.63689  0.39931  0.25519  1.0000
  H   H15       1.0  0.14072  0.80289  0.88593  1.0000
  H   H16       1.0  0.85929  0.19712  0.11407  1.0000
  C   C1        1.0  0.54071  0.97849  0.17880  1.0000
  C   C2        1.0  0.45929  0.02150  0.82120  1.0000
  C   C3        1.0  0.23360  0.00095  0.18841  1.0000
  C   C4        1.0  0.76639  0.99904  0.81159  1.0000
  C   C5        1.0  0.18278  0.71146  0.43669  1.0000
  C   C6        1.0  0.81722  0.28854  0.56331  1.0000
  C   C7        1.0  0.13261  0.81661  0.53646  1.0000
  C   C8        1.0  0.86738  0.18339  0.46354  1.0000
  C   C9        1.0  0.27293  0.86025  0.57820  1.0000
  C   C10       1.0  0.72707  0.13975  0.42180  1.0000
  C   C11       1.0  0.45585  0.79435  0.52318  1.0000
  C   C12       1.0  0.54415  0.20565  0.47682  1.0000
  C   C13       1.0  0.48997  0.68701  0.42787  1.0000
  C   C14       1.0  0.51003  0.31299  0.57213  1.0000
  C   C15       1.0  0.17962  0.51758  0.11620  1.0000
  C   C16       1.0  0.82038  0.48243  0.88380  1.0000
  C   C17       1.0  0.29774  0.39707  0.04390  1.0000
  C   C18       1.0  0.70227  0.60294  0.95610  1.0000
  C   C19       1.0  0.36415  0.42629  0.90867  1.0000
  C   C20       1.0  0.63586  0.57371  0.09133  1.0000
  C   C21       1.0  0.30990  0.57364  0.84944  1.0000
  C   C22       1.0  0.69011  0.42637  0.15055  1.0000
  C   C23       1.0  0.18892  0.68617  0.92731  1.0000
  C   C24       1.0  0.81108  0.31384  0.07269  1.0000
  S   S1        1.0  0.99447  0.67412  0.37326  1.0000
  S   S2        1.0  0.00553  0.32588  0.62674  1.0000
  S   S3        1.0  0.10625  0.47167  0.29029  1.0000
  S   S4        1.0  0.89375  0.52833  0.70971  1.0000
  N   N1        1.0  0.70217  0.92337  0.15854  1.0000
  N   N2        1.0  0.29782  0.07662  0.84146  1.0000
  N   N3        1.0  0.10109  0.96681  0.17762  1.0000
  N   N4        1.0  0.89890  0.03319  0.82238  1.0000
  N   N5        1.0  0.36694  0.05194  0.20530  1.0000
  N   N6        1.0  0.63305  0.94806  0.79471  1.0000
  N   N7        1.0  0.35569  0.64723  0.38304  1.0000
  N   N8        1.0  0.64431  0.35277  0.61695  1.0000
  N   N9        1.0  0.12329  0.65932  0.05958  1.0000
  N   N10       1.0  0.87671  0.34068  0.94042  1.0000
