data_image0
_chemical_formula_structural       Cd2H32C32Br4N16
_chemical_formula_sum              "Cd2 H32 C32 Br4 N16"
_cell_length_a       7.76756
_cell_length_b       8.37015
_cell_length_c       16.8057
_cell_angle_alpha    90
_cell_angle_beta     89.9999
_cell_angle_gamma    114.294

_space_group_name_H-M_alt    "P 1"
_space_group_IT_number       1

loop_
  _space_group_symop_operation_xyz
  'x, y, z'

loop_
  _atom_site_type_symbol
  _atom_site_label
  _atom_site_symmetry_multiplicity
  _atom_site_fract_x
  _atom_site_fract_y
  _atom_site_fract_z
  _atom_site_occupancy
  Cd  Cd1       1.0  0.00000  0.50000  0.50000  1.0000
  Cd  Cd2       1.0  0.99999  0.00001  0.00000  1.0000
  H   H1        1.0  0.85959  0.06608  0.42754  1.0000
  H   H2        1.0  0.14042  0.43392  0.92754  1.0000
  H   H3        1.0  0.14041  0.93391  0.57246  1.0000
  H   H4        1.0  0.85959  0.56608  0.07246  1.0000
  H   H5        1.0  0.50994  0.33620  0.44996  1.0000
  H   H6        1.0  0.49007  0.16381  0.94996  1.0000
  H   H7        1.0  0.49007  0.66380  0.55004  1.0000
  H   H8        1.0  0.50994  0.83620  0.05004  1.0000
  H   H9        1.0  0.20261  0.08113  0.41705  1.0000
  H   H10       1.0  0.79740  0.41887  0.91705  1.0000
  H   H11       1.0  0.79740  0.91887  0.58295  1.0000
  H   H12       1.0  0.20261  0.58114  0.08295  1.0000
  H   H13       1.0  0.20434  0.87359  0.40001  1.0000
  H   H14       1.0  0.79566  0.62642  0.90000  1.0000
  H   H15       1.0  0.79566  0.12641  0.60000  1.0000
  H   H16       1.0  0.20434  0.37359  0.09999  1.0000
  H   H17       1.0  0.50437  0.08592  0.24565  1.0000
  H   H18       1.0  0.49564  0.41408  0.74565  1.0000
  H   H19       1.0  0.49563  0.91408  0.75435  1.0000
  H   H20       1.0  0.50437  0.58592  0.25435  1.0000
  H   H21       1.0  0.40346  0.09189  0.10588  1.0000
  H   H22       1.0  0.59655  0.40811  0.60588  1.0000
  H   H23       1.0  0.59655  0.90811  0.89412  1.0000
  H   H24       1.0  0.40345  0.59189  0.39412  1.0000
  H   H25       1.0  0.85350  0.98101  0.17462  1.0000
  H   H26       1.0  0.14649  0.51898  0.67463  1.0000
  H   H27       1.0  0.14649  0.01898  0.82538  1.0000
  H   H28       1.0  0.85351  0.48102  0.32537  1.0000
  H   H29       1.0  0.92782  0.95625  0.31745  1.0000
  H   H30       1.0  0.07218  0.54375  0.81745  1.0000
  H   H31       1.0  0.07218  0.04376  0.68255  1.0000
  H   H32       1.0  0.92782  0.45624  0.18255  1.0000
  C   C1        1.0  0.73948  0.09993  0.42228  1.0000
  C   C2        1.0  0.26052  0.40008  0.92228  1.0000
  C   C3        1.0  0.26051  0.90007  0.57772  1.0000
  C   C4        1.0  0.73949  0.59993  0.07772  1.0000
  C   C5        1.0  0.56678  0.24116  0.43497  1.0000
  C   C6        1.0  0.43322  0.25884  0.93497  1.0000
  C   C7        1.0  0.43322  0.75884  0.56503  1.0000
  C   C8        1.0  0.56678  0.74116  0.06503  1.0000
  C   C9        1.0  0.26708  0.01107  0.38043  1.0000
  C   C10       1.0  0.73292  0.48893  0.88043  1.0000
  C   C11       1.0  0.73292  0.98893  0.61957  1.0000
  C   C12       1.0  0.26708  0.51107  0.11957  1.0000
  C   C13       1.0  0.22408  0.02182  0.29374  1.0000
  C   C14       1.0  0.77592  0.47818  0.79374  1.0000
  C   C15       1.0  0.77592  0.97818  0.70626  1.0000
  C   C16       1.0  0.22408  0.52182  0.20626  1.0000
  C   C17       1.0  0.35773  0.05989  0.23298  1.0000
  C   C18       1.0  0.64227  0.44011  0.73298  1.0000
  C   C19       1.0  0.64227  0.94011  0.76702  1.0000
  C   C20       1.0  0.35773  0.55989  0.26702  1.0000
  C   C21       1.0  0.30169  0.06345  0.15440  1.0000
  C   C22       1.0  0.69831  0.43655  0.65439  1.0000
  C   C23       1.0  0.69831  0.93655  0.84561  1.0000
  C   C24       1.0  0.30169  0.56346  0.34560  1.0000
  C   C25       1.0  0.99529  0.99984  0.19314  1.0000
  C   C26       1.0  0.00471  0.50015  0.69314  1.0000
  C   C27       1.0  0.00472  0.00015  0.80686  1.0000
  C   C28       1.0  0.99528  0.49985  0.30686  1.0000
  C   C29       1.0  0.03835  0.99006  0.27257  1.0000
  C   C30       1.0  0.96164  0.50994  0.77257  1.0000
  C   C31       1.0  0.96164  0.00994  0.72744  1.0000
  C   C32       1.0  0.03836  0.49006  0.22743  1.0000
  Br  Br1       1.0  0.80383  0.70012  0.46099  1.0000
  Br  Br2       1.0  0.19613  0.79986  0.96099  1.0000
  Br  Br3       1.0  0.19619  0.29989  0.53901  1.0000
  Br  Br4       1.0  0.80381  0.20012  0.03901  1.0000
  N   N1        1.0  0.46617  0.08487  0.40081  1.0000
  N   N2        1.0  0.53383  0.41513  0.90081  1.0000
  N   N3        1.0  0.53382  0.91512  0.59919  1.0000
  N   N4        1.0  0.46618  0.58487  0.09919  1.0000
  N   N5        1.0  0.57442  0.99218  0.39199  1.0000
  N   N6        1.0  0.42558  0.50782  0.89199  1.0000
  N   N7        1.0  0.42558  0.00782  0.60801  1.0000
  N   N8        1.0  0.57442  0.49218  0.10801  1.0000
  N   N9        1.0  0.74107  0.25431  0.44946  1.0000
  N   N10       1.0  0.25893  0.24570  0.94946  1.0000
  N   N11       1.0  0.25894  0.74569  0.55054  1.0000
  N   N12       1.0  0.74107  0.75431  0.05054  1.0000
  N   N13       1.0  0.12370  0.03431  0.13450  1.0000
  N   N14       1.0  0.87630  0.46568  0.63450  1.0000
  N   N15       1.0  0.87630  0.96569  0.86550  1.0000
  N   N16       1.0  0.12369  0.53431  0.36550  1.0000
