data_image0
_chemical_formula_structural       Ca4H44C36S4N4O24
_chemical_formula_sum              "Ca4 H44 C36 S4 N4 O24"
_cell_length_a       10.3137
_cell_length_b       10.1619
_cell_length_c       11.4802
_cell_angle_alpha    90.0001
_cell_angle_beta     90.0001
_cell_angle_gamma    94.6274

_space_group_name_H-M_alt    "P 1"
_space_group_IT_number       1

loop_
  _space_group_symop_operation_xyz
  'x, y, z'

loop_
  _atom_site_type_symbol
  _atom_site_label
  _atom_site_symmetry_multiplicity
  _atom_site_fract_x
  _atom_site_fract_y
  _atom_site_fract_z
  _atom_site_occupancy
  Ca  Ca1       1.0  0.15357  0.68200  0.08795  1.0000
  Ca  Ca2       1.0  0.34643  0.31800  0.58794  1.0000
  Ca  Ca3       1.0  0.84643  0.31800  0.91206  1.0000
  Ca  Ca4       1.0  0.65357  0.68200  0.41206  1.0000
  H   H1        1.0  0.09195  0.89147  0.82432  1.0000
  H   H2        1.0  0.40805  0.10853  0.32432  1.0000
  H   H3        1.0  0.90805  0.10853  0.17568  1.0000
  H   H4        1.0  0.59195  0.89147  0.67568  1.0000
  H   H5        1.0  0.13372  0.06162  0.77892  1.0000
  H   H6        1.0  0.36628  0.93838  0.27891  1.0000
  H   H7        1.0  0.86628  0.93838  0.22109  1.0000
  H   H8        1.0  0.63372  0.06162  0.72109  1.0000
  H   H9        1.0  0.02029  0.02825  0.89524  1.0000
  H   H10       1.0  0.47971  0.97175  0.39524  1.0000
  H   H11       1.0  0.97971  0.97175  0.10476  1.0000
  H   H12       1.0  0.52029  0.02825  0.60476  1.0000
  H   H13       1.0  0.44678  0.93893  0.91024  1.0000
  H   H14       1.0  0.05322  0.06107  0.41023  1.0000
  H   H15       1.0  0.55322  0.06107  0.08977  1.0000
  H   H16       1.0  0.94678  0.93893  0.58976  1.0000
  H   H17       1.0  0.37902  0.02675  0.79175  1.0000
  H   H18       1.0  0.12098  0.97325  0.29175  1.0000
  H   H19       1.0  0.62098  0.97325  0.20825  1.0000
  H   H20       1.0  0.87902  0.02675  0.70825  1.0000
  H   H21       1.0  0.32166  0.85638  0.82068  1.0000
  H   H22       1.0  0.17834  0.14362  0.32068  1.0000
  H   H23       1.0  0.67834  0.14362  0.17932  1.0000
  H   H24       1.0  0.82166  0.85638  0.67932  1.0000
  H   H25       1.0  0.28862  0.57066  0.81978  1.0000
  H   H26       1.0  0.21138  0.42934  0.31978  1.0000
  H   H27       1.0  0.71137  0.42934  0.18022  1.0000
  H   H28       1.0  0.78863  0.57066  0.68022  1.0000
  H   H29       1.0  0.70102  0.68145  0.81759  1.0000
  H   H30       1.0  0.79898  0.31855  0.31759  1.0000
  H   H31       1.0  0.29898  0.31855  0.18241  1.0000
  H   H32       1.0  0.20102  0.68145  0.68241  1.0000
  H   H33       1.0  0.68576  0.71666  0.03383  1.0000
  H   H34       1.0  0.81424  0.28334  0.53383  1.0000
  H   H35       1.0  0.31424  0.28334  0.96617  1.0000
  H   H36       1.0  0.18576  0.71666  0.46617  1.0000
  H   H37       1.0  0.87802  0.69029  0.14375  1.0000
  H   H38       1.0  0.62198  0.30971  0.64375  1.0000
  H   H39       1.0  0.12198  0.30970  0.85625  1.0000
  H   H40       1.0  0.37802  0.69029  0.35625  1.0000
  H   H41       1.0  0.89116  0.63289  0.01156  1.0000
  H   H42       1.0  0.60884  0.36711  0.51156  1.0000
  H   H43       1.0  0.10884  0.36711  0.98844  1.0000
  H   H44       1.0  0.39116  0.63289  0.48844  1.0000
  C   C1        1.0  0.10644  0.99505  0.85182  1.0000
  C   C2        1.0  0.39356  0.00495  0.35181  1.0000
  C   C3        1.0  0.89356  0.00495  0.14819  1.0000
  C   C4        1.0  0.60644  0.99505  0.64819  1.0000
  C   C5        1.0  0.35889  0.95082  0.85879  1.0000
  C   C6        1.0  0.14111  0.04918  0.35879  1.0000
  C   C7        1.0  0.64111  0.04918  0.14121  1.0000
  C   C8        1.0  0.85889  0.95082  0.64121  1.0000
  C   C9        1.0  0.37837  0.60619  0.86360  1.0000
  C   C10       1.0  0.12162  0.39381  0.36360  1.0000
  C   C11       1.0  0.62162  0.39381  0.13640  1.0000
  C   C12       1.0  0.87838  0.60619  0.63640  1.0000
  C   C13       1.0  0.47852  0.67248  0.03574  1.0000
  C   C14       1.0  0.02148  0.32752  0.53574  1.0000
  C   C15       1.0  0.52148  0.32752  0.96426  1.0000
  C   C16       1.0  0.97852  0.67249  0.46426  1.0000
  C   C17       1.0  0.60800  0.66766  0.86249  1.0000
  C   C18       1.0  0.89199  0.33234  0.36250  1.0000
  C   C19       1.0  0.39199  0.33234  0.13751  1.0000
  C   C20       1.0  0.10801  0.66766  0.63751  1.0000
  C   C21       1.0  0.60009  0.68797  0.98187  1.0000
  C   C22       1.0  0.89990  0.31203  0.48187  1.0000
  C   C23       1.0  0.39990  0.31203  0.01813  1.0000
  C   C24       1.0  0.10010  0.68797  0.51813  1.0000
  C   C25       1.0  0.49522  0.62519  0.80120  1.0000
  C   C26       1.0  0.00478  0.37481  0.30120  1.0000
  C   C27       1.0  0.50478  0.37481  0.19880  1.0000
  C   C28       1.0  0.99522  0.62519  0.69880  1.0000
  C   C29       1.0  0.49812  0.60468  0.67153  1.0000
  C   C30       1.0  0.00188  0.39532  0.17153  1.0000
  C   C31       1.0  0.50188  0.39532  0.32847  1.0000
  C   C32       1.0  0.99812  0.60468  0.82847  1.0000
  C   C33       1.0  0.46613  0.69879  0.16493  1.0000
  C   C34       1.0  0.03387  0.30121  0.66493  1.0000
  C   C35       1.0  0.53387  0.30121  0.83507  1.0000
  C   C36       1.0  0.96613  0.69879  0.33506  1.0000
  S   S1        1.0  0.23819  0.01052  0.95448  1.0000
  S   S2        1.0  0.26181  0.98948  0.45448  1.0000
  S   S3        1.0  0.76181  0.98948  0.04552  1.0000
  S   S4        1.0  0.73819  0.01052  0.54552  1.0000
  N   N1        1.0  0.36846  0.63352  0.97737  1.0000
  N   N2        1.0  0.13153  0.36648  0.47737  1.0000
  N   N3        1.0  0.63153  0.36647  0.02263  1.0000
  N   N4        1.0  0.86847  0.63352  0.52263  1.0000
  O   O1        1.0  0.20888  0.90597  0.04785  1.0000
  O   O2        1.0  0.29112  0.09403  0.54785  1.0000
  O   O3        1.0  0.79112  0.09403  0.95215  1.0000
  O   O4        1.0  0.70888  0.90597  0.45215  1.0000
  O   O5        1.0  0.39787  0.54339  0.62449  1.0000
  O   O6        1.0  0.10213  0.45661  0.12449  1.0000
  O   O7        1.0  0.60213  0.45661  0.37551  1.0000
  O   O8        1.0  0.89787  0.54339  0.87551  1.0000
  O   O9        1.0  0.59771  0.65217  0.61720  1.0000
  O   O10       1.0  0.90229  0.34783  0.11719  1.0000
  O   O11       1.0  0.40229  0.34783  0.38280  1.0000
  O   O12       1.0  0.09771  0.65217  0.88280  1.0000
  O   O13       1.0  0.57053  0.72544  0.22100  1.0000
  O   O14       1.0  0.92947  0.27456  0.72100  1.0000
  O   O15       1.0  0.42947  0.27456  0.77900  1.0000
  O   O16       1.0  0.07053  0.72544  0.27900  1.0000
  O   O17       1.0  0.35115  0.69173  0.20750  1.0000
  O   O18       1.0  0.14884  0.30827  0.70750  1.0000
  O   O19       1.0  0.64885  0.30827  0.79250  1.0000
  O   O20       1.0  0.85116  0.69173  0.29250  1.0000
  O   O21       1.0  0.92082  0.70405  0.06636  1.0000
  O   O22       1.0  0.57917  0.29596  0.56636  1.0000
  O   O23       1.0  0.07917  0.29595  0.93364  1.0000
  O   O24       1.0  0.42083  0.70405  0.43364  1.0000
