data_image0
_chemical_formula_structural       Cu4H16C16S4N8
_chemical_formula_sum              "Cu4 H16 C16 S4 N8"
_cell_length_a       5.62297
_cell_length_b       6.84681
_cell_length_c       13.9672
_cell_angle_alpha    90.0001
_cell_angle_beta     91.7732
_cell_angle_gamma    90.0005

_space_group_name_H-M_alt    "P 1"
_space_group_IT_number       1

loop_
  _space_group_symop_operation_xyz
  'x, y, z'

loop_
  _atom_site_type_symbol
  _atom_site_label
  _atom_site_symmetry_multiplicity
  _atom_site_fract_x
  _atom_site_fract_y
  _atom_site_fract_z
  _atom_site_occupancy
  Cu  Cu1       1.0  0.11050  0.31945  0.83425  1.0000
  Cu  Cu2       1.0  0.61050  0.18055  0.33425  1.0000
  Cu  Cu3       1.0  0.88950  0.68054  0.16575  1.0000
  Cu  Cu4       1.0  0.38949  0.81945  0.66575  1.0000
  H   H1        1.0  0.47935  0.62771  0.83844  1.0000
  H   H2        1.0  0.97934  0.87229  0.33844  1.0000
  H   H3        1.0  0.52066  0.37229  0.16156  1.0000
  H   H4        1.0  0.02064  0.12772  0.66158  1.0000
  H   H5        1.0  0.81069  0.92083  0.98082  1.0000
  H   H6        1.0  0.31068  0.57915  0.48082  1.0000
  H   H7        1.0  0.18934  0.07917  0.01919  1.0000
  H   H8        1.0  0.68932  0.42082  0.51918  1.0000
  H   H9        1.0  0.84429  0.80222  0.86887  1.0000
  H   H10       1.0  0.34429  0.69779  0.36886  1.0000
  H   H11       1.0  0.15572  0.19777  0.13113  1.0000
  H   H12       1.0  0.65571  0.30222  0.63112  1.0000
  H   H13       1.0  0.02757  0.73524  0.97055  1.0000
  H   H14       1.0  0.52755  0.76476  0.47056  1.0000
  H   H15       1.0  0.97249  0.26474  0.02945  1.0000
  H   H16       1.0  0.47249  0.23525  0.52944  1.0000
  C   C1        1.0  0.48862  0.57029  0.91113  1.0000
  C   C2        1.0  0.98860  0.92971  0.41114  1.0000
  C   C3        1.0  0.51140  0.42972  0.08885  1.0000
  C   C4        1.0  0.01138  0.07027  0.58885  1.0000
  C   C5        1.0  0.66910  0.63198  0.97463  1.0000
  C   C6        1.0  0.16906  0.86803  0.47463  1.0000
  C   C7        1.0  0.33091  0.36800  0.02537  1.0000
  C   C8        1.0  0.83089  0.13200  0.52538  1.0000
  C   C9        1.0  0.84806  0.77999  0.94651  1.0000
  C   C10       1.0  0.34804  0.72004  0.44651  1.0000
  C   C11       1.0  0.15193  0.22000  0.05349  1.0000
  C   C12       1.0  0.65188  0.28002  0.55349  1.0000
  C   C13       1.0  0.61009  0.14658  0.81245  1.0000
  C   C14       1.0  0.11010  0.35342  0.31245  1.0000
  C   C15       1.0  0.38993  0.85341  0.18756  1.0000
  C   C16       1.0  0.88992  0.64656  0.68756  1.0000
  S   S1        1.0  0.34889  0.04116  0.80160  1.0000
  S   S2        1.0  0.84890  0.45884  0.30160  1.0000
  S   S3        1.0  0.65110  0.95884  0.19840  1.0000
  S   S4        1.0  0.15111  0.54115  0.69840  1.0000
  N   N1        1.0  0.31993  0.44050  0.93479  1.0000
  N   N2        1.0  0.81994  0.05948  0.43479  1.0000
  N   N3        1.0  0.68010  0.55952  0.06521  1.0000
  N   N4        1.0  0.18009  0.94048  0.56521  1.0000
  N   N5        1.0  0.79609  0.22537  0.82324  1.0000
  N   N6        1.0  0.29610  0.27463  0.32324  1.0000
  N   N7        1.0  0.20389  0.77463  0.17676  1.0000
  N   N8        1.0  0.70389  0.72536  0.67676  1.0000
