data_image0
_chemical_formula_structural       Fe4H36C28N4O28
_chemical_formula_sum              "Fe4 H36 C28 N4 O28"
_cell_length_a       6.66917
_cell_length_b       8.36202
_cell_length_c       15.761
_cell_angle_alpha    90.0003
_cell_angle_beta     90.0008
_cell_angle_gamma    89.9997

_space_group_name_H-M_alt    "P 1"
_space_group_IT_number       1

loop_
  _space_group_symop_operation_xyz
  'x, y, z'

loop_
  _atom_site_type_symbol
  _atom_site_label
  _atom_site_symmetry_multiplicity
  _atom_site_fract_x
  _atom_site_fract_y
  _atom_site_fract_z
  _atom_site_occupancy
  Fe  Fe1       1.0  0.41907  0.32132  0.40485  1.0000
  Fe  Fe2       1.0  0.58094  0.82131  0.59515  1.0000
  Fe  Fe3       1.0  0.58094  0.32131  0.90485  1.0000
  Fe  Fe4       1.0  0.41907  0.82131  0.09515  1.0000
  H   H1        1.0  0.52823  0.61962  0.37930  1.0000
  H   H2        1.0  0.47180  0.11960  0.62071  1.0000
  H   H3        1.0  0.47179  0.61961  0.87929  1.0000
  H   H4        1.0  0.52818  0.11959  0.12071  1.0000
  H   H5        1.0  0.63054  0.55206  0.46409  1.0000
  H   H6        1.0  0.36948  0.05202  0.53592  1.0000
  H   H7        1.0  0.36949  0.55205  0.96408  1.0000
  H   H8        1.0  0.63050  0.05202  0.03593  1.0000
  H   H9        1.0  0.38974  0.36888  0.57664  1.0000
  H   H10       1.0  0.61024  0.86889  0.42334  1.0000
  H   H11       1.0  0.61025  0.36887  0.07665  1.0000
  H   H12       1.0  0.38976  0.86889  0.92334  1.0000
  H   H13       1.0  0.16422  0.38081  0.54037  1.0000
  H   H14       1.0  0.83578  0.88082  0.45962  1.0000
  H   H15       1.0  0.83579  0.38082  0.04038  1.0000
  H   H16       1.0  0.16423  0.88083  0.95962  1.0000
  H   H17       1.0  0.76009  0.28437  0.49592  1.0000
  H   H18       1.0  0.23985  0.78436  0.50408  1.0000
  H   H19       1.0  0.23989  0.28438  0.99592  1.0000
  H   H20       1.0  0.76016  0.78435  0.00408  1.0000
  H   H21       1.0  0.67775  0.10759  0.46988  1.0000
  H   H22       1.0  0.32223  0.60759  0.53010  1.0000
  H   H23       1.0  0.32223  0.10759  0.96988  1.0000
  H   H24       1.0  0.67780  0.60758  0.03011  1.0000
  H   H25       1.0  0.88666  0.67325  0.18119  1.0000
  H   H26       1.0  0.11334  0.17324  0.81881  1.0000
  H   H27       1.0  0.11334  0.67324  0.68119  1.0000
  H   H28       1.0  0.88665  0.17325  0.31880  1.0000
  H   H29       1.0  0.82732  0.68182  0.33661  1.0000
  H   H30       1.0  0.17269  0.18182  0.66340  1.0000
  H   H31       1.0  0.17267  0.68183  0.83661  1.0000
  H   H32       1.0  0.82733  0.18184  0.16339  1.0000
  H   H33       1.0  0.03456  0.51718  0.43399  1.0000
  H   H34       1.0  0.96546  0.01718  0.56601  1.0000
  H   H35       1.0  0.96546  0.51719  0.93400  1.0000
  H   H36       1.0  0.03454  0.01719  0.06600  1.0000
  C   C1        1.0  0.17755  0.50473  0.10090  1.0000
  C   C2        1.0  0.82246  0.00470  0.89910  1.0000
  C   C3        1.0  0.82246  0.50470  0.60090  1.0000
  C   C4        1.0  0.17752  0.00467  0.39910  1.0000
  C   C5        1.0  0.14142  0.51296  0.19466  1.0000
  C   C6        1.0  0.85858  0.01295  0.80534  1.0000
  C   C7        1.0  0.85858  0.51294  0.69466  1.0000
  C   C8        1.0  0.14141  0.01293  0.30533  1.0000
  C   C9        1.0  0.98253  0.60609  0.22447  1.0000
  C   C10       1.0  0.01748  0.10608  0.77554  1.0000
  C   C11       1.0  0.01748  0.60608  0.72447  1.0000
  C   C12       1.0  0.98251  0.10609  0.27553  1.0000
  C   C13       1.0  0.94817  0.60948  0.31147  1.0000
  C   C14       1.0  0.05184  0.10948  0.68854  1.0000
  C   C15       1.0  0.05183  0.60948  0.81147  1.0000
  C   C16       1.0  0.94817  0.10949  0.18853  1.0000
  C   C17       1.0  0.06562  0.51944  0.36634  1.0000
  C   C18       1.0  0.93440  0.01945  0.63367  1.0000
  C   C19       1.0  0.93439  0.51946  0.86634  1.0000
  C   C20       1.0  0.06559  0.01946  0.13366  1.0000
  C   C21       1.0  0.25785  0.42733  0.25277  1.0000
  C   C22       1.0  0.74215  0.92732  0.74724  1.0000
  C   C23       1.0  0.74216  0.42732  0.75277  1.0000
  C   C24       1.0  0.25784  0.92732  0.24723  1.0000
  C   C25       1.0  0.42885  0.32424  0.23041  1.0000
  C   C26       1.0  0.57115  0.82424  0.76959  1.0000
  C   C27       1.0  0.57114  0.32424  0.73042  1.0000
  C   C28       1.0  0.42886  0.82424  0.26958  1.0000
  N   N1        1.0  0.22053  0.42900  0.33868  1.0000
  N   N2        1.0  0.77948  0.92900  0.66132  1.0000
  N   N3        1.0  0.77948  0.42900  0.83868  1.0000
  N   N4        1.0  0.22051  0.92901  0.16131  1.0000
  O   O1        1.0  0.51929  0.25950  0.29368  1.0000
  O   O2        1.0  0.48071  0.75951  0.70631  1.0000
  O   O3        1.0  0.48072  0.25951  0.79368  1.0000
  O   O4        1.0  0.51928  0.75951  0.20632  1.0000
  O   O5        1.0  0.47482  0.29810  0.15306  1.0000
  O   O6        1.0  0.52516  0.79811  0.84694  1.0000
  O   O7        1.0  0.52516  0.29811  0.65305  1.0000
  O   O8        1.0  0.47484  0.79811  0.34695  1.0000
  O   O9        1.0  0.28534  0.61216  0.06499  1.0000
  O   O10       1.0  0.71466  0.11212  0.93502  1.0000
  O   O11       1.0  0.71467  0.61215  0.56499  1.0000
  O   O12       1.0  0.28533  0.11210  0.43502  1.0000
  O   O13       1.0  0.09037  0.39512  0.05904  1.0000
  O   O14       1.0  0.90964  0.89508  0.94095  1.0000
  O   O15       1.0  0.90961  0.39508  0.55905  1.0000
  O   O16       1.0  0.09036  0.89505  0.44094  1.0000
  O   O17       1.0  0.58322  0.52010  0.40652  1.0000
  O   O18       1.0  0.41679  0.02009  0.59350  1.0000
  O   O19       1.0  0.41679  0.52011  0.90651  1.0000
  O   O20       1.0  0.58321  0.02009  0.09350  1.0000
  O   O21       1.0  0.30754  0.40200  0.52625  1.0000
  O   O22       1.0  0.69245  0.90203  0.47374  1.0000
  O   O23       1.0  0.69246  0.40201  0.02626  1.0000
  O   O24       1.0  0.30755  0.90202  0.97373  1.0000
  O   O25       1.0  0.67711  0.22282  0.45480  1.0000
  O   O26       1.0  0.32284  0.72280  0.54520  1.0000
  O   O27       1.0  0.32285  0.22282  0.95480  1.0000
  O   O28       1.0  0.67719  0.72280  0.04520  1.0000
