data_image0
_chemical_formula_structural       Zn4H44C52N8O32
_chemical_formula_sum              "Zn4 H44 C52 N8 O32"
_cell_length_a       9.68434
_cell_length_b       9.8499
_cell_length_c       18.118
_cell_angle_alpha    79.2502
_cell_angle_beta     74.5384
_cell_angle_gamma    60.574

_space_group_name_H-M_alt    "P 1"
_space_group_IT_number       1

loop_
  _space_group_symop_operation_xyz
  'x, y, z'

loop_
  _atom_site_type_symbol
  _atom_site_label
  _atom_site_symmetry_multiplicity
  _atom_site_fract_x
  _atom_site_fract_y
  _atom_site_fract_z
  _atom_site_occupancy
  Zn  Zn1       1.0  0.26892  0.98316  0.77989  1.0000
  Zn  Zn2       1.0  0.96791  0.48319  0.27990  1.0000
  Zn  Zn3       1.0  0.73108  0.01684  0.22011  1.0000
  Zn  Zn4       1.0  0.03209  0.51681  0.72010  1.0000
  H   H1        1.0  0.73120  0.97988  0.75277  1.0000
  H   H2        1.0  0.53601  0.48010  0.25278  1.0000
  H   H3        1.0  0.26880  0.02012  0.24723  1.0000
  H   H4        1.0  0.46399  0.51990  0.74721  1.0000
  H   H5        1.0  0.50420  0.33999  0.58440  1.0000
  H   H6        1.0  0.57078  0.84025  0.08436  1.0000
  H   H7        1.0  0.49580  0.66000  0.41560  1.0000
  H   H8        1.0  0.42922  0.15976  0.91564  1.0000
  H   H9        1.0  0.95246  0.26740  0.63066  1.0000
  H   H10       1.0  0.14897  0.76748  0.13079  1.0000
  H   H11       1.0  0.04754  0.73260  0.36934  1.0000
  H   H12       1.0  0.85103  0.23252  0.86921  1.0000
  H   H13       1.0  0.14528  0.77627  0.88277  1.0000
  H   H14       1.0  0.19608  0.27589  0.38271  1.0000
  H   H15       1.0  0.85472  0.22374  0.11723  1.0000
  H   H16       1.0  0.80392  0.72411  0.61729  1.0000
  H   H17       1.0  0.23797  0.56303  0.98405  1.0000
  H   H18       1.0  0.21520  0.06273  0.48401  1.0000
  H   H19       1.0  0.76202  0.43698  0.01596  1.0000
  H   H20       1.0  0.78480  0.93727  0.51599  1.0000
  H   H21       1.0  0.67719  0.61002  0.93855  1.0000
  H   H22       1.0  0.77447  0.10995  0.43832  1.0000
  H   H23       1.0  0.32281  0.38998  0.06145  1.0000
  H   H24       1.0  0.22553  0.89005  0.56168  1.0000
  H   H25       1.0  0.56601  0.81751  0.84038  1.0000
  H   H26       1.0  0.77642  0.31739  0.34019  1.0000
  H   H27       1.0  0.43399  0.18248  0.15962  1.0000
  H   H28       1.0  0.22358  0.68261  0.65981  1.0000
  H   H29       1.0  0.12099  0.23385  0.87498  1.0000
  H   H30       1.0  0.77044  0.73392  0.37495  1.0000
  H   H31       1.0  0.87901  0.76615  0.12502  1.0000
  H   H32       1.0  0.22956  0.26608  0.62505  1.0000
  H   H33       1.0  0.13418  0.08337  0.92860  1.0000
  H   H34       1.0  0.85376  0.58337  0.42862  1.0000
  H   H35       1.0  0.86582  0.91663  0.07140  1.0000
  H   H36       1.0  0.14624  0.41663  0.57138  1.0000
  H   H37       1.0  0.43065  0.89553  0.64584  1.0000
  H   H38       1.0  0.02771  0.39554  0.14580  1.0000
  H   H39       1.0  0.56935  0.10447  0.35416  1.0000
  H   H40       1.0  0.97229  0.60446  0.85419  1.0000
  H   H41       1.0  0.51734  0.73081  0.69134  1.0000
  H   H42       1.0  0.06025  0.23084  0.19135  1.0000
  H   H43       1.0  0.48266  0.26919  0.30866  1.0000
  H   H44       1.0  0.93975  0.76916  0.80865  1.0000
  C   C1        1.0  0.85832  0.11076  0.69485  1.0000
  C   C2        1.0  0.33574  0.61093  0.19496  1.0000
  C   C3        1.0  0.14169  0.88924  0.30515  1.0000
  C   C4        1.0  0.66426  0.38907  0.80504  1.0000
  C   C5        1.0  0.73195  0.07268  0.70957  1.0000
  C   C6        1.0  0.48547  0.57295  0.20962  1.0000
  C   C7        1.0  0.26805  0.92731  0.29043  1.0000
  C   C8        1.0  0.51453  0.42706  0.79038  1.0000
  C   C9        1.0  0.60615  0.15241  0.66915  1.0000
  C   C10       1.0  0.57188  0.65269  0.16915  1.0000
  C   C11       1.0  0.39385  0.84759  0.33085  1.0000
  C   C12       1.0  0.42812  0.34732  0.83085  1.0000
  C   C13       1.0  0.60148  0.27646  0.61613  1.0000
  C   C14       1.0  0.50540  0.77668  0.11614  1.0000
  C   C15       1.0  0.39852  0.72354  0.38387  1.0000
  C   C16       1.0  0.49460  0.22333  0.88386  1.0000
  C   C17       1.0  0.72589  0.31629  0.60458  1.0000
  C   C18       1.0  0.35269  0.81643  0.10465  1.0000
  C   C19       1.0  0.27412  0.68371  0.39542  1.0000
  C   C20       1.0  0.64731  0.18357  0.89535  1.0000
  C   C21       1.0  0.85674  0.23371  0.64114  1.0000
  C   C22       1.0  0.26793  0.73385  0.14125  1.0000
  C   C23       1.0  0.14327  0.76629  0.35886  1.0000
  C   C24       1.0  0.73207  0.26616  0.85875  1.0000
  C   C25       1.0  0.99220  0.02600  0.73916  1.0000
  C   C26       1.0  0.24256  0.52599  0.23928  1.0000
  C   C27       1.0  0.00781  0.97400  0.26084  1.0000
  C   C28       1.0  0.75744  0.47401  0.76072  1.0000
  C   C29       1.0  0.47662  0.10349  0.68314  1.0000
  C   C30       1.0  0.73637  0.60374  0.18310  1.0000
  C   C31       1.0  0.52338  0.89651  0.31686  1.0000
  C   C32       1.0  0.26363  0.39626  0.81690  1.0000
  C   C33       1.0  0.26229  0.73361  0.89788  1.0000
  C   C34       1.0  0.10660  0.23328  0.39780  1.0000
  C   C35       1.0  0.73771  0.26640  0.10212  1.0000
  C   C36       1.0  0.89340  0.76672  0.60220  1.0000
  C   C37       1.0  0.31615  0.61483  0.95430  1.0000
  C   C38       1.0  0.11498  0.11457  0.45422  1.0000
  C   C39       1.0  0.68385  0.38517  0.04571  1.0000
  C   C40       1.0  0.88502  0.88543  0.54577  1.0000
  C   C41       1.0  0.46828  0.56435  0.97087  1.0000
  C   C42       1.0  0.99664  0.06424  0.47081  1.0000
  C   C43       1.0  0.53172  0.43566  0.02914  1.0000
  C   C44       1.0  0.00336  0.93576  0.52919  1.0000
  C   C45       1.0  0.55841  0.64067  0.92945  1.0000
  C   C46       1.0  0.87170  0.14055  0.42929  1.0000
  C   C47       1.0  0.44158  0.35933  0.07055  1.0000
  C   C48       1.0  0.12830  0.85944  0.57071  1.0000
  C   C49       1.0  0.49721  0.75823  0.87385  1.0000
  C   C50       1.0  0.87103  0.25809  0.37369  1.0000
  C   C51       1.0  0.50279  0.24177  0.12615  1.0000
  C   C52       1.0  0.12897  0.74191  0.62631  1.0000
  N   N1        1.0  0.71742  0.45131  0.55192  1.0000
  N   N2        1.0  0.27882  0.95133  0.05190  1.0000
  N   N3        1.0  0.28258  0.54869  0.44808  1.0000
  N   N4        1.0  0.72117  0.04867  0.94810  1.0000
  N   N5        1.0  0.35175  0.80325  0.85799  1.0000
  N   N6        1.0  0.98731  0.30307  0.35790  1.0000
  N   N7        1.0  0.64825  0.19675  0.14201  1.0000
  N   N8        1.0  0.01269  0.69692  0.64209  1.0000
  O   O1        1.0  0.09563  0.07816  0.72310  1.0000
  O   O2        1.0  0.10301  0.57812  0.22324  1.0000
  O   O3        1.0  0.90437  0.92184  0.27690  1.0000
  O   O4        1.0  0.89700  0.42188  0.77676  1.0000
  O   O5        1.0  0.99615  0.91564  0.78818  1.0000
  O   O6        1.0  0.30016  0.41563  0.28828  1.0000
  O   O7        1.0  0.00386  0.08435  0.21182  1.0000
  O   O8        1.0  0.69984  0.58437  0.71172  1.0000
  O   O9        1.0  0.43481  0.05882  0.75294  1.0000
  O   O10       1.0  0.75328  0.55907  0.25290  1.0000
  O   O11       1.0  0.56519  0.94118  0.24706  1.0000
  O   O12       1.0  0.24673  0.44093  0.74710  1.0000
  O   O13       1.0  0.42044  0.10604  0.62712  1.0000
  O   O14       1.0  0.84591  0.60616  0.12705  1.0000
  O   O15       1.0  0.57956  0.89395  0.37289  1.0000
  O   O16       1.0  0.15409  0.39384  0.87295  1.0000
  O   O17       1.0  0.58372  0.55131  0.53838  1.0000
  O   O18       1.0  0.32629  0.05122  0.03821  1.0000
  O   O19       1.0  0.41628  0.44869  0.46162  1.0000
  O   O20       1.0  0.67371  0.94879  0.96179  1.0000
  O   O21       1.0  0.84658  0.45824  0.52313  1.0000
  O   O22       1.0  0.17136  0.95829  0.02317  1.0000
  O   O23       1.0  0.15342  0.54175  0.47687  1.0000
  O   O24       1.0  0.82863  0.04172  0.97683  1.0000
  O   O25       1.0  0.11800  0.13376  0.87717  1.0000
  O   O26       1.0  0.87118  0.63374  0.37720  1.0000
  O   O27       1.0  0.88200  0.86625  0.12284  1.0000
  O   O28       1.0  0.12882  0.36626  0.62280  1.0000
  O   O29       1.0  0.41049  0.81638  0.68206  1.0000
  O   O30       1.0  0.09078  0.31645  0.18206  1.0000
  O   O31       1.0  0.58951  0.18362  0.31795  1.0000
  O   O32       1.0  0.90922  0.68355  0.81795  1.0000
