data_image0
_chemical_formula_structural       Zn2H20C26N4O14
_chemical_formula_sum              "Zn2 H20 C26 N4 O14"
_cell_length_a       8.02403
_cell_length_b       9.21059
_cell_length_c       10.3266
_cell_angle_alpha    74.4661
_cell_angle_beta     88.7694
_cell_angle_gamma    76.7632

_space_group_name_H-M_alt    "P 1"
_space_group_IT_number       1

loop_
  _space_group_symop_operation_xyz
  'x, y, z'

loop_
  _atom_site_type_symbol
  _atom_site_label
  _atom_site_symmetry_multiplicity
  _atom_site_fract_x
  _atom_site_fract_y
  _atom_site_fract_z
  _atom_site_occupancy
  Zn  Zn1       1.0  0.51147  0.77379  0.61686  1.0000
  Zn  Zn2       1.0  0.48854  0.22620  0.38314  1.0000
  H   H1        1.0  0.49923  0.55177  0.80478  1.0000
  H   H2        1.0  0.50078  0.44822  0.19523  1.0000
  H   H3        1.0  0.48730  0.46990  0.68067  1.0000
  H   H4        1.0  0.51270  0.53010  0.31933  1.0000
  H   H5        1.0  0.52861  0.71059  0.13533  1.0000
  H   H6        1.0  0.47139  0.28940  0.86466  1.0000
  H   H7        1.0  0.19172  0.06996  0.84054  1.0000
  H   H8        1.0  0.80826  0.93002  0.15946  1.0000
  H   H9        1.0  0.17210  0.07339  0.25745  1.0000
  H   H10       1.0  0.82791  0.92662  0.74255  1.0000
  H   H11       1.0  0.81826  0.55254  0.76961  1.0000
  H   H12       1.0  0.18176  0.44745  0.23039  1.0000
  H   H13       1.0  0.12725  0.46817  0.72640  1.0000
  H   H14       1.0  0.87277  0.53184  0.27359  1.0000
  H   H15       1.0  0.24319  0.60782  0.51388  1.0000
  H   H16       1.0  0.75680  0.39222  0.48612  1.0000
  H   H17       1.0  0.04289  0.83405  0.35496  1.0000
  H   H18       1.0  0.95709  0.16597  0.64505  1.0000
  H   H19       1.0  0.73787  0.90587  0.41255  1.0000
  H   H20       1.0  0.26212  0.09413  0.58745  1.0000
  C   C1        1.0  0.42262  0.80765  0.35603  1.0000
  C   C2        1.0  0.57738  0.19234  0.64397  1.0000
  C   C3        1.0  0.35677  0.88255  0.21342  1.0000
  C   C4        1.0  0.64323  0.11743  0.78658  1.0000
  C   C5        1.0  0.42589  0.81504  0.11198  1.0000
  C   C6        1.0  0.57410  0.18495  0.88801  1.0000
  C   C7        1.0  0.36845  0.88145  0.97786  1.0000
  C   C8        1.0  0.63153  0.11854  0.02215  1.0000
  C   C9        1.0  0.44796  0.80493  0.87260  1.0000
  C   C10       1.0  0.55203  0.19506  0.12739  1.0000
  C   C11       1.0  0.23855  0.01661  0.94424  1.0000
  C   C12       1.0  0.76143  0.98338  0.05577  1.0000
  C   C13       1.0  0.16879  0.08128  0.04651  1.0000
  C   C14       1.0  0.83120  0.91872  0.95349  1.0000
  C   C15       1.0  0.22679  0.01818  0.18049  1.0000
  C   C16       1.0  0.77321  0.98182  0.81951  1.0000
  C   C17       1.0  0.87319  0.61112  0.67864  1.0000
  C   C18       1.0  0.12682  0.38888  0.32136  1.0000
  C   C19       1.0  0.04551  0.56484  0.65379  1.0000
  C   C20       1.0  0.95451  0.43517  0.34620  1.0000
  C   C21       1.0  0.10941  0.64380  0.53622  1.0000
  C   C22       1.0  0.89060  0.35622  0.46378  1.0000
  C   C23       1.0  0.99888  0.76883  0.44808  1.0000
  C   C24       1.0  0.00112  0.23119  0.55192  1.0000
  C   C25       1.0  0.82829  0.80927  0.47894  1.0000
  C   C26       1.0  0.17170  0.19073  0.52107  1.0000
  N   N1        1.0  0.02730  0.22059  0.01144  1.0000
  N   N2        1.0  0.97271  0.77942  0.98856  1.0000
  N   N3        1.0  0.76629  0.73068  0.59211  1.0000
  N   N4        1.0  0.23371  0.26932  0.40790  1.0000
  O   O1        1.0  0.39099  0.89105  0.43992  1.0000
  O   O2        1.0  0.60900  0.10894  0.56009  1.0000
  O   O3        1.0  0.40196  0.88196  0.74914  1.0000
  O   O4        1.0  0.59804  0.11804  0.25085  1.0000
  O   O5        1.0  0.50488  0.66799  0.38941  1.0000
  O   O6        1.0  0.49515  0.33201  0.61059  1.0000
  O   O7        1.0  0.55172  0.67563  0.90923  1.0000
  O   O8        1.0  0.44827  0.32436  0.09076  1.0000
  O   O9        1.0  0.45849  0.56741  0.71148  1.0000
  O   O10       1.0  0.54151  0.43259  0.28852  1.0000
  O   O11       1.0  0.96007  0.27210  0.10395  1.0000
  O   O12       1.0  0.03998  0.72793  0.89605  1.0000
  O   O13       1.0  0.98172  0.27701  0.89050  1.0000
  O   O14       1.0  0.01827  0.72299  0.10951  1.0000
