data_image0
_chemical_formula_structural       Ni2P2H14C16N6Cl2O6
_chemical_formula_sum              "Ni2 P2 H14 C16 N6 Cl2 O6"
_cell_length_a       7.44982
_cell_length_b       7.60123
_cell_length_c       10.7459
_cell_angle_alpha    91.4925
_cell_angle_beta     110.746
_cell_angle_gamma    94.4394

_space_group_name_H-M_alt    "P 1"
_space_group_IT_number       1

loop_
  _space_group_symop_operation_xyz
  'x, y, z'

loop_
  _atom_site_type_symbol
  _atom_site_label
  _atom_site_symmetry_multiplicity
  _atom_site_fract_x
  _atom_site_fract_y
  _atom_site_fract_z
  _atom_site_occupancy
  Ni  Ni1       1.0  0.00001  0.50003  0.50001  1.0000
  Ni  Ni2       1.0  0.50000  0.49999  0.50000  1.0000
  P   P1        1.0  0.81947  0.84472  0.58487  1.0000
  P   P2        1.0  0.18052  0.15529  0.41513  1.0000
  H   H1        1.0  0.90583  0.11304  0.52430  1.0000
  H   H2        1.0  0.09414  0.88695  0.47570  1.0000
  H   H3        1.0  0.20589  0.81053  0.78250  1.0000
  H   H4        1.0  0.37395  0.18521  0.22342  1.0000
  H   H5        1.0  0.79411  0.18963  0.21752  1.0000
  H   H6        1.0  0.62602  0.81466  0.77657  1.0000
  H   H7        1.0  0.31866  0.74537  0.02013  1.0000
  H   H8        1.0  0.26354  0.24601  0.98455  1.0000
  H   H9        1.0  0.68137  0.25479  0.97989  1.0000
  H   H10       1.0  0.73643  0.75383  0.01542  1.0000
  H   H11       1.0  0.82794  0.64374  0.20724  1.0000
  H   H12       1.0  0.59223  0.32392  0.77814  1.0000
  H   H13       1.0  0.17211  0.35640  0.79281  1.0000
  H   H14       1.0  0.40775  0.67592  0.22180  1.0000
  C   C1        1.0  0.90886  0.82102  0.76407  1.0000
  C   C2        1.0  0.09113  0.17899  0.23594  1.0000
  C   C3        1.0  0.10425  0.80380  0.83484  1.0000
  C   C4        1.0  0.22109  0.19444  0.16831  1.0000
  C   C5        1.0  0.89576  0.19629  0.16518  1.0000
  C   C6        1.0  0.77890  0.80547  0.83167  1.0000
  C   C7        1.0  0.16739  0.76473  0.96856  1.0000
  C   C8        1.0  0.15913  0.23193  0.03424  1.0000
  C   C9        1.0  0.83261  0.23534  0.03145  1.0000
  C   C10       1.0  0.84085  0.76798  0.96574  1.0000
  C   C11       1.0  0.03494  0.74391  0.03367  1.0000
  C   C12       1.0  0.96507  0.25609  0.96633  1.0000
  C   C13       1.0  0.98187  0.63702  0.23749  1.0000
  C   C14       1.0  0.72154  0.34597  0.75478  1.0000
  C   C15       1.0  0.01816  0.36301  0.76254  1.0000
  C   C16       1.0  0.27846  0.65394  0.24520  1.0000
  N   N1        1.0  0.08794  0.57459  0.35049  1.0000
  N   N2        1.0  0.72587  0.41514  0.64509  1.0000
  N   N3        1.0  0.91208  0.42544  0.64953  1.0000
  N   N4        1.0  0.27414  0.58482  0.35490  1.0000
  N   N5        1.0  0.09597  0.68775  0.16667  1.0000
  N   N6        1.0  0.90405  0.31223  0.83333  1.0000
  Cl  Cl1       1.0  0.66897  0.44927  0.34518  1.0000
  Cl  Cl2       1.0  0.33105  0.55074  0.65483  1.0000
  O   O1        1.0  0.96696  0.77216  0.53056  1.0000
  O   O2        1.0  0.38397  0.24174  0.47117  1.0000
  O   O3        1.0  0.03304  0.22787  0.46944  1.0000
  O   O4        1.0  0.61603  0.75825  0.52884  1.0000
  O   O5        1.0  0.81960  0.04955  0.56923  1.0000
  O   O6        1.0  0.18036  0.95046  0.43075  1.0000
