data_image0
_chemical_formula_structural       Zn4H40C56N16O12
_chemical_formula_sum              "Zn4 H40 C56 N16 O12"
_cell_length_a       5.46841
_cell_length_b       7.96203
_cell_length_c       28.5182
_cell_angle_alpha    90.0004
_cell_angle_beta     90.0001
_cell_angle_gamma    92.711

_space_group_name_H-M_alt    "P 1"
_space_group_IT_number       1

loop_
  _space_group_symop_operation_xyz
  'x, y, z'

loop_
  _atom_site_type_symbol
  _atom_site_label
  _atom_site_symmetry_multiplicity
  _atom_site_fract_x
  _atom_site_fract_y
  _atom_site_fract_z
  _atom_site_occupancy
  Zn  Zn1       1.0  0.96985  0.70457  0.69228  1.0000
  Zn  Zn2       1.0  0.53016  0.79543  0.19228  1.0000
  Zn  Zn3       1.0  0.03015  0.29544  0.30772  1.0000
  Zn  Zn4       1.0  0.46984  0.20457  0.80772  1.0000
  H   H1        1.0  0.71531  0.98020  0.70260  1.0000
  H   H2        1.0  0.78469  0.51981  0.20260  1.0000
  H   H3        1.0  0.28468  0.01980  0.29740  1.0000
  H   H4        1.0  0.21531  0.48021  0.79740  1.0000
  H   H5        1.0  0.54321  0.83753  0.67420  1.0000
  H   H6        1.0  0.95679  0.66247  0.17420  1.0000
  H   H7        1.0  0.45678  0.16247  0.32580  1.0000
  H   H8        1.0  0.04322  0.33754  0.82580  1.0000
  H   H9        1.0  0.60764  0.87759  0.59031  1.0000
  H   H10       1.0  0.89236  0.62239  0.09031  1.0000
  H   H11       1.0  0.39235  0.12240  0.40969  1.0000
  H   H12       1.0  0.10764  0.37760  0.90969  1.0000
  H   H13       1.0  0.99290  0.60485  0.52921  1.0000
  H   H14       1.0  0.50710  0.89515  0.02921  1.0000
  H   H15       1.0  0.00710  0.39514  0.47079  1.0000
  H   H16       1.0  0.49289  0.10486  0.97079  1.0000
  H   H17       1.0  0.81049  0.89196  0.51357  1.0000
  H   H18       1.0  0.68952  0.60804  0.01357  1.0000
  H   H19       1.0  0.18952  0.10803  0.48643  1.0000
  H   H20       1.0  0.31048  0.39195  0.98643  1.0000
  H   H21       1.0  0.19591  0.61411  0.45189  1.0000
  H   H22       1.0  0.30408  0.88589  0.95190  1.0000
  H   H23       1.0  0.80410  0.38587  0.54811  1.0000
  H   H24       1.0  0.69591  0.11411  0.04810  1.0000
  H   H25       1.0  0.92389  0.94571  0.44916  1.0000
  H   H26       1.0  0.57610  0.55430  0.94916  1.0000
  H   H27       1.0  0.07613  0.05428  0.55084  1.0000
  H   H28       1.0  0.42389  0.44570  0.05084  1.0000
  H   H29       1.0  0.40569  0.56143  0.39836  1.0000
  H   H30       1.0  0.09431  0.93857  0.89836  1.0000
  H   H31       1.0  0.59432  0.43857  0.60164  1.0000
  H   H32       1.0  0.90569  0.06142  0.10164  1.0000
  H   H33       1.0  0.16908  0.91669  0.37786  1.0000
  H   H34       1.0  0.33091  0.58332  0.87786  1.0000
  H   H35       1.0  0.83094  0.08331  0.62214  1.0000
  H   H36       1.0  0.66908  0.41668  0.12214  1.0000
  H   H37       1.0  0.64358  0.54120  0.32633  1.0000
  H   H38       1.0  0.85642  0.95880  0.82633  1.0000
  H   H39       1.0  0.35644  0.45880  0.67367  1.0000
  H   H40       1.0  0.14357  0.04120  0.17367  1.0000
  C   C1        1.0  0.15958  0.72563  0.61084  1.0000
  C   C2        1.0  0.34042  0.77437  0.11084  1.0000
  C   C3        1.0  0.84041  0.27437  0.38916  1.0000
  C   C4        1.0  0.65957  0.22564  0.88916  1.0000
  C   C5        1.0  0.28659  0.73890  0.56497  1.0000
  C   C6        1.0  0.21341  0.76110  0.06497  1.0000
  C   C7        1.0  0.71341  0.26109  0.43503  1.0000
  C   C8        1.0  0.78659  0.23891  0.93503  1.0000
  C   C9        1.0  0.51700  0.82109  0.55986  1.0000
  C   C10       1.0  0.98300  0.67890  0.05986  1.0000
  C   C11       1.0  0.48300  0.17890  0.44014  1.0000
  C   C12       1.0  0.01700  0.32110  0.94014  1.0000
  C   C13       1.0  0.17353  0.66592  0.52530  1.0000
  C   C14       1.0  0.32647  0.83408  0.02530  1.0000
  C   C15       1.0  0.82647  0.33407  0.47470  1.0000
  C   C16       1.0  0.67352  0.16593  0.97470  1.0000
  C   C17       1.0  0.63063  0.82856  0.51630  1.0000
  C   C18       1.0  0.86937  0.67143  0.01630  1.0000
  C   C19       1.0  0.36936  0.17143  0.48370  1.0000
  C   C20       1.0  0.13063  0.32857  0.98370  1.0000
  C   C21       1.0  0.28879  0.67202  0.48195  1.0000
  C   C22       1.0  0.21121  0.82799  0.98196  1.0000
  C   C23       1.0  0.71122  0.32797  0.51805  1.0000
  C   C24       1.0  0.78878  0.17202  0.01805  1.0000
  C   C25       1.0  0.52147  0.75270  0.47638  1.0000
  C   C26       1.0  0.97853  0.74731  0.97638  1.0000
  C   C27       1.0  0.47854  0.24730  0.52362  1.0000
  C   C28       1.0  0.02146  0.25270  0.02362  1.0000
  C   C29       1.0  0.64928  0.75225  0.43072  1.0000
  C   C30       1.0  0.85072  0.74776  0.93072  1.0000
  C   C31       1.0  0.35072  0.24774  0.56928  1.0000
  C   C32       1.0  0.14928  0.25224  0.06928  1.0000
  C   C33       1.0  0.86161  0.85506  0.42273  1.0000
  C   C34       1.0  0.63838  0.64496  0.92273  1.0000
  C   C35       1.0  0.13840  0.14494  0.57728  1.0000
  C   C36       1.0  0.36161  0.35505  0.07727  1.0000
  C   C37       1.0  0.57022  0.64283  0.39431  1.0000
  C   C38       1.0  0.92978  0.85718  0.89431  1.0000
  C   C39       1.0  0.42979  0.35717  0.60569  1.0000
  C   C40       1.0  0.07022  0.14282  0.10569  1.0000
  C   C41       1.0  0.99948  0.84108  0.38215  1.0000
  C   C42       1.0  0.50051  0.65894  0.88215  1.0000
  C   C43       1.0  0.00053  0.15892  0.61785  1.0000
  C   C44       1.0  0.49948  0.34106  0.11785  1.0000
  C   C45       1.0  0.70647  0.62938  0.35347  1.0000
  C   C46       1.0  0.79353  0.87063  0.85347  1.0000
  C   C47       1.0  0.29354  0.37063  0.64653  1.0000
  C   C48       1.0  0.20646  0.12937  0.14653  1.0000
  C   C49       1.0  0.92782  0.72354  0.34764  1.0000
  C   C50       1.0  0.57217  0.77647  0.84764  1.0000
  C   C51       1.0  0.07219  0.27647  0.65236  1.0000
  C   C52       1.0  0.42782  0.22353  0.15236  1.0000
  C   C53       1.0  0.08888  0.69124  0.30820  1.0000
  C   C54       1.0  0.41112  0.80876  0.80821  1.0000
  C   C55       1.0  0.91113  0.30876  0.69179  1.0000
  C   C56       1.0  0.58887  0.19124  0.19180  1.0000
  N   N1        1.0  0.34607  0.71625  0.25225  1.0000
  N   N2        1.0  0.15393  0.78375  0.75224  1.0000
  N   N3        1.0  0.65393  0.28375  0.74775  1.0000
  N   N4        1.0  0.84607  0.21626  0.24775  1.0000
  N   N5        1.0  0.28521  0.55538  0.25521  1.0000
  N   N6        1.0  0.21479  0.94462  0.75521  1.0000
  N   N7        1.0  0.71479  0.44463  0.74479  1.0000
  N   N8        1.0  0.78521  0.05538  0.24479  1.0000
  N   N9        1.0  0.12465  0.53599  0.29041  1.0000
  N   N10       1.0  0.37535  0.96401  0.79041  1.0000
  N   N11       1.0  0.87535  0.46401  0.70959  1.0000
  N   N12       1.0  0.62465  0.03599  0.20959  1.0000
  N   N13       1.0  0.22913  0.80555  0.28466  1.0000
  N   N14       1.0  0.27087  0.69446  0.78466  1.0000
  N   N15       1.0  0.77088  0.19446  0.71534  1.0000
  N   N16       1.0  0.72912  0.30555  0.21534  1.0000
  O   O1        1.0  0.94362  0.66114  0.61354  1.0000
  O   O2        1.0  0.55639  0.83885  0.11354  1.0000
  O   O3        1.0  0.05638  0.33885  0.38646  1.0000
  O   O4        1.0  0.44360  0.16116  0.88645  1.0000
  O   O5        1.0  0.69044  0.85746  0.69444  1.0000
  O   O6        1.0  0.80956  0.64254  0.19445  1.0000
  O   O7        1.0  0.30955  0.14254  0.30556  1.0000
  O   O8        1.0  0.19045  0.35747  0.80555  1.0000
  O   O9        1.0  0.26866  0.77872  0.64893  1.0000
  O   O10       1.0  0.23134  0.72128  0.14893  1.0000
  O   O11       1.0  0.73132  0.22128  0.35107  1.0000
  O   O12       1.0  0.76867  0.27872  0.85106  1.0000
