data_image0
_chemical_formula_structural       Cu4H36C24N4O20
_chemical_formula_sum              "Cu4 H36 C24 N4 O20"
_cell_length_a       8.38809
_cell_length_b       8.38656
_cell_length_c       11.9443
_cell_angle_alpha    89.9955
_cell_angle_beta     90.0207
_cell_angle_gamma    90.0262

_space_group_name_H-M_alt    "P 1"
_space_group_IT_number       1

loop_
  _space_group_symop_operation_xyz
  'x, y, z'

loop_
  _atom_site_type_symbol
  _atom_site_label
  _atom_site_symmetry_multiplicity
  _atom_site_fract_x
  _atom_site_fract_y
  _atom_site_fract_z
  _atom_site_occupancy
  Cu  Cu1       1.0  0.90567  0.30349  0.11139  1.0000
  Cu  Cu2       1.0  0.09419  0.69631  0.61160  1.0000
  Cu  Cu3       1.0  0.69632  0.90581  0.86149  1.0000
  Cu  Cu4       1.0  0.30351  0.09409  0.36160  1.0000
  H   H1        1.0  0.02228  0.12037  0.91134  1.0000
  H   H2        1.0  0.97776  0.87956  0.41150  1.0000
  H   H3        1.0  0.87956  0.02325  0.66200  1.0000
  H   H4        1.0  0.12040  0.97677  0.16189  1.0000
  H   H5        1.0  0.41898  0.18750  0.11253  1.0000
  H   H6        1.0  0.58108  0.81274  0.61251  1.0000
  H   H7        1.0  0.81245  0.41896  0.86223  1.0000
  H   H8        1.0  0.18740  0.58096  0.36219  1.0000
  H   H9        1.0  0.54134  0.35318  0.07432  1.0000
  H   H10       1.0  0.45869  0.64694  0.57437  1.0000
  H   H11       1.0  0.64659  0.54118  0.82425  1.0000
  H   H12       1.0  0.35340  0.45890  0.32438  1.0000
  H   H13       1.0  0.28723  0.46138  0.90506  1.0000
  H   H14       1.0  0.71278  0.53861  0.40508  1.0000
  H   H15       1.0  0.53861  0.28785  0.65519  1.0000
  H   H16       1.0  0.46138  0.71222  0.15524  1.0000
  H   H17       1.0  0.30871  0.43415  0.75738  1.0000
  H   H18       1.0  0.69130  0.56585  0.25739  1.0000
  H   H19       1.0  0.56585  0.30908  0.50747  1.0000
  H   H20       1.0  0.43412  0.69097  0.00752  1.0000
  H   H21       1.0  0.44214  0.33410  0.85186  1.0000
  H   H22       1.0  0.55786  0.66586  0.35180  1.0000
  H   H23       1.0  0.66592  0.44274  0.60182  1.0000
  H   H24       1.0  0.33407  0.55730  0.10185  1.0000
  H   H25       1.0  0.14855  0.02302  0.76835  1.0000
  H   H26       1.0  0.85145  0.97700  0.26842  1.0000
  H   H27       1.0  0.97647  0.14853  0.51843  1.0000
  H   H28       1.0  0.02349  0.85149  0.01826  1.0000
  H   H29       1.0  0.35525  0.07190  0.76394  1.0000
  H   H30       1.0  0.64477  0.92812  0.26387  1.0000
  H   H31       1.0  0.92803  0.35528  0.51350  1.0000
  H   H32       1.0  0.07195  0.64474  0.01341  1.0000
  H   H33       1.0  0.21998  0.17375  0.67308  1.0000
  H   H34       1.0  0.78004  0.82627  0.17311  1.0000
  H   H35       1.0  0.82556  0.21968  0.42324  1.0000
  H   H36       1.0  0.17436  0.78032  0.92314  1.0000
  C   C1        1.0  0.61249  0.24506  0.22543  1.0000
  C   C2        1.0  0.38771  0.75509  0.72545  1.0000
  C   C3        1.0  0.75524  0.61231  0.97520  1.0000
  C   C4        1.0  0.24493  0.38771  0.47524  1.0000
  C   C5        1.0  0.09913  0.22616  0.91966  1.0000
  C   C6        1.0  0.90086  0.77380  0.41977  1.0000
  C   C7        1.0  0.77383  0.10008  0.67025  1.0000
  C   C8        1.0  0.22612  0.89991  0.17020  1.0000
  C   C9        1.0  0.54174  0.23068  0.10796  1.0000
  C   C10       1.0  0.45832  0.76945  0.60801  1.0000
  C   C11       1.0  0.76918  0.54170  0.85777  1.0000
  C   C12       1.0  0.23079  0.45827  0.35781  1.0000
  C   C13       1.0  0.31939  0.37663  0.83952  1.0000
  C   C14       1.0  0.68061  0.62335  0.33952  1.0000
  C   C15       1.0  0.62333  0.31993  0.58963  1.0000
  C   C16       1.0  0.37666  0.68011  0.08964  1.0000
  C   C17       1.0  0.23402  0.12029  0.75648  1.0000
  C   C18       1.0  0.76601  0.87972  0.25650  1.0000
  C   C19       1.0  0.87937  0.23406  0.50650  1.0000
  C   C20       1.0  0.12060  0.76597  0.00638  1.0000
  C   C21       1.0  0.63688  0.13172  0.02582  1.0000
  C   C22       1.0  0.36288  0.86831  0.52597  1.0000
  C   C23       1.0  0.86788  0.63703  0.77550  1.0000
  C   C24       1.0  0.13226  0.36277  0.27550  1.0000
  N   N1        1.0  0.21150  0.24080  0.84267  1.0000
  N   N2        1.0  0.78848  0.75920  0.34272  1.0000
  N   N3        1.0  0.75910  0.21210  0.59296  1.0000
  N   N4        1.0  0.24089  0.78795  0.09288  1.0000
  O   O1        1.0  0.76398  0.26323  0.23666  1.0000
  O   O2        1.0  0.23637  0.73572  0.73672  1.0000
  O   O3        1.0  0.73649  0.76371  0.98651  1.0000
  O   O4        1.0  0.26310  0.23624  0.48660  1.0000
  O   O5        1.0  0.78877  0.14714  0.01892  1.0000
  O   O6        1.0  0.21098  0.85303  0.51936  1.0000
  O   O7        1.0  0.85238  0.78894  0.76858  1.0000
  O   O8        1.0  0.14792  0.21090  0.26861  1.0000
  O   O9        1.0  0.07756  0.32608  0.99795  1.0000
  O   O10       1.0  0.92238  0.67386  0.49808  1.0000
  O   O11       1.0  0.67408  0.07866  0.74867  1.0000
  O   O12       1.0  0.32582  0.92125  0.24870  1.0000
  O   O13       1.0  0.52110  0.24425  0.30858  1.0000
  O   O14       1.0  0.47887  0.75699  0.80876  1.0000
  O   O15       1.0  0.75698  0.52100  0.05843  1.0000
  O   O16       1.0  0.24400  0.47916  0.55837  1.0000
  O   O17       1.0  0.55980  0.03674  0.96327  1.0000
  O   O18       1.0  0.43974  0.96316  0.46317  1.0000
  O   O19       1.0  0.96274  0.55989  0.71294  1.0000
  O   O20       1.0  0.03725  0.43964  0.21281  1.0000
