data_image0
_chemical_formula_structural       Cu4H36C24N4O20
_chemical_formula_sum              "Cu4 H36 C24 N4 O20"
_cell_length_a       8.41531
_cell_length_b       8.43011
_cell_length_c       11.8821
_cell_angle_alpha    90
_cell_angle_beta     89.9998
_cell_angle_gamma    90.041

_space_group_name_H-M_alt    "P 1"
_space_group_IT_number       1

loop_
  _space_group_symop_operation_xyz
  'x, y, z'

loop_
  _atom_site_type_symbol
  _atom_site_label
  _atom_site_symmetry_multiplicity
  _atom_site_fract_x
  _atom_site_fract_y
  _atom_site_fract_z
  _atom_site_occupancy
  Cu  Cu1       1.0  0.19274  0.59318  0.62673  1.0000
  Cu  Cu2       1.0  0.80725  0.40683  0.12673  1.0000
  Cu  Cu3       1.0  0.40731  0.19247  0.87626  1.0000
  Cu  Cu4       1.0  0.59269  0.80753  0.37625  1.0000
  H   H1        1.0  0.14125  0.95244  0.59120  1.0000
  H   H2        1.0  0.85874  0.04758  0.09121  1.0000
  H   H3        1.0  0.04718  0.14212  0.84155  1.0000
  H   H4        1.0  0.95281  0.85789  0.34155  1.0000
  H   H5        1.0  0.30492  0.07764  0.62852  1.0000
  H   H6        1.0  0.69509  0.92237  0.12854  1.0000
  H   H7        1.0  0.92245  0.30575  0.87922  1.0000
  H   H8        1.0  0.07756  0.69427  0.37921  1.0000
  H   H9        1.0  0.43017  0.13952  0.28825  1.0000
  H   H10       1.0  0.56978  0.86048  0.78826  1.0000
  H   H11       1.0  0.86227  0.42930  0.53826  1.0000
  H   H12       1.0  0.13779  0.57069  0.03826  1.0000
  H   H13       1.0  0.48517  0.34357  0.29248  1.0000
  H   H14       1.0  0.51483  0.65640  0.79250  1.0000
  H   H15       1.0  0.65782  0.48402  0.54202  1.0000
  H   H16       1.0  0.34222  0.51596  0.04200  1.0000
  H   H17       1.0  0.34160  0.27522  0.19108  1.0000
  H   H18       1.0  0.65838  0.72476  0.69109  1.0000
  H   H19       1.0  0.72668  0.34077  0.44078  1.0000
  H   H20       1.0  0.27335  0.65921  0.94075  1.0000
  H   H21       1.0  0.08480  0.18254  0.26079  1.0000
  H   H22       1.0  0.91517  0.81746  0.76079  1.0000
  H   H23       1.0  0.81835  0.08386  0.51065  1.0000
  H   H24       1.0  0.18166  0.91612  0.01062  1.0000
  H   H25       1.0  0.02321  0.23896  0.39882  1.0000
  H   H26       1.0  0.97676  0.76108  0.89881  1.0000
  H   H27       1.0  0.76362  0.02350  0.64937  1.0000
  H   H28       1.0  0.23637  0.97648  0.14935  1.0000
  H   H29       1.0  0.14983  0.06917  0.38050  1.0000
  H   H30       1.0  0.85014  0.93085  0.88049  1.0000
  H   H31       1.0  0.93303  0.15057  0.62935  1.0000
  H   H32       1.0  0.06700  0.84938  0.12933  1.0000
  H   H33       1.0  0.38243  0.47172  0.43327  1.0000
  H   H34       1.0  0.61756  0.52828  0.93329  1.0000
  H   H35       1.0  0.52844  0.38084  0.68244  1.0000
  H   H36       1.0  0.47160  0.61916  0.18241  1.0000
  C   C1        1.0  0.25332  0.88346  0.74189  1.0000
  C   C2        1.0  0.74668  0.11656  0.24190  1.0000
  C   C3        1.0  0.11728  0.25394  0.99217  1.0000
  C   C4        1.0  0.88270  0.74606  0.49216  1.0000
  C   C5        1.0  0.26392  0.95473  0.62395  1.0000
  C   C6        1.0  0.73607  0.04528  0.12397  1.0000
  C   C7        1.0  0.04541  0.26460  0.87432  1.0000
  C   C8        1.0  0.95459  0.73543  0.37432  1.0000
  C   C9        1.0  0.36308  0.86155  0.54077  1.0000
  C   C10       1.0  0.63691  0.13846  0.04079  1.0000
  C   C11       1.0  0.13872  0.36359  0.79109  1.0000
  C   C12       1.0  0.86130  0.63643  0.29108  1.0000
  C   C13       1.0  0.27314  0.40008  0.43666  1.0000
  C   C14       1.0  0.72686  0.59992  0.93667  1.0000
  C   C15       1.0  0.60026  0.27187  0.68574  1.0000
  C   C16       1.0  0.39974  0.72810  0.18572  1.0000
  C   C17       1.0  0.38668  0.26138  0.27734  1.0000
  C   C18       1.0  0.61329  0.73861  0.77735  1.0000
  C   C19       1.0  0.74021  0.38584  0.52704  1.0000
  C   C20       1.0  0.25984  0.61414  0.02702  1.0000
  C   C21       1.0  0.12018  0.18853  0.34953  1.0000
  C   C22       1.0  0.87978  0.81148  0.84953  1.0000
  C   C23       1.0  0.81320  0.12005  0.59926  1.0000
  C   C24       1.0  0.18681  0.87992  0.09924  1.0000
  N   N1        1.0  0.25960  0.29013  0.35781  1.0000
  N   N2        1.0  0.74038  0.70985  0.85782  1.0000
  N   N3        1.0  0.71106  0.25881  0.60734  1.0000
  N   N4        1.0  0.28895  0.74115  0.10734  1.0000
  O   O1        1.0  0.23510  0.73270  0.75286  1.0000
  O   O2        1.0  0.76491  0.26733  0.25287  1.0000
  O   O3        1.0  0.26831  0.23548  0.00283  1.0000
  O   O4        1.0  0.73169  0.76452  0.50283  1.0000
  O   O5        1.0  0.25761  0.97372  0.82584  1.0000
  O   O6        1.0  0.74241  0.02631  0.32584  1.0000
  O   O7        1.0  0.02722  0.25857  0.07629  1.0000
  O   O8        1.0  0.97278  0.74146  0.57629  1.0000
  O   O9        1.0  0.34693  0.71067  0.53247  1.0000
  O   O10       1.0  0.65305  0.28933  0.03248  1.0000
  O   O11       1.0  0.28978  0.34713  0.78244  1.0000
  O   O12       1.0  0.71025  0.65289  0.28243  1.0000
  O   O13       1.0  0.45876  0.93929  0.47928  1.0000
  O   O14       1.0  0.54122  0.06070  0.97931  1.0000
  O   O15       1.0  0.06096  0.45954  0.72996  1.0000
  O   O16       1.0  0.93906  0.54045  0.22995  1.0000
  O   O17       1.0  0.16813  0.42525  0.51120  1.0000
  O   O18       1.0  0.83186  0.57476  0.01121  1.0000
  O   O19       1.0  0.57478  0.16694  0.76016  1.0000
  O   O20       1.0  0.42521  0.83305  0.26015  1.0000
