data_image0
_chemical_formula_structural       Zn2H18C28N2O14
_chemical_formula_sum              "Zn2 H18 C28 N2 O14"
_cell_length_a       7.62055
_cell_length_b       8.41227
_cell_length_c       10.4262
_cell_angle_alpha    96.02
_cell_angle_beta     98.1615
_cell_angle_gamma    104.606

_space_group_name_H-M_alt    "P 1"
_space_group_IT_number       1

loop_
  _space_group_symop_operation_xyz
  'x, y, z'

loop_
  _atom_site_type_symbol
  _atom_site_label
  _atom_site_symmetry_multiplicity
  _atom_site_fract_x
  _atom_site_fract_y
  _atom_site_fract_z
  _atom_site_occupancy
  Zn  Zn1       1.0  0.68621  0.99309  0.24152  1.0000
  Zn  Zn2       1.0  0.31379  0.00691  0.75848  1.0000
  H   H1        1.0  0.68971  0.17059  0.68674  1.0000
  H   H2        1.0  0.31029  0.82941  0.31326  1.0000
  H   H3        1.0  0.41727  0.11337  0.26604  1.0000
  H   H4        1.0  0.58273  0.88663  0.73396  1.0000
  H   H5        1.0  0.41052  0.08751  0.11661  1.0000
  H   H6        1.0  0.58948  0.91249  0.88339  1.0000
  H   H7        1.0  0.74900  0.72361  0.65130  1.0000
  H   H8        1.0  0.25100  0.27639  0.34870  1.0000
  H   H9        1.0  0.76160  0.44174  0.54931  1.0000
  H   H10       1.0  0.23840  0.55826  0.45069  1.0000
  H   H11       1.0  0.78391  0.39907  0.31191  1.0000
  H   H12       1.0  0.21609  0.60093  0.68809  1.0000
  H   H13       1.0  0.00594  0.86594  0.16922  1.0000
  H   H14       1.0  0.99405  0.13406  0.83078  1.0000
  H   H15       1.0  0.89028  0.57372  0.78966  1.0000
  H   H16       1.0  0.10972  0.42628  0.21034  1.0000
  H   H17       1.0  0.60873  0.38399  0.09490  1.0000
  H   H18       1.0  0.39127  0.61601  0.90510  1.0000
  C   C1        1.0  0.72286  0.98506  0.51826  1.0000
  C   C2        1.0  0.27714  0.01494  0.48174  1.0000
  C   C3        1.0  0.74874  0.81934  0.46802  1.0000
  C   C4        1.0  0.25125  0.18066  0.53198  1.0000
  C   C5        1.0  0.75300  0.69685  0.54762  1.0000
  C   C6        1.0  0.24699  0.30315  0.45238  1.0000
  C   C7        1.0  0.76262  0.54211  0.49101  1.0000
  C   C8        1.0  0.23737  0.45789  0.50898  1.0000
  C   C9        1.0  0.77394  0.51765  0.35879  1.0000
  C   C10       1.0  0.22606  0.48235  0.64121  1.0000
  C   C11       1.0  0.77624  0.64869  0.28524  1.0000
  C   C12       1.0  0.22376  0.35131  0.71476  1.0000
  C   C13       1.0  0.80040  0.62947  0.14683  1.0000
  C   C14       1.0  0.19960  0.37053  0.85317  1.0000
  C   C15       1.0  0.92654  0.75444  0.10252  1.0000
  C   C16       1.0  0.07345  0.24555  0.89748  1.0000
  C   C17       1.0  0.95809  0.73475  0.97377  1.0000
  C   C18       1.0  0.04191  0.26525  0.02622  1.0000
  C   C19       1.0  0.86207  0.59035  0.88871  1.0000
  C   C20       1.0  0.13793  0.40965  0.11129  1.0000
  C   C21       1.0  0.73541  0.46498  0.93194  1.0000
  C   C22       1.0  0.26458  0.53502  0.06806  1.0000
  C   C23       1.0  0.70489  0.48385  0.06133  1.0000
  C   C24       1.0  0.29512  0.51615  0.93867  1.0000
  C   C25       1.0  0.10155  0.86431  0.92963  1.0000
  C   C26       1.0  0.89845  0.13569  0.07037  1.0000
  C   C27       1.0  0.64098  0.30832  0.84286  1.0000
  C   C28       1.0  0.35902  0.69167  0.15714  1.0000
  N   N1        1.0  0.76094  0.79639  0.33994  1.0000
  N   N2        1.0  0.23906  0.20361  0.66006  1.0000
  O   O1        1.0  0.70450  0.08498  0.43784  1.0000
  O   O2        1.0  0.29550  0.91502  0.56216  1.0000
  O   O3        1.0  0.71934  0.01486  0.64040  1.0000
  O   O4        1.0  0.28067  0.98514  0.35960  1.0000
  O   O5        1.0  0.21247  0.97646  0.01220  1.0000
  O   O6        1.0  0.78753  0.02355  0.98780  1.0000
  O   O7        1.0  0.10183  0.85010  0.80470  1.0000
  O   O8        1.0  0.89817  0.14990  0.19530  1.0000
  O   O9        1.0  0.69885  0.29406  0.73028  1.0000
  O   O10       1.0  0.30115  0.70593  0.26972  1.0000
  O   O11       1.0  0.51641  0.20124  0.87671  1.0000
  O   O12       1.0  0.48358  0.79876  0.12329  1.0000
  O   O13       1.0  0.49709  0.13969  0.19967  1.0000
  O   O14       1.0  0.50291  0.86031  0.80033  1.0000
