data_image0
_chemical_formula_structural       Zn3H16C28N2O14
_chemical_formula_sum              "Zn3 H16 C28 N2 O14"
_cell_length_a       8.92816
_cell_length_b       9.84693
_cell_length_c       9.9684
_cell_angle_alpha    101.005
_cell_angle_beta     105.986
_cell_angle_gamma    118.762

_space_group_name_H-M_alt    "P 1"
_space_group_IT_number       1

loop_
  _space_group_symop_operation_xyz
  'x, y, z'

loop_
  _atom_site_type_symbol
  _atom_site_label
  _atom_site_symmetry_multiplicity
  _atom_site_fract_x
  _atom_site_fract_y
  _atom_site_fract_z
  _atom_site_occupancy
  Zn  Zn1       1.0  0.99999  0.50000  0.49999  1.0000
  Zn  Zn2       1.0  0.20073  0.60036  0.16282  1.0000
  Zn  Zn3       1.0  0.79926  0.39964  0.83718  1.0000
  H   H1        1.0  0.53485  0.68465  0.81793  1.0000
  H   H2        1.0  0.46514  0.31534  0.18207  1.0000
  H   H3        1.0  0.90912  0.83202  0.27798  1.0000
  H   H4        1.0  0.09087  0.16797  0.72201  1.0000
  H   H5        1.0  0.85824  0.78882  0.00846  1.0000
  H   H6        1.0  0.14176  0.21117  0.99154  1.0000
  H   H7        1.0  0.61350  0.97082  0.43424  1.0000
  H   H8        1.0  0.38651  0.02918  0.56575  1.0000
  H   H9        1.0  0.81312  0.86695  0.81885  1.0000
  H   H10       1.0  0.18688  0.13305  0.18115  1.0000
  H   H11       1.0  0.70655  0.57810  0.38006  1.0000
  H   H12       1.0  0.29346  0.42190  0.61994  1.0000
  H   H13       1.0  0.18391  0.77156  0.45830  1.0000
  H   H14       1.0  0.81610  0.22845  0.54170  1.0000
  H   H15       1.0  0.25262  0.80272  0.63331  1.0000
  H   H16       1.0  0.74739  0.19728  0.36669  1.0000
  C   C1        1.0  0.42288  0.67061  0.98302  1.0000
  C   C2        1.0  0.57712  0.32939  0.01699  1.0000
  C   C3        1.0  0.62261  0.75013  0.23081  1.0000
  C   C4        1.0  0.37739  0.24987  0.76919  1.0000
  C   C5        1.0  0.56589  0.70589  0.93621  1.0000
  C   C6        1.0  0.43410  0.29410  0.06378  1.0000
  C   C7        1.0  0.77245  0.78618  0.19078  1.0000
  C   C8        1.0  0.22755  0.21382  0.80922  1.0000
  C   C9        1.0  0.74451  0.76465  0.04225  1.0000
  C   C10       1.0  0.25548  0.23534  0.95774  1.0000
  C   C11       1.0  0.22295  0.59108  0.86995  1.0000
  C   C12       1.0  0.77705  0.40893  0.13006  1.0000
  C   C13       1.0  0.65670  0.77322  0.38986  1.0000
  C   C14       1.0  0.34330  0.22679  0.61014  1.0000
  C   C15       1.0  0.71897  0.93660  0.63817  1.0000
  C   C16       1.0  0.28103  0.06341  0.36183  1.0000
  C   C17       1.0  0.65711  0.89906  0.48268  1.0000
  C   C18       1.0  0.34290  0.10094  0.51732  1.0000
  C   C19       1.0  0.76488  0.83700  0.69795  1.0000
  C   C20       1.0  0.23512  0.16300  0.30205  1.0000
  C   C21       1.0  0.75384  0.70418  0.60393  1.0000
  C   C22       1.0  0.24617  0.29582  0.39607  1.0000
  C   C23       1.0  0.70660  0.67702  0.45109  1.0000
  C   C24       1.0  0.29340  0.32298  0.54891  1.0000
  C   C25       1.0  0.78508  0.58497  0.65886  1.0000
  C   C26       1.0  0.21493  0.41503  0.34114  1.0000
  C   C27       1.0  0.74538  0.08680  0.74229  1.0000
  C   C28       1.0  0.25462  0.91321  0.25772  1.0000
  N   N1        1.0  0.45092  0.69380  0.12806  1.0000
  N   N2        1.0  0.54908  0.30619  0.87195  1.0000
  O   O1        1.0  0.09787  0.53257  0.92115  1.0000
  O   O2        1.0  0.90212  0.46743  0.07885  1.0000
  O   O3        1.0  0.19602  0.58385  0.73742  1.0000
  O   O4        1.0  0.80398  0.41615  0.26259  1.0000
  O   O5        1.0  0.75862  0.20159  0.68708  1.0000
  O   O6        1.0  0.24139  0.79842  0.31292  1.0000
  O   O7        1.0  0.75632  0.09960  0.87154  1.0000
  O   O8        1.0  0.24368  0.90040  0.12846  1.0000
  O   O9        1.0  0.78391  0.58368  0.78661  1.0000
  O   O10       1.0  0.21608  0.41631  0.21339  1.0000
  O   O11       1.0  0.79995  0.48267  0.57410  1.0000
  O   O12       1.0  0.20005  0.51733  0.42590  1.0000
  O   O13       1.0  0.13998  0.75448  0.54061  1.0000
  O   O14       1.0  0.86003  0.24552  0.45939  1.0000
