data_image0
_chemical_formula_structural       Tb4H36C36N12O36
_chemical_formula_sum              "Tb4 H36 C36 N12 O36"
_cell_length_a       6.04908
_cell_length_b       10.3422
_cell_length_c       18.9536
_cell_angle_alpha    89.9999
_cell_angle_beta     89.9999
_cell_angle_gamma    89.9891

_space_group_name_H-M_alt    "P 1"
_space_group_IT_number       1

loop_
  _space_group_symop_operation_xyz
  'x, y, z'

loop_
  _atom_site_type_symbol
  _atom_site_label
  _atom_site_symmetry_multiplicity
  _atom_site_fract_x
  _atom_site_fract_y
  _atom_site_fract_z
  _atom_site_occupancy
  Tb  Tb1       1.0  0.74011  0.81029  0.40304  1.0000
  Tb  Tb2       1.0  0.75989  0.68971  0.90304  1.0000
  Tb  Tb3       1.0  0.25989  0.18971  0.59696  1.0000
  Tb  Tb4       1.0  0.24011  0.31029  0.09696  1.0000
  H   H1        1.0  0.12074  0.50725  0.54245  1.0000
  H   H2        1.0  0.37926  0.99275  0.04245  1.0000
  H   H3        1.0  0.87926  0.49275  0.45755  1.0000
  H   H4        1.0  0.62074  0.00725  0.95755  1.0000
  H   H5        1.0  0.51771  0.76325  0.11796  1.0000
  H   H6        1.0  0.98229  0.73675  0.61796  1.0000
  H   H7        1.0  0.48229  0.23675  0.88204  1.0000
  H   H8        1.0  0.01771  0.26325  0.38204  1.0000
  H   H9        1.0  0.11504  0.95295  0.14970  1.0000
  H   H10       1.0  0.38496  0.54705  0.64971  1.0000
  H   H11       1.0  0.88496  0.04706  0.85029  1.0000
  H   H12       1.0  0.61504  0.45294  0.35029  1.0000
  H   H13       1.0  0.87154  0.58626  0.30159  1.0000
  H   H14       1.0  0.62846  0.91374  0.80159  1.0000
  H   H15       1.0  0.12846  0.41374  0.69841  1.0000
  H   H16       1.0  0.37154  0.08626  0.19841  1.0000
  H   H17       1.0  0.09125  0.64242  0.33214  1.0000
  H   H18       1.0  0.40875  0.85758  0.83214  1.0000
  H   H19       1.0  0.90876  0.35758  0.66787  1.0000
  H   H20       1.0  0.59124  0.14242  0.16787  1.0000
  H   H21       1.0  0.45153  0.01718  0.34390  1.0000
  H   H22       1.0  0.04847  0.48282  0.84390  1.0000
  H   H23       1.0  0.54847  0.98282  0.65610  1.0000
  H   H24       1.0  0.95153  0.51718  0.15610  1.0000
  H   H25       1.0  0.68627  0.07565  0.34581  1.0000
  H   H26       1.0  0.81373  0.42435  0.84582  1.0000
  H   H27       1.0  0.31373  0.92435  0.65419  1.0000
  H   H28       1.0  0.18627  0.57565  0.15418  1.0000
  H   H29       1.0  0.70484  0.02343  0.51731  1.0000
  H   H30       1.0  0.79516  0.47657  0.01731  1.0000
  H   H31       1.0  0.29516  0.97657  0.48269  1.0000
  H   H32       1.0  0.20484  0.52343  0.98269  1.0000
  H   H33       1.0  0.90372  0.93598  0.53809  1.0000
  H   H34       1.0  0.59628  0.56403  0.03809  1.0000
  H   H35       1.0  0.09628  0.06402  0.46191  1.0000
  H   H36       1.0  0.40372  0.43598  0.96191  1.0000
  C   C1        1.0  0.26204  0.73295  0.47382  1.0000
  C   C2        1.0  0.23797  0.76705  0.97382  1.0000
  C   C3        1.0  0.73797  0.26705  0.52618  1.0000
  C   C4        1.0  0.76204  0.23295  0.02618  1.0000
  C   C5        1.0  0.38478  0.60848  0.48742  1.0000
  C   C6        1.0  0.11522  0.89152  0.98742  1.0000
  C   C7        1.0  0.61522  0.39152  0.51258  1.0000
  C   C8        1.0  0.88478  0.10848  0.01258  1.0000
  C   C9        1.0  0.28973  0.50384  0.52283  1.0000
  C   C10       1.0  0.21028  0.99616  0.02283  1.0000
  C   C11       1.0  0.71028  0.49616  0.47717  1.0000
  C   C12       1.0  0.78973  0.00384  0.97717  1.0000
  C   C13       1.0  0.42811  0.71946  0.26369  1.0000
  C   C14       1.0  0.07188  0.78054  0.76369  1.0000
  C   C15       1.0  0.57189  0.28054  0.73630  1.0000
  C   C16       1.0  0.92811  0.21946  0.23630  1.0000
  C   C17       1.0  0.61427  0.78930  0.22742  1.0000
  C   C18       1.0  0.88573  0.71070  0.72742  1.0000
  C   C19       1.0  0.38574  0.21070  0.77258  1.0000
  C   C20       1.0  0.11426  0.28930  0.27258  1.0000
  C   C21       1.0  0.64085  0.80170  0.15440  1.0000
  C   C22       1.0  0.85915  0.69830  0.65440  1.0000
  C   C23       1.0  0.35915  0.19830  0.84560  1.0000
  C   C24       1.0  0.14085  0.30170  0.34560  1.0000
  C   C25       1.0  0.96814  0.90731  0.17146  1.0000
  C   C26       1.0  0.53186  0.59269  0.67146  1.0000
  C   C27       1.0  0.03186  0.09269  0.82854  1.0000
  C   C28       1.0  0.46814  0.40731  0.32854  1.0000
  C   C29       1.0  0.93996  0.89974  0.24437  1.0000
  C   C30       1.0  0.56004  0.60025  0.74437  1.0000
  C   C31       1.0  0.06004  0.10026  0.75563  1.0000
  C   C32       1.0  0.43996  0.39975  0.25563  1.0000
  C   C33       1.0  0.09656  0.95467  0.29798  1.0000
  C   C34       1.0  0.40344  0.54533  0.79799  1.0000
  C   C35       1.0  0.90344  0.04533  0.70202  1.0000
  C   C36       1.0  0.59656  0.45468  0.20201  1.0000
  N   N1        1.0  0.59508  0.60383  0.46479  1.0000
  N   N2        1.0  0.90492  0.89616  0.96479  1.0000
  N   N3        1.0  0.40492  0.39616  0.53521  1.0000
  N   N4        1.0  0.09508  0.10384  0.03521  1.0000
  N   N5        1.0  0.76440  0.83944  0.27126  1.0000
  N   N6        1.0  0.73560  0.66056  0.77126  1.0000
  N   N7        1.0  0.23560  0.16056  0.72874  1.0000
  N   N8        1.0  0.26440  0.33944  0.22874  1.0000
  N   N9        1.0  0.81867  0.85956  0.12647  1.0000
  N   N10       1.0  0.68132  0.64044  0.62647  1.0000
  N   N11       1.0  0.18132  0.14044  0.87353  1.0000
  N   N12       1.0  0.31868  0.35955  0.37353  1.0000
  O   O1        1.0  0.38565  0.82955  0.46079  1.0000
  O   O2        1.0  0.11435  0.67045  0.96079  1.0000
  O   O3        1.0  0.61435  0.17045  0.53920  1.0000
  O   O4        1.0  0.88565  0.32955  0.03921  1.0000
  O   O5        1.0  0.05334  0.73208  0.47711  1.0000
  O   O6        1.0  0.44666  0.76792  0.97711  1.0000
  O   O7        1.0  0.94666  0.26792  0.52289  1.0000
  O   O8        1.0  0.55334  0.23208  0.02289  1.0000
  O   O9        1.0  0.44260  0.71333  0.33112  1.0000
  O   O10       1.0  0.05739  0.78667  0.83112  1.0000
  O   O11       1.0  0.55739  0.28667  0.66888  1.0000
  O   O12       1.0  0.94261  0.21333  0.16888  1.0000
  O   O13       1.0  0.27292  0.67232  0.22785  1.0000
  O   O14       1.0  0.22708  0.82768  0.72785  1.0000
  O   O15       1.0  0.72708  0.32768  0.77215  1.0000
  O   O16       1.0  0.77292  0.17232  0.27215  1.0000
  O   O17       1.0  0.04446  0.93685  0.36236  1.0000
  O   O18       1.0  0.45554  0.56315  0.86236  1.0000
  O   O19       1.0  0.95552  0.06315  0.63764  1.0000
  O   O20       1.0  0.54446  0.43686  0.13764  1.0000
  O   O21       1.0  0.26759  0.01390  0.27685  1.0000
  O   O22       1.0  0.23241  0.48609  0.77685  1.0000
  O   O23       1.0  0.73241  0.98610  0.72316  1.0000
  O   O24       1.0  0.76759  0.51391  0.22315  1.0000
  O   O25       1.0  0.93625  0.62512  0.34496  1.0000
  O   O26       1.0  0.56375  0.87488  0.84496  1.0000
  O   O27       1.0  0.06375  0.37488  0.65505  1.0000
  O   O28       1.0  0.43625  0.12512  0.15505  1.0000
  O   O29       1.0  0.58946  0.01724  0.37318  1.0000
  O   O30       1.0  0.91054  0.48276  0.87318  1.0000
  O   O31       1.0  0.41054  0.98276  0.62682  1.0000
  O   O32       1.0  0.08946  0.51724  0.12682  1.0000
  O   O33       1.0  0.78354  0.94185  0.50410  1.0000
  O   O34       1.0  0.71646  0.55815  0.00410  1.0000
  O   O35       1.0  0.21645  0.05815  0.49591  1.0000
  O   O36       1.0  0.28354  0.44185  0.99590  1.0000
