data_image0
_chemical_formula_structural       Sm4H36C36N12O36
_chemical_formula_sum              "Sm4 H36 C36 N12 O36"
_cell_length_a       6.05476
_cell_length_b       10.4617
_cell_length_c       19.0779
_cell_angle_alpha    90.0001
_cell_angle_beta     89.9997
_cell_angle_gamma    89.9231

_space_group_name_H-M_alt    "P 1"
_space_group_IT_number       1

loop_
  _space_group_symop_operation_xyz
  'x, y, z'

loop_
  _atom_site_type_symbol
  _atom_site_label
  _atom_site_symmetry_multiplicity
  _atom_site_fract_x
  _atom_site_fract_y
  _atom_site_fract_z
  _atom_site_occupancy
  Sm  Sm1       1.0  0.74310  0.81059  0.40353  1.0000
  Sm  Sm2       1.0  0.75691  0.68941  0.90352  1.0000
  Sm  Sm3       1.0  0.25690  0.18941  0.59647  1.0000
  Sm  Sm4       1.0  0.24310  0.31059  0.09648  1.0000
  H   H1        1.0  0.12289  0.50795  0.54375  1.0000
  H   H2        1.0  0.37711  0.99205  0.04375  1.0000
  H   H3        1.0  0.87711  0.49205  0.45625  1.0000
  H   H4        1.0  0.62289  0.00795  0.95625  1.0000
  H   H5        1.0  0.52820  0.76610  0.11769  1.0000
  H   H6        1.0  0.97181  0.73390  0.61768  1.0000
  H   H7        1.0  0.47181  0.23390  0.88231  1.0000
  H   H8        1.0  0.02819  0.26610  0.38232  1.0000
  H   H9        1.0  0.11727  0.95997  0.15099  1.0000
  H   H10       1.0  0.38273  0.54004  0.65099  1.0000
  H   H11       1.0  0.88273  0.04003  0.84901  1.0000
  H   H12       1.0  0.61727  0.45996  0.34901  1.0000
  H   H13       1.0  0.88470  0.58779  0.30086  1.0000
  H   H14       1.0  0.61530  0.91221  0.80086  1.0000
  H   H15       1.0  0.11530  0.41221  0.69914  1.0000
  H   H16       1.0  0.38470  0.08779  0.19914  1.0000
  H   H17       1.0  0.10307  0.64425  0.33225  1.0000
  H   H18       1.0  0.39693  0.85575  0.83225  1.0000
  H   H19       1.0  0.89693  0.35575  0.66775  1.0000
  H   H20       1.0  0.60307  0.14425  0.16775  1.0000
  H   H21       1.0  0.45503  0.01986  0.34331  1.0000
  H   H22       1.0  0.04497  0.48014  0.84330  1.0000
  H   H23       1.0  0.54497  0.98015  0.65669  1.0000
  H   H24       1.0  0.95502  0.51986  0.15670  1.0000
  H   H25       1.0  0.68907  0.07815  0.34698  1.0000
  H   H26       1.0  0.81093  0.42185  0.84698  1.0000
  H   H27       1.0  0.31093  0.92185  0.65302  1.0000
  H   H28       1.0  0.18907  0.57815  0.15302  1.0000
  H   H29       1.0  0.70524  0.02732  0.51643  1.0000
  H   H30       1.0  0.79476  0.47268  0.01643  1.0000
  H   H31       1.0  0.29476  0.97268  0.48357  1.0000
  H   H32       1.0  0.20524  0.52732  0.98357  1.0000
  H   H33       1.0  0.89566  0.93927  0.54140  1.0000
  H   H34       1.0  0.60433  0.56073  0.04140  1.0000
  H   H35       1.0  0.10434  0.06073  0.45860  1.0000
  H   H36       1.0  0.39566  0.43927  0.95860  1.0000
  C   C1        1.0  0.26116  0.73076  0.47545  1.0000
  C   C2        1.0  0.23884  0.76925  0.97545  1.0000
  C   C3        1.0  0.73884  0.26924  0.52455  1.0000
  C   C4        1.0  0.76116  0.23075  0.02455  1.0000
  C   C5        1.0  0.38451  0.60745  0.48803  1.0000
  C   C6        1.0  0.11550  0.89255  0.98803  1.0000
  C   C7        1.0  0.61550  0.39256  0.51197  1.0000
  C   C8        1.0  0.88450  0.10745  0.01197  1.0000
  C   C9        1.0  0.29108  0.50418  0.52369  1.0000
  C   C10       1.0  0.20892  0.99582  0.02369  1.0000
  C   C11       1.0  0.70893  0.49582  0.47631  1.0000
  C   C12       1.0  0.79108  0.00418  0.97631  1.0000
  C   C13       1.0  0.43327  0.72183  0.26157  1.0000
  C   C14       1.0  0.06673  0.77817  0.76157  1.0000
  C   C15       1.0  0.56673  0.27817  0.73842  1.0000
  C   C16       1.0  0.93327  0.22183  0.23843  1.0000
  C   C17       1.0  0.62158  0.79144  0.22676  1.0000
  C   C18       1.0  0.87843  0.70856  0.72676  1.0000
  C   C19       1.0  0.37842  0.20856  0.77324  1.0000
  C   C20       1.0  0.12158  0.29144  0.27324  1.0000
  C   C21       1.0  0.64930  0.80482  0.15427  1.0000
  C   C22       1.0  0.85071  0.69518  0.65427  1.0000
  C   C23       1.0  0.35071  0.19517  0.84573  1.0000
  C   C24       1.0  0.14929  0.30483  0.34573  1.0000
  C   C25       1.0  0.97241  0.91238  0.17218  1.0000
  C   C26       1.0  0.52760  0.58762  0.67217  1.0000
  C   C27       1.0  0.02759  0.08762  0.82782  1.0000
  C   C28       1.0  0.47240  0.41238  0.32783  1.0000
  C   C29       1.0  0.94455  0.90280  0.24451  1.0000
  C   C30       1.0  0.55546  0.59720  0.74451  1.0000
  C   C31       1.0  0.05545  0.09720  0.75549  1.0000
  C   C32       1.0  0.44454  0.40280  0.25549  1.0000
  C   C33       1.0  0.10173  0.95698  0.29776  1.0000
  C   C34       1.0  0.39827  0.54302  0.79775  1.0000
  C   C35       1.0  0.89827  0.04302  0.70224  1.0000
  C   C36       1.0  0.60172  0.45699  0.20225  1.0000
  N   N1        1.0  0.59346  0.60240  0.46453  1.0000
  N   N2        1.0  0.90655  0.89760  0.96453  1.0000
  N   N3        1.0  0.40655  0.39760  0.53547  1.0000
  N   N4        1.0  0.09346  0.10240  0.03547  1.0000
  N   N5        1.0  0.77008  0.84136  0.27072  1.0000
  N   N6        1.0  0.72992  0.65864  0.77072  1.0000
  N   N7        1.0  0.22992  0.15864  0.72928  1.0000
  N   N8        1.0  0.27008  0.34137  0.22928  1.0000
  N   N9        1.0  0.82515  0.86451  0.12705  1.0000
  N   N10       1.0  0.67486  0.63549  0.62705  1.0000
  N   N11       1.0  0.17485  0.13549  0.87295  1.0000
  N   N12       1.0  0.32514  0.36451  0.37295  1.0000
  O   O1        1.0  0.38307  0.82655  0.46203  1.0000
  O   O2        1.0  0.11693  0.67345  0.96203  1.0000
  O   O3        1.0  0.61693  0.17345  0.53797  1.0000
  O   O4        1.0  0.88307  0.32655  0.03797  1.0000
  O   O5        1.0  0.05279  0.72985  0.47967  1.0000
  O   O6        1.0  0.44721  0.77015  0.97967  1.0000
  O   O7        1.0  0.94721  0.27015  0.52033  1.0000
  O   O8        1.0  0.55278  0.22985  0.02033  1.0000
  O   O9        1.0  0.44274  0.71489  0.32872  1.0000
  O   O10       1.0  0.05726  0.78511  0.82871  1.0000
  O   O11       1.0  0.55726  0.28510  0.67128  1.0000
  O   O12       1.0  0.94274  0.21490  0.17129  1.0000
  O   O13       1.0  0.28098  0.67613  0.22456  1.0000
  O   O14       1.0  0.21902  0.82387  0.72456  1.0000
  O   O15       1.0  0.71902  0.32387  0.77544  1.0000
  O   O16       1.0  0.78097  0.17613  0.27544  1.0000
  O   O17       1.0  0.05112  0.93931  0.36182  1.0000
  O   O18       1.0  0.44888  0.56070  0.86181  1.0000
  O   O19       1.0  0.94888  0.06070  0.63818  1.0000
  O   O20       1.0  0.55113  0.43931  0.13819  1.0000
  O   O21       1.0  0.27198  0.01558  0.27645  1.0000
  O   O22       1.0  0.22802  0.48441  0.77645  1.0000
  O   O23       1.0  0.72802  0.98442  0.72355  1.0000
  O   O24       1.0  0.77198  0.51558  0.22355  1.0000
  O   O25       1.0  0.94764  0.62627  0.34407  1.0000
  O   O26       1.0  0.55236  0.87373  0.84407  1.0000
  O   O27       1.0  0.05236  0.37373  0.65593  1.0000
  O   O28       1.0  0.44764  0.12627  0.15593  1.0000
  O   O29       1.0  0.59107  0.01980  0.37323  1.0000
  O   O30       1.0  0.90893  0.48020  0.87322  1.0000
  O   O31       1.0  0.40892  0.98020  0.62677  1.0000
  O   O32       1.0  0.09107  0.51980  0.12678  1.0000
  O   O33       1.0  0.78246  0.94527  0.50526  1.0000
  O   O34       1.0  0.71754  0.55473  0.00526  1.0000
  O   O35       1.0  0.21753  0.05473  0.49474  1.0000
  O   O36       1.0  0.28246  0.44527  0.99474  1.0000
