data_image0
_chemical_formula_structural       Zn4H38C60N6O14
_chemical_formula_sum              "Zn4 H38 C60 N6 O14"
_cell_length_a       10.0259
_cell_length_b       11.7144
_cell_length_c       12.1988
_cell_angle_alpha    74.7023
_cell_angle_beta     88.1849
_cell_angle_gamma    72.6369

_space_group_name_H-M_alt    "P 1"
_space_group_IT_number       1

loop_
  _space_group_symop_operation_xyz
  'x, y, z'

loop_
  _atom_site_type_symbol
  _atom_site_label
  _atom_site_symmetry_multiplicity
  _atom_site_fract_x
  _atom_site_fract_y
  _atom_site_fract_z
  _atom_site_occupancy
  Zn  Zn1       1.0  0.68334  0.38178  0.21070  1.0000
  Zn  Zn2       1.0  0.31665  0.61822  0.78930  1.0000
  Zn  Zn3       1.0  0.43389  0.58628  0.07999  1.0000
  Zn  Zn4       1.0  0.56611  0.41372  0.92001  1.0000
  H   H1        1.0  0.96021  0.32817  0.11452  1.0000
  H   H2        1.0  0.03978  0.67184  0.88548  1.0000
  H   H3        1.0  0.16993  0.14079  0.12831  1.0000
  H   H4        1.0  0.83007  0.85921  0.87169  1.0000
  H   H5        1.0  0.17182  0.94102  0.26337  1.0000
  H   H6        1.0  0.82818  0.05898  0.73663  1.0000
  H   H7        1.0  0.76431  0.12702  0.36253  1.0000
  H   H8        1.0  0.23569  0.87298  0.63747  1.0000
  H   H9        1.0  0.15561  0.78605  0.37107  1.0000
  H   H10       1.0  0.84439  0.21395  0.62893  1.0000
  H   H11       1.0  0.92167  0.61325  0.62874  1.0000
  H   H12       1.0  0.07834  0.38675  0.37126  1.0000
  H   H13       1.0  0.76088  0.64225  0.73607  1.0000
  H   H14       1.0  0.23912  0.35775  0.26393  1.0000
  H   H15       1.0  0.63911  0.02746  0.54429  1.0000
  H   H16       1.0  0.36088  0.97254  0.45571  1.0000
  H   H17       1.0  0.44361  0.06633  0.67832  1.0000
  H   H18       1.0  0.55639  0.93367  0.32168  1.0000
  H   H19       1.0  0.42430  0.88616  0.83783  1.0000
  H   H20       1.0  0.57570  0.11384  0.16218  1.0000
  H   H21       1.0  0.10307  0.46114  0.67089  1.0000
  H   H22       1.0  0.89693  0.53886  0.32911  1.0000
  H   H23       1.0  0.29619  0.27060  0.68746  1.0000
  H   H24       1.0  0.70382  0.72940  0.31254  1.0000
  H   H25       1.0  0.47946  0.26027  0.54192  1.0000
  H   H26       1.0  0.52055  0.73973  0.45808  1.0000
  H   H27       1.0  0.25926  0.62782  0.35280  1.0000
  H   H28       1.0  0.74074  0.37219  0.64720  1.0000
  H   H29       1.0  0.61185  0.87950  0.07947  1.0000
  H   H30       1.0  0.38815  0.12050  0.92053  1.0000
  H   H31       1.0  0.75798  0.02362  0.07060  1.0000
  H   H32       1.0  0.24203  0.97638  0.92940  1.0000
  H   H33       1.0  0.01780  0.93709  0.08711  1.0000
  H   H34       1.0  0.98220  0.06291  0.91289  1.0000
  H   H35       1.0  0.98811  0.57306  0.11526  1.0000
  H   H36       1.0  0.01189  0.42694  0.88474  1.0000
  H   H37       1.0  0.51817  0.65315  0.87295  1.0000
  H   H38       1.0  0.48183  0.34685  0.12705  1.0000
  C   C1        1.0  0.96691  0.23833  0.17310  1.0000
  C   C2        1.0  0.03309  0.76167  0.82690  1.0000
  C   C3        1.0  0.08201  0.13432  0.18169  1.0000
  C   C4        1.0  0.91798  0.86568  0.81831  1.0000
  C   C5        1.0  0.08217  0.02273  0.25823  1.0000
  C   C6        1.0  0.91782  0.97727  0.74177  1.0000
  C   C7        1.0  0.96792  0.01691  0.32671  1.0000
  C   C8        1.0  0.03208  0.98309  0.67329  1.0000
  C   C9        1.0  0.85604  0.12590  0.31215  1.0000
  C   C10       1.0  0.14395  0.87410  0.68785  1.0000
  C   C11       1.0  0.96035  0.90235  0.41131  1.0000
  C   C12       1.0  0.03965  0.09765  0.58869  1.0000
  C   C13       1.0  0.06495  0.78978  0.42266  1.0000
  C   C14       1.0  0.93505  0.21022  0.57734  1.0000
  C   C15       1.0  0.05386  0.68162  0.50086  1.0000
  C   C16       1.0  0.94614  0.31838  0.49915  1.0000
  C   C17       1.0  0.93668  0.69431  0.56771  1.0000
  C   C18       1.0  0.06332  0.30570  0.43229  1.0000
  C   C19       1.0  0.83833  0.81157  0.55493  1.0000
  C   C20       1.0  0.16166  0.18843  0.44507  1.0000
  C   C21       1.0  0.69489  0.73856  0.71902  1.0000
  C   C22       1.0  0.30511  0.26144  0.28098  1.0000
  C   C23       1.0  0.71786  0.83282  0.62895  1.0000
  C   C24       1.0  0.28214  0.16718  0.37105  1.0000
  C   C25       1.0  0.62443  0.95272  0.61393  1.0000
  C   C26       1.0  0.37557  0.04728  0.38607  1.0000
  C   C27       1.0  0.51733  0.97418  0.68824  1.0000
  C   C28       1.0  0.48267  0.02582  0.31176  1.0000
  C   C29       1.0  0.50548  0.87470  0.77636  1.0000
  C   C30       1.0  0.49452  0.12530  0.22364  1.0000
  C   C31       1.0  0.16439  0.56228  0.51123  1.0000
  C   C32       1.0  0.83561  0.43773  0.48877  1.0000
  C   C33       1.0  0.17745  0.45787  0.60399  1.0000
  C   C34       1.0  0.82255  0.54213  0.39601  1.0000
  C   C35       1.0  0.28853  0.34958  0.61416  1.0000
  C   C36       1.0  0.71147  0.65042  0.38584  1.0000
  C   C37       1.0  0.39029  0.34311  0.53361  1.0000
  C   C38       1.0  0.60971  0.65690  0.46639  1.0000
  C   C39       1.0  0.37777  0.44558  0.43987  1.0000
  C   C40       1.0  0.62223  0.55442  0.56013  1.0000
  C   C41       1.0  0.26458  0.55246  0.42869  1.0000
  C   C42       1.0  0.73542  0.44754  0.57131  1.0000
  C   C43       1.0  0.48171  0.44666  0.34933  1.0000
  C   C44       1.0  0.51829  0.55334  0.65067  1.0000
  C   C45       1.0  0.70506  0.63122  0.10983  1.0000
  C   C46       1.0  0.29494  0.36878  0.89017  1.0000
  C   C47       1.0  0.79121  0.71769  0.10069  1.0000
  C   C48       1.0  0.20879  0.28231  0.89931  1.0000
  C   C49       1.0  0.72590  0.84500  0.08710  1.0000
  C   C50       1.0  0.27411  0.15500  0.91290  1.0000
  C   C51       1.0  0.80686  0.92411  0.08406  1.0000
  C   C52       1.0  0.19314  0.07589  0.91594  1.0000
  C   C53       1.0  0.95260  0.87670  0.09177  1.0000
  C   C54       1.0  0.04740  0.12329  0.90823  1.0000
  C   C55       1.0  0.01875  0.75081  0.10100  1.0000
  C   C56       1.0  0.98125  0.24919  0.89900  1.0000
  C   C57       1.0  0.93729  0.67118  0.10763  1.0000
  C   C58       1.0  0.06271  0.32882  0.89236  1.0000
  C   C59       1.0  0.17468  0.70478  0.09452  1.0000
  C   C60       1.0  0.82532  0.29522  0.90548  1.0000
  N   N1        1.0  0.85555  0.23283  0.23677  1.0000
  N   N2        1.0  0.14445  0.76717  0.76323  1.0000
  N   N3        1.0  0.84921  0.91315  0.47670  1.0000
  N   N4        1.0  0.15079  0.08685  0.52329  1.0000
  N   N5        1.0  0.59181  0.75907  0.79055  1.0000
  N   N6        1.0  0.40819  0.24093  0.20945  1.0000
  O   O1        1.0  0.58791  0.34907  0.35845  1.0000
  O   O2        1.0  0.41209  0.65093  0.64155  1.0000
  O   O3        1.0  0.46080  0.54347  0.26772  1.0000
  O   O4        1.0  0.53920  0.45653  0.73228  1.0000
  O   O5        1.0  0.76937  0.51568  0.15283  1.0000
  O   O6        1.0  0.23063  0.48432  0.84717  1.0000
  O   O7        1.0  0.57751  0.67843  0.07651  1.0000
  O   O8        1.0  0.42249  0.32157  0.92349  1.0000
  O   O9        1.0  0.22944  0.58902  0.09727  1.0000
  O   O10       1.0  0.77056  0.41098  0.90273  1.0000
  O   O11       1.0  0.24648  0.77881  0.08287  1.0000
  O   O12       1.0  0.75352  0.22118  0.91713  1.0000
  O   O13       1.0  0.45570  0.60065  0.90667  1.0000
  O   O14       1.0  0.54430  0.39935  0.09333  1.0000
