data_image0
_chemical_formula_structural       Zn4H38C60N6O14
_chemical_formula_sum              "Zn4 H38 C60 N6 O14"
_cell_length_a       8.17596
_cell_length_b       12.4761
_cell_length_c       14.1739
_cell_angle_alpha    64.725
_cell_angle_beta     88.2536
_cell_angle_gamma    72.9629

_space_group_name_H-M_alt    "P 1"
_space_group_IT_number       1

loop_
  _space_group_symop_operation_xyz
  'x, y, z'

loop_
  _atom_site_type_symbol
  _atom_site_label
  _atom_site_symmetry_multiplicity
  _atom_site_fract_x
  _atom_site_fract_y
  _atom_site_fract_z
  _atom_site_occupancy
  Zn  Zn1       1.0  0.65079  0.04875  0.43804  1.0000
  Zn  Zn2       1.0  0.34921  0.95125  0.56196  1.0000
  Zn  Zn3       1.0  0.72909  0.87258  0.70789  1.0000
  Zn  Zn4       1.0  0.27091  0.12742  0.29211  1.0000
  H   H1        1.0  0.44116  0.32364  0.32694  1.0000
  H   H2        1.0  0.55885  0.67636  0.67306  1.0000
  H   H3        1.0  0.43224  0.51210  0.15958  1.0000
  H   H4        1.0  0.56776  0.48790  0.84042  1.0000
  H   H5        1.0  0.64965  0.48772  0.03377  1.0000
  H   H6        1.0  0.35035  0.51228  0.96623  1.0000
  H   H7        1.0  0.84748  0.09845  0.25083  1.0000
  H   H8        1.0  0.15251  0.90155  0.74917  1.0000
  H   H9        1.0  0.97170  0.07197  0.13284  1.0000
  H   H10       1.0  0.02830  0.92803  0.86716  1.0000
  H   H11       1.0  0.21201  0.24869  0.86089  1.0000
  H   H12       1.0  0.78799  0.75131  0.13910  1.0000
  H   H13       1.0  0.82210  0.60578  0.86573  1.0000
  H   H14       1.0  0.17790  0.39421  0.13427  1.0000
  H   H15       1.0  0.23639  0.40241  0.75160  1.0000
  H   H16       1.0  0.76361  0.59759  0.24840  1.0000
  H   H17       1.0  0.24268  0.60684  0.61032  1.0000
  H   H18       1.0  0.75732  0.39316  0.38968  1.0000
  H   H19       1.0  0.03637  0.80214  0.60339  1.0000
  H   H20       1.0  0.96363  0.19786  0.39661  1.0000
  H   H21       1.0  0.19459  0.91499  0.17149  1.0000
  H   H22       1.0  0.80541  0.08501  0.82851  1.0000
  H   H23       1.0  0.39067  0.71674  0.18399  1.0000
  H   H24       1.0  0.60933  0.28326  0.81601  1.0000
  H   H25       1.0  0.54796  0.70948  0.03040  1.0000
  H   H26       1.0  0.45204  0.29052  0.96960  1.0000
  H   H27       1.0  0.28067  0.09430  0.84525  1.0000
  H   H28       1.0  0.71934  0.90570  0.15475  1.0000
  H   H29       1.0  0.55366  0.27522  0.62679  1.0000
  H   H30       1.0  0.44634  0.72478  0.37322  1.0000
  H   H31       1.0  0.55045  0.47582  0.62676  1.0000
  H   H32       1.0  0.44955  0.52418  0.37324  1.0000
  H   H33       1.0  0.82140  0.53403  0.60873  1.0000
  H   H34       1.0  0.17861  0.46598  0.39127  1.0000
  H   H35       1.0  0.09062  0.39236  0.58648  1.0000
  H   H36       1.0  0.90938  0.60764  0.41352  1.0000
  H   H37       1.0  0.33770  0.16488  0.45062  1.0000
  H   H38       1.0  0.66230  0.83512  0.54938  1.0000
  C   C1        1.0  0.53029  0.31805  0.26915  1.0000
  C   C2        1.0  0.46971  0.68195  0.73084  1.0000
  C   C3        1.0  0.52684  0.42211  0.17648  1.0000
  C   C4        1.0  0.47317  0.57789  0.82352  1.0000
  C   C5        1.0  0.64502  0.40864  0.10637  1.0000
  C   C6        1.0  0.35498  0.59136  0.89363  1.0000
  C   C7        1.0  0.76213  0.29103  0.12909  1.0000
  C   C8        1.0  0.23787  0.70897  0.87091  1.0000
  C   C9        1.0  0.75713  0.19196  0.22487  1.0000
  C   C10       1.0  0.24287  0.80804  0.77513  1.0000
  C   C11       1.0  0.88827  0.27377  0.05539  1.0000
  C   C12       1.0  0.11173  0.72623  0.94460  1.0000
  C   C13       1.0  0.98748  0.15469  0.06854  1.0000
  C   C14       1.0  0.01252  0.84531  0.93146  1.0000
  C   C15       1.0  0.10662  0.14291  0.99772  1.0000
  C   C16       1.0  0.89338  0.85709  0.00228  1.0000
  C   C17       1.0  0.11841  0.25341  0.91610  1.0000
  C   C18       1.0  0.88159  0.74659  0.08389  1.0000
  C   C19       1.0  0.01446  0.36880  0.90731  1.0000
  C   C20       1.0  0.98553  0.63120  0.09269  1.0000
  C   C21       1.0  0.91677  0.60109  0.81081  1.0000
  C   C22       1.0  0.08323  0.39891  0.18919  1.0000
  C   C23       1.0  0.02732  0.48611  0.82140  1.0000
  C   C24       1.0  0.97267  0.51389  0.17859  1.0000
  C   C25       1.0  0.14646  0.48860  0.74755  1.0000
  C   C26       1.0  0.85354  0.51140  0.25245  1.0000
  C   C27       1.0  0.15154  0.60178  0.66849  1.0000
  C   C28       1.0  0.84846  0.39822  0.33151  1.0000
  C   C29       1.0  0.03650  0.71137  0.66373  1.0000
  C   C30       1.0  0.96350  0.28863  0.33627  1.0000
  C   C31       1.0  0.22034  0.02143  0.00749  1.0000
  C   C32       1.0  0.77966  0.97857  0.99251  1.0000
  C   C33       1.0  0.25391  0.91225  0.10228  1.0000
  C   C34       1.0  0.74609  0.08775  0.89772  1.0000
  C   C35       1.0  0.36845  0.80029  0.10991  1.0000
  C   C36       1.0  0.63155  0.19971  0.89009  1.0000
  C   C37       1.0  0.45514  0.79544  0.02489  1.0000
  C   C38       1.0  0.54486  0.20456  0.97511  1.0000
  C   C39       1.0  0.42303  0.90353  0.92994  1.0000
  C   C40       1.0  0.57698  0.09646  0.07006  1.0000
  C   C41       1.0  0.30405  0.01400  0.92155  1.0000
  C   C42       1.0  0.69595  0.98600  0.07845  1.0000
  C   C43       1.0  0.51644  0.90551  0.83722  1.0000
  C   C44       1.0  0.48356  0.09449  0.16278  1.0000
  C   C45       1.0  0.80707  0.10708  0.60224  1.0000
  C   C46       1.0  0.19292  0.89293  0.39776  1.0000
  C   C47       1.0  0.82450  0.22013  0.61014  1.0000
  C   C48       1.0  0.17550  0.77987  0.38986  1.0000
  C   C49       1.0  0.67188  0.30064  0.62071  1.0000
  C   C50       1.0  0.32812  0.69936  0.37929  1.0000
  C   C51       1.0  0.67071  0.41265  0.62086  1.0000
  C   C52       1.0  0.32929  0.58735  0.37914  1.0000
  C   C53       1.0  0.82228  0.44517  0.61142  1.0000
  C   C54       1.0  0.17772  0.55483  0.38858  1.0000
  C   C55       1.0  0.97291  0.36630  0.59899  1.0000
  C   C56       1.0  0.02709  0.63370  0.40100  1.0000
  C   C57       1.0  0.97612  0.25438  0.59682  1.0000
  C   C58       1.0  0.02388  0.74563  0.40318  1.0000
  C   C59       1.0  0.13539  0.18209  0.56820  1.0000
  C   C60       1.0  0.86461  0.81792  0.43180  1.0000
  N   N1        1.0  0.64454  0.20535  0.29288  1.0000
  N   N2        1.0  0.35546  0.79465  0.70712  1.0000
  N   N3        1.0  0.90044  0.37905  0.97583  1.0000
  N   N4        1.0  0.09955  0.62095  0.02417  1.0000
  N   N5        1.0  0.92104  0.71009  0.73361  1.0000
  N   N6        1.0  0.07896  0.28992  0.26639  1.0000
  O   O1        1.0  0.47349  0.00036  0.74997  1.0000
  O   O2        1.0  0.52651  0.99964  0.25003  1.0000
  O   O3        1.0  0.64370  0.80725  0.85116  1.0000
  O   O4        1.0  0.35630  0.19274  0.14884  1.0000
  O   O5        1.0  0.75322  0.12755  0.51133  1.0000
  O   O6        1.0  0.24678  0.87245  0.48867  1.0000
  O   O7        1.0  0.83322  0.00653  0.68639  1.0000
  O   O8        1.0  0.16678  0.99347  0.31361  1.0000
  O   O9        1.0  0.14829  0.06812  0.59117  1.0000
  O   O10       1.0  0.85171  0.93188  0.40883  1.0000
  O   O11       1.0  0.23907  0.23864  0.51920  1.0000
  O   O12       1.0  0.76093  0.76136  0.48080  1.0000
  O   O13       1.0  0.38842  0.10048  0.42381  1.0000
  O   O14       1.0  0.61158  0.89952  0.57619  1.0000
