data_image0
_chemical_formula_structural       Zn4H38C62N6O18
_chemical_formula_sum              "Zn4 H38 C62 N6 O18"
_cell_length_a       9.85978
_cell_length_b       11.92
_cell_length_c       12.6827
_cell_angle_alpha    107.164
_cell_angle_beta     91.3628
_cell_angle_gamma    110.314

_space_group_name_H-M_alt    "P 1"
_space_group_IT_number       1

loop_
  _space_group_symop_operation_xyz
  'x, y, z'

loop_
  _atom_site_type_symbol
  _atom_site_label
  _atom_site_symmetry_multiplicity
  _atom_site_fract_x
  _atom_site_fract_y
  _atom_site_fract_z
  _atom_site_occupancy
  Zn  Zn1       1.0  0.89770  0.89939  0.29488  1.0000
  Zn  Zn2       1.0  0.10230  0.10062  0.70512  1.0000
  Zn  Zn3       1.0  0.64119  0.23943  0.62689  1.0000
  Zn  Zn4       1.0  0.35881  0.76058  0.37312  1.0000
  H   H1        1.0  0.20541  0.02884  0.39319  1.0000
  H   H2        1.0  0.79459  0.97115  0.60681  1.0000
  H   H3        1.0  0.41200  0.22358  0.39492  1.0000
  H   H4        1.0  0.58800  0.77641  0.60508  1.0000
  H   H5        1.0  0.38166  0.34150  0.26826  1.0000
  H   H6        1.0  0.61834  0.65850  0.73174  1.0000
  H   H7        1.0  0.94849  0.05664  0.14561  1.0000
  H   H8        1.0  0.05150  0.94336  0.85439  1.0000
  H   H9        1.0  0.34789  0.41847  0.14956  1.0000
  H   H10       1.0  0.65211  0.58152  0.85043  1.0000
  H   H11       1.0  0.03318  0.41117  0.90536  1.0000
  H   H12       1.0  0.96683  0.58883  0.09464  1.0000
  H   H13       1.0  0.87065  0.30180  0.79405  1.0000
  H   H14       1.0  0.12935  0.69820  0.20596  1.0000
  H   H15       1.0  0.73599  0.05851  0.99787  1.0000
  H   H16       1.0  0.26401  0.94148  0.00213  1.0000
  H   H17       1.0  0.49299  0.95395  0.87329  1.0000
  H   H18       1.0  0.50701  0.04605  0.12670  1.0000
  H   H19       1.0  0.45401  0.03149  0.71705  1.0000
  H   H20       1.0  0.54599  0.96851  0.28295  1.0000
  H   H21       1.0  0.20145  0.48390  0.82990  1.0000
  H   H22       1.0  0.79856  0.51610  0.17009  1.0000
  H   H23       1.0  0.37104  0.66614  0.78687  1.0000
  H   H24       1.0  0.62897  0.33385  0.21312  1.0000
  H   H25       1.0  0.58556  0.82462  0.92836  1.0000
  H   H26       1.0  0.41444  0.17538  0.07164  1.0000
  H   H27       1.0  0.46722  0.60784  0.14965  1.0000
  H   H28       1.0  0.53278  0.39216  0.85035  1.0000
  H   H29       1.0  0.71261  0.17947  0.30110  1.0000
  H   H30       1.0  0.28739  0.82053  0.69890  1.0000
  H   H31       1.0  0.86110  0.36673  0.24774  1.0000
  H   H32       1.0  0.13890  0.63327  0.75225  1.0000
  H   H33       1.0  0.21639  0.44435  0.49382  1.0000
  H   H34       1.0  0.78361  0.55565  0.50618  1.0000
  H   H35       1.0  0.38006  0.26738  0.60428  1.0000
  H   H36       1.0  0.61994  0.73262  0.39572  1.0000
  H   H37       1.0  0.35618  0.12548  0.58163  1.0000
  H   H38       1.0  0.64382  0.87451  0.41837  1.0000
  C   C1        1.0  0.19798  0.08125  0.33747  1.0000
  C   C2        1.0  0.80201  0.91875  0.66253  1.0000
  C   C3        1.0  0.31232  0.18942  0.33699  1.0000
  C   C4        1.0  0.68768  0.81058  0.66301  1.0000
  C   C5        1.0  0.29428  0.25405  0.26585  1.0000
  C   C6        1.0  0.70572  0.74595  0.73415  1.0000
  C   C7        1.0  0.16358  0.20684  0.19293  1.0000
  C   C8        1.0  0.83642  0.79316  0.80708  1.0000
  C   C9        1.0  0.05373  0.09685  0.19823  1.0000
  C   C10       1.0  0.94627  0.90316  0.80178  1.0000
  C   C11       1.0  0.13480  0.26799  0.11312  1.0000
  C   C12       1.0  0.86520  0.73201  0.88688  1.0000
  C   C13       1.0  0.23993  0.37671  0.10093  1.0000
  C   C14       1.0  0.76007  0.62329  0.89907  1.0000
  C   C15       1.0  0.20731  0.42835  0.02208  1.0000
  C   C16       1.0  0.79270  0.57165  0.97792  1.0000
  C   C17       1.0  0.06584  0.37053  0.96312  1.0000
  C   C18       1.0  0.93416  0.62947  0.03688  1.0000
  C   C19       1.0  0.96842  0.25996  0.97735  1.0000
  C   C20       1.0  0.03158  0.74004  0.02266  1.0000
  C   C21       1.0  0.79211  0.22610  0.81750  1.0000
  C   C22       1.0  0.20788  0.77390  0.18250  1.0000
  C   C23       1.0  0.82328  0.19103  0.90819  1.0000
  C   C24       1.0  0.17671  0.80897  0.09181  1.0000
  C   C25       1.0  0.71483  0.08965  0.92849  1.0000
  C   C26       1.0  0.28517  0.91035  0.07151  1.0000
  C   C27       1.0  0.58148  0.03064  0.85872  1.0000
  C   C28       1.0  0.41852  0.96936  0.14128  1.0000
  C   C29       1.0  0.55802  0.07307  0.77137  1.0000
  C   C30       1.0  0.44198  0.92693  0.22863  1.0000
  C   C31       1.0  0.31525  0.53562  0.99635  1.0000
  C   C32       1.0  0.68475  0.46438  0.00364  1.0000
  C   C33       1.0  0.29301  0.55238  0.89273  1.0000
  C   C34       1.0  0.70700  0.44762  0.10727  1.0000
  C   C35       1.0  0.38938  0.65533  0.86784  1.0000
  C   C36       1.0  0.61063  0.34467  0.13216  1.0000
  C   C37       1.0  0.50933  0.74278  0.94521  1.0000
  C   C38       1.0  0.49067  0.25722  0.05479  1.0000
  C   C39       1.0  0.53858  0.72373  0.04569  1.0000
  C   C40       1.0  0.46143  0.27627  0.95431  1.0000
  C   C41       1.0  0.44212  0.62023  0.07063  1.0000
  C   C42       1.0  0.55788  0.37977  0.92937  1.0000
  C   C43       1.0  0.67500  0.81638  0.12278  1.0000
  C   C44       1.0  0.32500  0.18362  0.87723  1.0000
  C   C45       1.0  0.78126  0.09529  0.45373  1.0000
  C   C46       1.0  0.21873  0.90471  0.54627  1.0000
  C   C47       1.0  0.88126  0.20899  0.42933  1.0000
  C   C48       1.0  0.11874  0.79101  0.57067  1.0000
  C   C49       1.0  0.82275  0.23894  0.34414  1.0000
  C   C50       1.0  0.17725  0.76106  0.65586  1.0000
  C   C51       1.0  0.90444  0.34259  0.31401  1.0000
  C   C52       1.0  0.09556  0.65741  0.68599  1.0000
  C   C53       1.0  0.04612  0.41843  0.36874  1.0000
  C   C54       1.0  0.95388  0.58157  0.63126  1.0000
  C   C55       1.0  0.10564  0.38709  0.45166  1.0000
  C   C56       1.0  0.89436  0.61291  0.54834  1.0000
  C   C57       1.0  0.02483  0.28287  0.48322  1.0000
  C   C58       1.0  0.97517  0.71714  0.51678  1.0000
  C   C59       1.0  0.12756  0.53355  0.33836  1.0000
  C   C60       1.0  0.87244  0.46645  0.66164  1.0000
  C   C61       1.0  0.09723  0.25342  0.57179  1.0000
  C   C62       1.0  0.90277  0.74658  0.42821  1.0000
  N   N1        1.0  0.07007  0.03704  0.26978  1.0000
  N   N2        1.0  0.92993  0.96296  0.73022  1.0000
  N   N3        1.0  0.00230  0.20964  0.05082  1.0000
  N   N4        1.0  0.99770  0.79037  0.94918  1.0000
  N   N5        1.0  0.66246  0.16993  0.75157  1.0000
  N   N6        1.0  0.33754  0.83007  0.24843  1.0000
  O   O1        1.0  0.72773  0.77344  0.19032  1.0000
  O   O2        1.0  0.27227  0.22656  0.80968  1.0000
  O   O3        1.0  0.73001  0.92648  0.11847  1.0000
  O   O4        1.0  0.26999  0.07352  0.88153  1.0000
  O   O5        1.0  0.78790  0.98692  0.40606  1.0000
  O   O6        1.0  0.21210  0.01308  0.59394  1.0000
  O   O7        1.0  0.67749  0.10232  0.50924  1.0000
  O   O8        1.0  0.32250  0.89769  0.49076  1.0000
  O   O9        1.0  0.01235  0.16564  0.60738  1.0000
  O   O10       1.0  0.98765  0.83435  0.39262  1.0000
  O   O11       1.0  0.23156  0.31190  0.60366  1.0000
  O   O12       1.0  0.76844  0.68810  0.39634  1.0000
  O   O13       1.0  0.26398  0.59336  0.38358  1.0000
  O   O14       1.0  0.73602  0.40665  0.61642  1.0000
  O   O15       1.0  0.06251  0.56699  0.27488  1.0000
  O   O16       1.0  0.93749  0.43301  0.72512  1.0000
  O   O17       1.0  0.43285  0.20787  0.58270  1.0000
  O   O18       1.0  0.56715  0.79213  0.41730  1.0000
