data_image0
_chemical_formula_structural       Ni2H14C14N2O12
_chemical_formula_sum              "Ni2 H14 C14 N2 O12"
_cell_length_a       7.30752
_cell_length_b       8.05583
_cell_length_c       9.00828
_cell_angle_alpha    97.9868
_cell_angle_beta     100.79
_cell_angle_gamma    116.016

_space_group_name_H-M_alt    "P 1"
_space_group_IT_number       1

loop_
  _space_group_symop_operation_xyz
  'x, y, z'

loop_
  _atom_site_type_symbol
  _atom_site_label
  _atom_site_symmetry_multiplicity
  _atom_site_fract_x
  _atom_site_fract_y
  _atom_site_fract_z
  _atom_site_occupancy
  Ni  Ni1       1.0  0.60977  0.82118  0.67836  1.0000
  Ni  Ni2       1.0  0.39023  0.17882  0.32164  1.0000
  H   H1        1.0  0.23931  0.70829  0.53418  1.0000
  H   H2        1.0  0.76069  0.29171  0.46582  1.0000
  H   H3        1.0  0.33104  0.60143  0.41957  1.0000
  H   H4        1.0  0.66896  0.39857  0.58043  1.0000
  H   H5        1.0  0.52954  0.08760  0.79682  1.0000
  H   H6        1.0  0.47045  0.91240  0.20318  1.0000
  H   H7        1.0  0.62701  0.15270  0.65564  1.0000
  H   H8        1.0  0.37299  0.84730  0.34436  1.0000
  H   H9        1.0  0.66252  0.49061  0.01889  1.0000
  H   H10       1.0  0.33748  0.50939  0.98111  1.0000
  H   H11       1.0  0.01067  0.17309  0.74801  1.0000
  H   H12       1.0  0.98932  0.82691  0.25198  1.0000
  H   H13       1.0  0.68751  0.69115  0.37499  1.0000
  H   H14       1.0  0.31248  0.30885  0.62501  1.0000
  C   C1        1.0  0.80509  0.67216  0.80820  1.0000
  C   C2        1.0  0.19492  0.32784  0.19180  1.0000
  C   C3        1.0  0.90917  0.58154  0.90180  1.0000
  C   C4        1.0  0.09084  0.41847  0.09820  1.0000
  C   C5        1.0  0.81150  0.49557  0.00976  1.0000
  C   C6        1.0  0.18852  0.50445  0.99025  1.0000
  C   C7        1.0  0.10062  0.58615  0.89150  1.0000
  C   C8        1.0  0.89938  0.41386  0.10850  1.0000
  C   C9        1.0  0.21332  0.67317  0.77647  1.0000
  C   C10       1.0  0.78668  0.32683  0.22353  1.0000
  C   C11       1.0  0.00678  0.09669  0.63679  1.0000
  C   C12       1.0  0.99321  0.90331  0.36321  1.0000
  C   C13       1.0  0.82689  0.83005  0.42995  1.0000
  C   C14       1.0  0.17310  0.16994  0.57005  1.0000
  N   N1        1.0  0.83328  0.92744  0.56645  1.0000
  N   N2        1.0  0.16671  0.07256  0.43355  1.0000
  O   O1        1.0  0.65629  0.57199  0.67985  1.0000
  O   O2        1.0  0.34371  0.42801  0.32014  1.0000
  O   O3        1.0  0.85031  0.84262  0.86268  1.0000
  O   O4        1.0  0.14968  0.15738  0.13732  1.0000
  O   O5        1.0  0.41061  0.71976  0.81014  1.0000
  O   O6        1.0  0.58939  0.28024  0.18986  1.0000
  O   O7        1.0  0.10873  0.69088  0.65597  1.0000
  O   O8        1.0  0.89127  0.30911  0.34403  1.0000
  O   O9        1.0  0.35611  0.72940  0.47900  1.0000
  O   O10       1.0  0.64389  0.27060  0.52100  1.0000
  O   O11       1.0  0.63234  0.08650  0.74260  1.0000
  O   O12       1.0  0.36765  0.91350  0.25740  1.0000
