data_image0
_chemical_formula_structural       CoH18C18N4O6
_chemical_formula_sum              "Co1 H18 C18 N4 O6"
_cell_length_a       7.03345
_cell_length_b       8.41931
_cell_length_c       8.63469
_cell_angle_alpha    97.6389
_cell_angle_beta     113.882
_cell_angle_gamma    104.958

_space_group_name_H-M_alt    "P 1"
_space_group_IT_number       1

loop_
  _space_group_symop_operation_xyz
  'x, y, z'

loop_
  _atom_site_type_symbol
  _atom_site_label
  _atom_site_symmetry_multiplicity
  _atom_site_fract_x
  _atom_site_fract_y
  _atom_site_fract_z
  _atom_site_occupancy
  Co  Co1       1.0  0.50000  0.50000  0.50000  1.0000
  H   H1        1.0  0.80536  0.63258  0.15749  1.0000
  H   H2        1.0  0.19463  0.36741  0.84251  1.0000
  H   H3        1.0  0.66357  0.73635  0.87667  1.0000
  H   H4        1.0  0.33642  0.26365  0.12333  1.0000
  H   H5        1.0  0.57778  0.15251  0.57225  1.0000
  H   H6        1.0  0.42222  0.84749  0.42775  1.0000
  H   H7        1.0  0.67253  0.94734  0.74818  1.0000
  H   H8        1.0  0.32747  0.05266  0.25182  1.0000
  H   H9        1.0  0.81888  0.03186  0.07349  1.0000
  H   H10       1.0  0.18112  0.96814  0.92650  1.0000
  H   H11       1.0  0.86920  0.32072  0.22961  1.0000
  H   H12       1.0  0.13080  0.67928  0.77039  1.0000
  H   H13       1.0  0.09070  0.96355  0.36866  1.0000
  H   H14       1.0  0.90930  0.03644  0.63134  1.0000
  H   H15       1.0  0.22086  0.52393  0.59585  1.0000
  H   H16       1.0  0.77914  0.47607  0.40415  1.0000
  H   H17       1.0  0.16636  0.65817  0.48965  1.0000
  H   H18       1.0  0.83364  0.34183  0.51035  1.0000
  C   C1        1.0  0.68217  0.61318  0.88169  1.0000
  C   C2        1.0  0.31783  0.38682  0.11831  1.0000
  C   C3        1.0  0.64119  0.18851  0.71422  1.0000
  C   C4        1.0  0.35881  0.81149  0.28578  1.0000
  C   C5        1.0  0.69521  0.07543  0.81454  1.0000
  C   C6        1.0  0.30479  0.92458  0.18546  1.0000
  C   C7        1.0  0.77702  0.12291  0.99840  1.0000
  C   C8        1.0  0.22297  0.87709  0.00160  1.0000
  C   C9        1.0  0.80732  0.28467  0.08809  1.0000
  C   C10       1.0  0.19268  0.71533  0.91191  1.0000
  C   C11       1.0  0.75091  0.39725  0.98728  1.0000
  C   C12       1.0  0.24909  0.60275  0.01272  1.0000
  C   C13       1.0  0.66881  0.35131  0.80224  1.0000
  C   C14       1.0  0.33120  0.64870  0.19776  1.0000
  C   C15       1.0  0.16031  0.22589  0.50691  1.0000
  C   C16       1.0  0.83970  0.77411  0.49309  1.0000
  C   C17       1.0  0.05988  0.03880  0.46291  1.0000
  C   C18       1.0  0.94013  0.96120  0.53709  1.0000
  N   N1        1.0  0.75762  0.56353  0.03181  1.0000
  N   N2        1.0  0.24238  0.43647  0.96819  1.0000
  N   N3        1.0  0.62763  0.49034  0.74082  1.0000
  N   N4        1.0  0.37237  0.50966  0.25918  1.0000
  O   O1        1.0  0.28376  0.27802  0.43440  1.0000
  O   O2        1.0  0.71624  0.72199  0.56560  1.0000
  O   O3        1.0  0.12308  0.32365  0.61014  1.0000
  O   O4        1.0  0.87693  0.67636  0.38986  1.0000
  O   O5        1.0  0.29078  0.63261  0.57432  1.0000
  O   O6        1.0  0.70922  0.36739  0.42568  1.0000
