data_image0
_chemical_formula_structural       Ca2H28C16N4O20
_chemical_formula_sum              "Ca2 H28 C16 N4 O20"
_cell_length_a       5.94275
_cell_length_b       9.92667
_cell_length_c       10.8008
_cell_angle_alpha    111.552
_cell_angle_beta     89.9999
_cell_angle_gamma    90.0001

_space_group_name_H-M_alt    "P 1"
_space_group_IT_number       1

loop_
  _space_group_symop_operation_xyz
  'x, y, z'

loop_
  _atom_site_type_symbol
  _atom_site_label
  _atom_site_symmetry_multiplicity
  _atom_site_fract_x
  _atom_site_fract_y
  _atom_site_fract_z
  _atom_site_occupancy
  Ca  Ca1       1.0  0.55286  0.25000  1.00000  1.0000
  Ca  Ca2       1.0  0.44714  0.75000  1.00000  1.0000
  H   H1        1.0  0.17762  0.10049  0.81449  1.0000
  H   H2        1.0  0.82238  0.60049  0.81449  1.0000
  H   H3        1.0  0.82239  0.89951  0.18551  1.0000
  H   H4        1.0  0.17762  0.39951  0.18551  1.0000
  H   H5        1.0  0.19859  0.99224  0.89309  1.0000
  H   H6        1.0  0.80141  0.49224  0.89309  1.0000
  H   H7        1.0  0.80141  0.00775  0.10692  1.0000
  H   H8        1.0  0.19859  0.50776  0.10691  1.0000
  H   H9        1.0  0.01324  0.14507  0.02536  1.0000
  H   H10       1.0  0.98676  0.64507  0.02536  1.0000
  H   H11       1.0  0.98676  0.85493  0.97464  1.0000
  H   H12       1.0  0.01324  0.35493  0.97464  1.0000
  H   H13       1.0  0.94501  0.23668  0.17409  1.0000
  H   H14       1.0  0.05499  0.73668  0.17409  1.0000
  H   H15       1.0  0.05499  0.76332  0.82591  1.0000
  H   H16       1.0  0.94501  0.26332  0.82591  1.0000
  H   H17       1.0  0.86737  0.98793  0.59698  1.0000
  H   H18       1.0  0.13264  0.48793  0.59698  1.0000
  H   H19       1.0  0.13264  0.01207  0.40302  1.0000
  H   H20       1.0  0.86736  0.51207  0.40302  1.0000
  H   H21       1.0  0.34335  0.71861  0.62569  1.0000
  H   H22       1.0  0.65665  0.21861  0.62568  1.0000
  H   H23       1.0  0.65665  0.28139  0.37431  1.0000
  H   H24       1.0  0.34335  0.78139  0.37432  1.0000
  H   H25       1.0  0.32399  0.88971  0.60907  1.0000
  H   H26       1.0  0.67601  0.38971  0.60907  1.0000
  H   H27       1.0  0.67601  0.11029  0.39093  1.0000
  H   H28       1.0  0.32399  0.61029  0.39093  1.0000
  C   C1        1.0  0.66374  0.82062  0.62490  1.0000
  C   C2        1.0  0.33626  0.32062  0.62489  1.0000
  C   C3        1.0  0.33626  0.17938  0.37510  1.0000
  C   C4        1.0  0.66374  0.67938  0.37510  1.0000
  C   C5        1.0  0.78964  0.67475  0.58472  1.0000
  C   C6        1.0  0.21037  0.17476  0.58472  1.0000
  C   C7        1.0  0.21037  0.32524  0.41528  1.0000
  C   C8        1.0  0.78964  0.82525  0.41528  1.0000
  C   C9        1.0  0.41660  0.78678  0.57604  1.0000
  C   C10       1.0  0.58339  0.28678  0.57604  1.0000
  C   C11       1.0  0.58339  0.21322  0.42396  1.0000
  C   C12       1.0  0.41661  0.71322  0.42396  1.0000
  C   C13       1.0  0.65707  0.91273  0.77475  1.0000
  C   C14       1.0  0.34292  0.41274  0.77474  1.0000
  C   C15       1.0  0.34292  0.08726  0.22526  1.0000
  C   C16       1.0  0.65707  0.58727  0.22525  1.0000
  N   N1        1.0  0.77241  0.89663  0.54705  1.0000
  N   N2        1.0  0.22759  0.39663  0.54705  1.0000
  N   N3        1.0  0.22759  0.10337  0.45295  1.0000
  N   N4        1.0  0.77241  0.60337  0.45295  1.0000
  O   O1        1.0  0.21989  0.09489  0.90047  1.0000
  O   O2        1.0  0.78011  0.59488  0.90047  1.0000
  O   O3        1.0  0.78011  0.90511  0.09953  1.0000
  O   O4        1.0  0.21990  0.40511  0.09953  1.0000
  O   O5        1.0  0.88805  0.16357  0.09138  1.0000
  O   O6        1.0  0.11195  0.66357  0.09138  1.0000
  O   O7        1.0  0.11196  0.83643  0.90862  1.0000
  O   O8        1.0  0.88805  0.33643  0.90862  1.0000
  O   O9        1.0  0.90136  0.63001  0.66082  1.0000
  O   O10       1.0  0.09864  0.13000  0.66083  1.0000
  O   O11       1.0  0.09864  0.37000  0.33917  1.0000
  O   O12       1.0  0.90137  0.87000  0.33918  1.0000
  O   O13       1.0  0.70629  0.04511  0.80892  1.0000
  O   O14       1.0  0.29371  0.54511  0.80891  1.0000
  O   O15       1.0  0.29371  0.95489  0.19109  1.0000
  O   O16       1.0  0.70629  0.45489  0.19108  1.0000
  O   O17       1.0  0.58778  0.84608  0.84632  1.0000
  O   O18       1.0  0.41222  0.34608  0.84633  1.0000
  O   O19       1.0  0.41222  0.15392  0.15367  1.0000
  O   O20       1.0  0.58778  0.65392  0.15368  1.0000
