data_image0
_chemical_formula_structural       Sr2H28C16N4O20
_chemical_formula_sum              "Sr2 H28 C16 N4 O20"
_cell_length_a       6.05474
_cell_length_b       10.1717
_cell_length_c       10.9538
_cell_angle_alpha    111.879
_cell_angle_beta     90.0003
_cell_angle_gamma    89.9997

_space_group_name_H-M_alt    "P 1"
_space_group_IT_number       1

loop_
  _space_group_symop_operation_xyz
  'x, y, z'

loop_
  _atom_site_type_symbol
  _atom_site_label
  _atom_site_symmetry_multiplicity
  _atom_site_fract_x
  _atom_site_fract_y
  _atom_site_fract_z
  _atom_site_occupancy
  Sr  Sr1       1.0  0.44510  0.14019  0.99660  1.0000
  Sr  Sr2       1.0  0.55490  0.64020  0.99661  1.0000
  H   H1        1.0  0.97888  0.03337  0.02550  1.0000
  H   H2        1.0  0.02112  0.53336  0.02550  1.0000
  H   H3        1.0  0.03577  0.12252  0.17486  1.0000
  H   H4        1.0  0.96423  0.62251  0.17486  1.0000
  H   H5        1.0  0.03582  0.15725  0.81789  1.0000
  H   H6        1.0  0.96418  0.65725  0.81789  1.0000
  H   H7        1.0  0.97885  0.24650  0.96720  1.0000
  H   H8        1.0  0.02115  0.74650  0.96720  1.0000
  H   H9        1.0  0.84256  0.29619  0.18249  1.0000
  H   H10       1.0  0.15743  0.79619  0.18249  1.0000
  H   H11       1.0  0.81628  0.40209  0.10703  1.0000
  H   H12       1.0  0.18371  0.90209  0.10703  1.0000
  H   H13       1.0  0.81620  0.87777  0.88585  1.0000
  H   H14       1.0  0.18380  0.37777  0.88585  1.0000
  H   H15       1.0  0.84219  0.98384  0.81054  1.0000
  H   H16       1.0  0.15781  0.48383  0.81054  1.0000
  H   H17       1.0  0.13066  0.87513  0.59174  1.0000
  H   H18       1.0  0.86934  0.37513  0.59175  1.0000
  H   H19       1.0  0.13172  0.40521  0.40150  1.0000
  H   H20       1.0  0.86827  0.90521  0.40150  1.0000
  H   H21       1.0  0.65936  0.50256  0.38986  1.0000
  H   H22       1.0  0.34064  0.00256  0.38986  1.0000
  H   H23       1.0  0.64183  0.66853  0.37167  1.0000
  H   H24       1.0  0.35817  0.16854  0.37167  1.0000
  H   H25       1.0  0.65864  0.77891  0.60363  1.0000
  H   H26       1.0  0.34135  0.27891  0.60363  1.0000
  H   H27       1.0  0.64220  0.61286  0.62177  1.0000
  H   H28       1.0  0.35781  0.11286  0.62177  1.0000
  C   C1        1.0  0.32640  0.57001  0.37367  1.0000
  C   C2        1.0  0.67361  0.07002  0.37367  1.0000
  C   C3        1.0  0.20243  0.71272  0.41202  1.0000
  C   C4        1.0  0.79757  0.21272  0.41202  1.0000
  C   C5        1.0  0.32613  0.71066  0.61968  1.0000
  C   C6        1.0  0.67387  0.21066  0.61968  1.0000
  C   C7        1.0  0.20284  0.56774  0.58128  1.0000
  C   C8        1.0  0.79716  0.06774  0.58128  1.0000
  C   C9        1.0  0.56907  0.60344  0.42164  1.0000
  C   C10       1.0  0.43093  0.10344  0.42164  1.0000
  C   C11       1.0  0.56894  0.67783  0.57183  1.0000
  C   C12       1.0  0.43107  0.17783  0.57183  1.0000
  C   C13       1.0  0.33204  0.47751  0.22606  1.0000
  C   C14       1.0  0.66796  0.97751  0.22606  1.0000
  C   C15       1.0  0.33174  0.80305  0.76731  1.0000
  C   C16       1.0  0.66826  0.30306  0.76731  1.0000
  N   N1        1.0  0.21901  0.78371  0.54222  1.0000
  N   N2        1.0  0.78099  0.28371  0.54223  1.0000
  N   N3        1.0  0.21976  0.49674  0.45110  1.0000
  N   N4        1.0  0.78025  0.99674  0.45110  1.0000
  O   O1        1.0  0.09812  0.05371  0.09303  1.0000
  O   O2        1.0  0.90188  0.55371  0.09303  1.0000
  O   O3        1.0  0.09375  0.75518  0.33607  1.0000
  O   O4        1.0  0.90624  0.25517  0.33607  1.0000
  O   O5        1.0  0.09812  0.22614  0.89971  1.0000
  O   O6        1.0  0.90187  0.72614  0.89971  1.0000
  O   O7        1.0  0.09433  0.52510  0.65718  1.0000
  O   O8        1.0  0.90568  0.02510  0.65718  1.0000
  O   O9        1.0  0.78868  0.30264  0.10047  1.0000
  O   O10       1.0  0.21131  0.80264  0.10047  1.0000
  O   O11       1.0  0.27862  0.34906  0.19385  1.0000
  O   O12       1.0  0.72139  0.84906  0.19386  1.0000
  O   O13       1.0  0.78843  0.97725  0.89253  1.0000
  O   O14       1.0  0.21156  0.47725  0.89254  1.0000
  O   O15       1.0  0.40322  0.53908  0.15340  1.0000
  O   O16       1.0  0.59678  0.03908  0.15341  1.0000
  O   O17       1.0  0.40296  0.74135  0.83984  1.0000
  O   O18       1.0  0.59704  0.24136  0.83984  1.0000
  O   O19       1.0  0.27828  0.93151  0.79961  1.0000
  O   O20       1.0  0.72171  0.43151  0.79961  1.0000
