data_image0
_chemical_formula_structural       Sr2H60C40N8O32
_chemical_formula_sum              "Sr2 H60 C40 N8 O32"
_cell_length_a       5.94505
_cell_length_b       10.3407
_cell_length_c       22.0081
_cell_angle_alpha    98.3496
_cell_angle_beta     97.7496
_cell_angle_gamma    90.0031

_space_group_name_H-M_alt    "P 1"
_space_group_IT_number       1

loop_
  _space_group_symop_operation_xyz
  'x, y, z'

loop_
  _atom_site_type_symbol
  _atom_site_label
  _atom_site_symmetry_multiplicity
  _atom_site_fract_x
  _atom_site_fract_y
  _atom_site_fract_z
  _atom_site_occupancy
  Sr  Sr1       1.0  0.94137  0.24999  0.00001  1.0000
  Sr  Sr2       1.0  0.05863  0.75001  0.99999  1.0000
  H   H1        1.0  0.39887  0.36108  0.08576  1.0000
  H   H2        1.0  0.68665  0.86103  0.08574  1.0000
  H   H3        1.0  0.60113  0.63892  0.91424  1.0000
  H   H4        1.0  0.31335  0.13897  0.91426  1.0000
  H   H5        1.0  0.34209  0.48486  0.05191  1.0000
  H   H6        1.0  0.70969  0.98486  0.05193  1.0000
  H   H7        1.0  0.65791  0.51514  0.94809  1.0000
  H   H8        1.0  0.29031  0.01514  0.94807  1.0000
  H   H9        1.0  0.48690  0.31922  0.91427  1.0000
  H   H10       1.0  0.42746  0.81913  0.91426  1.0000
  H   H11       1.0  0.51311  0.68078  0.08573  1.0000
  H   H12       1.0  0.57254  0.18087  0.08574  1.0000
  H   H13       1.0  0.46697  0.36616  0.98553  1.0000
  H   H14       1.0  0.51852  0.86617  0.98550  1.0000
  H   H15       1.0  0.53303  0.63384  0.01447  1.0000
  H   H16       1.0  0.48148  0.13383  0.01450  1.0000
  H   H17       1.0  0.57361  0.30825  0.27929  1.0000
  H   H18       1.0  0.70586  0.80822  0.27931  1.0000
  H   H19       1.0  0.42639  0.69175  0.72071  1.0000
  H   H20       1.0  0.29414  0.19178  0.72069  1.0000
  H   H21       1.0  0.44038  0.89919  0.18495  1.0000
  H   H22       1.0  0.74473  0.39928  0.18496  1.0000
  H   H23       1.0  0.55961  0.10081  0.81505  1.0000
  H   H24       1.0  0.25527  0.60072  0.81504  1.0000
  H   H25       1.0  0.92757  0.02335  0.19397  1.0000
  H   H26       1.0  0.26666  0.52350  0.19387  1.0000
  H   H27       1.0  0.07243  0.97665  0.80603  1.0000
  H   H28       1.0  0.73334  0.47650  0.80613  1.0000
  H   H29       1.0  0.95585  0.19063  0.18623  1.0000
  H   H30       1.0  0.23052  0.69077  0.18615  1.0000
  H   H31       1.0  0.04414  0.80937  0.81377  1.0000
  H   H32       1.0  0.76949  0.30923  0.81385  1.0000
  H   H33       1.0  0.02293  0.07130  0.30256  1.0000
  H   H34       1.0  0.28003  0.57140  0.30247  1.0000
  H   H35       1.0  0.97707  0.92870  0.69744  1.0000
  H   H36       1.0  0.71997  0.42860  0.69753  1.0000
  H   H37       1.0  0.02955  0.23911  0.29598  1.0000
  H   H38       1.0  0.26676  0.73920  0.29591  1.0000
  H   H39       1.0  0.97045  0.76089  0.70402  1.0000
  H   H40       1.0  0.73325  0.26079  0.70409  1.0000
  H   H41       1.0  0.68815  0.20159  0.46839  1.0000
  H   H42       1.0  0.77980  0.70178  0.46831  1.0000
  H   H43       1.0  0.31185  0.79841  0.53161  1.0000
  H   H44       1.0  0.22020  0.29822  0.53169  1.0000
  H   H45       1.0  0.93785  0.24266  0.43726  1.0000
  H   H46       1.0  0.49910  0.74280  0.43711  1.0000
  H   H47       1.0  0.06215  0.75734  0.56274  1.0000
  H   H48       1.0  0.50090  0.25720  0.56289  1.0000
  H   H49       1.0  0.79722  0.43766  0.50407  1.0000
  H   H50       1.0  0.70631  0.93772  0.50409  1.0000
  H   H51       1.0  0.20278  0.56234  0.49593  1.0000
  H   H52       1.0  0.29370  0.06228  0.49591  1.0000
  H   H53       1.0  0.53152  0.42399  0.45536  1.0000
  H   H54       1.0  0.92345  0.92426  0.45540  1.0000
  H   H55       1.0  0.46848  0.57601  0.54464  1.0000
  H   H56       1.0  0.07655  0.07574  0.54460  1.0000
  H   H57       1.0  0.78146  0.46438  0.42493  1.0000
  H   H58       1.0  0.64314  0.96466  0.42497  1.0000
  H   H59       1.0  0.21854  0.53562  0.57507  1.0000
  H   H60       1.0  0.35686  0.03534  0.57503  1.0000
  C   C1        1.0  0.26280  0.07991  0.17900  1.0000
  C   C2        1.0  0.91641  0.57997  0.17897  1.0000
  C   C3        1.0  0.73720  0.92009  0.82100  1.0000
  C   C4        1.0  0.08359  0.42004  0.82103  1.0000
  C   C5        1.0  0.41596  0.20375  0.19664  1.0000
  C   C6        1.0  0.78075  0.70371  0.19665  1.0000
  C   C7        1.0  0.58404  0.79625  0.80336  1.0000
  C   C8        1.0  0.21925  0.29629  0.80335  1.0000
  C   C9        1.0  0.35625  0.14705  0.29513  1.0000
  C   C10       1.0  0.93919  0.64710  0.29512  1.0000
  C   C11       1.0  0.64375  0.85295  0.70487  1.0000
  C   C12       1.0  0.06081  0.35290  0.70488  1.0000
  C   C13       1.0  0.43948  0.00845  0.27252  1.0000
  C   C14       1.0  0.83335  0.50848  0.27253  1.0000
  C   C15       1.0  0.56052  0.99154  0.72748  1.0000
  C   C16       1.0  0.16665  0.49152  0.72747  1.0000
  C   C17       1.0  0.03925  0.11036  0.20734  1.0000
  C   C18       1.0  0.16830  0.61048  0.20726  1.0000
  C   C19       1.0  0.96075  0.88964  0.79266  1.0000
  C   C20       1.0  0.83170  0.38952  0.79274  1.0000
  C   C21       1.0  0.09515  0.14371  0.27845  1.0000
  C   C22       1.0  0.18365  0.64380  0.27839  1.0000
  C   C23       1.0  0.90484  0.85629  0.72155  1.0000
  C   C24       1.0  0.81635  0.35620  0.72161  1.0000
  C   C25       1.0  0.21185  0.03233  0.10880  1.0000
  C   C26       1.0  0.89681  0.53236  0.10878  1.0000
  C   C27       1.0  0.78815  0.96767  0.89120  1.0000
  C   C28       1.0  0.10319  0.46764  0.89122  1.0000
  C   C29       1.0  0.43497  0.18448  0.36444  1.0000
  C   C30       1.0  0.92956  0.68458  0.36442  1.0000
  C   C31       1.0  0.56503  0.81552  0.63556  1.0000
  C   C32       1.0  0.07044  0.31542  0.63558  1.0000
  C   C33       1.0  0.75741  0.26276  0.43835  1.0000
  C   C34       1.0  0.68063  0.76299  0.43827  1.0000
  C   C35       1.0  0.24259  0.73724  0.56165  1.0000
  C   C36       1.0  0.31937  0.23701  0.56173  1.0000
  C   C37       1.0  0.71398  0.40641  0.45655  1.0000
  C   C38       1.0  0.74217  0.90662  0.45656  1.0000
  C   C39       1.0  0.28602  0.59359  0.54344  1.0000
  C   C40       1.0  0.25783  0.09338  0.54344  1.0000
  N   N1        1.0  0.45294  0.23601  0.25851  1.0000
  N   N2        1.0  0.80581  0.73603  0.25851  1.0000
  N   N3        1.0  0.54706  0.76399  0.74149  1.0000
  N   N4        1.0  0.19419  0.26397  0.74149  1.0000
  N   N5        1.0  0.38127  0.97982  0.21108  1.0000
  N   N6        1.0  0.83016  0.47984  0.21109  1.0000
  N   N7        1.0  0.61873  0.02018  0.78892  1.0000
  N   N8        1.0  0.16984  0.52016  0.78891  1.0000
  O   O1        1.0  0.31386  0.38825  0.04865  1.0000
  O   O2        1.0  0.73462  0.88824  0.04864  1.0000
  O   O3        1.0  0.68614  0.61175  0.95135  1.0000
  O   O4        1.0  0.26538  0.11176  0.95136  1.0000
  O   O5        1.0  0.57249  0.36190  0.95363  1.0000
  O   O6        1.0  0.38118  0.86192  0.95360  1.0000
  O   O7        1.0  0.42751  0.63810  0.04637  1.0000
  O   O8        1.0  0.61882  0.13808  0.04640  1.0000
  O   O9        1.0  0.50188  0.26472  0.15977  1.0000
  O   O10       1.0  0.65774  0.76457  0.15978  1.0000
  O   O11       1.0  0.49813  0.73528  0.84023  1.0000
  O   O12       1.0  0.34226  0.23543  0.84022  1.0000
  O   O13       1.0  0.54299  0.93689  0.30734  1.0000
  O   O14       1.0  0.76457  0.43694  0.30736  1.0000
  O   O15       1.0  0.45700  0.06311  0.69266  1.0000
  O   O16       1.0  0.23543  0.56306  0.69264  1.0000
  O   O17       1.0  0.11866  0.11478  0.07737  1.0000
  O   O18       1.0  0.95866  0.61475  0.07732  1.0000
  O   O19       1.0  0.88134  0.88522  0.92263  1.0000
  O   O20       1.0  0.04135  0.38525  0.92268  1.0000
  O   O21       1.0  0.26304  0.91595  0.09046  1.0000
  O   O22       1.0  0.82706  0.41602  0.09045  1.0000
  O   O23       1.0  0.73696  0.08405  0.90954  1.0000
  O   O24       1.0  0.17294  0.58398  0.90955  1.0000
  O   O25       1.0  0.31133  0.17965  0.40417  1.0000
  O   O26       1.0  0.09271  0.67965  0.40418  1.0000
  O   O27       1.0  0.68867  0.82035  0.59583  1.0000
  O   O28       1.0  0.90729  0.32035  0.59582  1.0000
  O   O29       1.0  0.65481  0.21881  0.37418  1.0000
  O   O30       1.0  0.71948  0.71909  0.37412  1.0000
  O   O31       1.0  0.34519  0.78119  0.62582  1.0000
  O   O32       1.0  0.28051  0.28090  0.62588  1.0000
