data_image0
_chemical_formula_structural       Ag2H40C44N4O4F6
_chemical_formula_sum              "Ag2 H40 C44 N4 O4 F6"
_cell_length_a       4.48773
_cell_length_b       14.3502
_cell_length_c       15.4117
_cell_angle_alpha    89.401
_cell_angle_beta     85.1519
_cell_angle_gamma    87.4356

_space_group_name_H-M_alt    "P 1"
_space_group_IT_number       1

loop_
  _space_group_symop_operation_xyz
  'x, y, z'

loop_
  _atom_site_type_symbol
  _atom_site_label
  _atom_site_symmetry_multiplicity
  _atom_site_fract_x
  _atom_site_fract_y
  _atom_site_fract_z
  _atom_site_occupancy
  Ag  Ag1       1.0  0.76794  0.53733  0.44984  1.0000
  Ag  Ag2       1.0  0.23206  0.46268  0.55016  1.0000
  H   H1        1.0  0.37837  0.70863  0.35948  1.0000
  H   H2        1.0  0.62163  0.29137  0.64052  1.0000
  H   H3        1.0  0.97696  0.79766  0.37983  1.0000
  H   H4        1.0  0.02304  0.20234  0.62017  1.0000
  H   H5        1.0  0.50974  0.98699  0.21613  1.0000
  H   H6        1.0  0.49026  0.01301  0.78387  1.0000
  H   H7        1.0  0.84577  0.71958  0.11728  1.0000
  H   H8        1.0  0.15423  0.28043  0.88272  1.0000
  H   H9        1.0  0.51151  0.01812  0.37225  1.0000
  H   H10       1.0  0.48849  0.98188  0.62776  1.0000
  H   H11       1.0  0.90399  0.01236  0.37895  1.0000
  H   H12       1.0  0.09601  0.98764  0.62105  1.0000
  H   H13       1.0  0.67812  0.93515  0.44226  1.0000
  H   H14       1.0  0.32188  0.06486  0.55775  1.0000
  H   H15       1.0  0.59975  0.82577  0.02286  1.0000
  H   H16       1.0  0.40025  0.17423  0.97714  1.0000
  H   H17       1.0  0.61846  0.94672  0.04477  1.0000
  H   H18       1.0  0.38154  0.05328  0.95524  1.0000
  H   H19       1.0  0.29254  0.88711  0.08057  1.0000
  H   H20       1.0  0.70746  0.11289  0.91943  1.0000
  H   H21       1.0  0.45787  0.42482  0.31559  1.0000
  H   H22       1.0  0.54213  0.57518  0.68441  1.0000
  H   H23       1.0  0.30816  0.31566  0.25864  1.0000
  H   H24       1.0  0.69184  0.68434  0.74136  1.0000
  H   H25       1.0  0.86035  0.20914  0.04843  1.0000
  H   H26       1.0  0.13966  0.79086  0.95157  1.0000
  H   H27       1.0  0.81297  0.50410  0.09880  1.0000
  H   H28       1.0  0.18703  0.49590  0.90120  1.0000
  H   H29       1.0  0.29146  0.11686  0.12114  1.0000
  H   H30       1.0  0.70854  0.88314  0.87886  1.0000
  H   H31       1.0  0.01623  0.11418  0.21018  1.0000
  H   H32       1.0  0.98377  0.88581  0.78981  1.0000
  H   H33       1.0  0.37471  0.15568  0.22539  1.0000
  H   H34       1.0  0.62529  0.84432  0.77460  1.0000
  H   H35       1.0  0.66393  0.31756  0.94141  1.0000
  H   H36       1.0  0.33607  0.68243  0.05859  1.0000
  H   H37       1.0  0.67823  0.43970  0.95536  1.0000
  H   H38       1.0  0.32177  0.56030  0.04464  1.0000
  H   H39       1.0  0.38737  0.37753  0.01143  1.0000
  H   H40       1.0  0.61264  0.62247  0.98857  1.0000
  C   C1        1.0  0.30610  0.64907  0.32484  1.0000
  C   C2        1.0  0.69390  0.35093  0.67516  1.0000
  C   C3        1.0  0.09370  0.65910  0.26284  1.0000
  C   C4        1.0  0.90630  0.34090  0.73716  1.0000
  C   C5        1.0  0.93823  0.75007  0.24873  1.0000
  C   C6        1.0  0.06177  0.24993  0.75127  1.0000
  C   C7        1.0  0.89861  0.81511  0.31643  1.0000
  C   C8        1.0  0.10139  0.18489  0.68357  1.0000
  C   C9        1.0  0.74504  0.90089  0.30556  1.0000
  C   C10       1.0  0.25496  0.09911  0.69444  1.0000
  C   C11       1.0  0.63262  0.92064  0.22516  1.0000
  C   C12       1.0  0.36738  0.07936  0.77484  1.0000
  C   C13       1.0  0.66747  0.85665  0.15640  1.0000
  C   C14       1.0  0.33253  0.14335  0.84360  1.0000
  C   C15       1.0  0.81947  0.77118  0.16902  1.0000
  C   C16       1.0  0.18053  0.22882  0.83098  1.0000
  C   C17       1.0  0.70581  0.97008  0.37863  1.0000
  C   C18       1.0  0.29419  0.02992  0.62137  1.0000
  C   C19       1.0  0.53846  0.88008  0.07145  1.0000
  C   C20       1.0  0.46154  0.11992  0.92856  1.0000
  C   C21       1.0  0.35288  0.49145  0.29853  1.0000
  C   C22       1.0  0.64712  0.50855  0.70147  1.0000
  C   C23       1.0  0.15033  0.50101  0.23397  1.0000
  C   C24       1.0  0.84966  0.49899  0.76603  1.0000
  C   C25       1.0  0.06728  0.41969  0.18442  1.0000
  C   C26       1.0  0.93271  0.58031  0.81558  1.0000
  C   C27       1.0  0.16715  0.32850  0.20521  1.0000
  C   C28       1.0  0.83284  0.67150  0.79479  1.0000
  C   C29       1.0  0.09235  0.25219  0.15725  1.0000
  C   C30       1.0  0.90764  0.74781  0.84275  1.0000
  C   C31       1.0  0.91651  0.26824  0.08710  1.0000
  C   C32       1.0  0.08348  0.73176  0.91290  1.0000
  C   C33       1.0  0.81362  0.35814  0.06471  1.0000
  C   C34       1.0  0.18638  0.64186  0.93529  1.0000
  C   C35       1.0  0.88917  0.43325  0.11444  1.0000
  C   C36       1.0  0.11083  0.56675  0.88556  1.0000
  C   C37       1.0  0.20013  0.15478  0.17976  1.0000
  C   C38       1.0  0.79987  0.84522  0.82024  1.0000
  C   C39       1.0  0.62679  0.37397  0.98905  1.0000
  C   C40       1.0  0.37322  0.62603  0.01095  1.0000
  C   C41       1.0  0.91927  0.32105  0.44785  1.0000
  C   C42       1.0  0.08073  0.67896  0.55214  1.0000
  C   C43       1.0  0.84723  0.22020  0.42323  1.0000
  C   C44       1.0  0.15278  0.77979  0.57677  1.0000
  N   N1        1.0  0.43132  0.56538  0.34258  1.0000
  N   N2        1.0  0.56868  0.43462  0.65742  1.0000
  N   N3        1.0  0.02324  0.58529  0.21689  1.0000
  N   N4        1.0  0.97676  0.41470  0.78311  1.0000
  O   O1        1.0  0.76812  0.38520  0.41365  1.0000
  O   O2        1.0  0.23188  0.61480  0.58635  1.0000
  O   O3        1.0  0.11529  0.32488  0.50142  1.0000
  O   O4        1.0  0.88472  0.67512  0.49858  1.0000
  F   F1        1.0  0.68299  0.21744  0.35342  1.0000
  F   F2        1.0  0.31702  0.78255  0.64658  1.0000
  F   F3        1.0  0.68877  0.17934  0.49197  1.0000
  F   F4        1.0  0.31123  0.82066  0.50803  1.0000
  F   F5        1.0  0.10051  0.16586  0.40440  1.0000
  F   F6        1.0  0.89950  0.83414  0.59560  1.0000
