data_image0
_chemical_formula_structural       H24Rh2C35N2O14
_chemical_formula_sum              "H24 Rh2 C35 N2 O14"
_cell_length_a       9.51512
_cell_length_b       10.3003
_cell_length_c       11.0541
_cell_angle_alpha    70.2118
_cell_angle_beta     66.2044
_cell_angle_gamma    63.1334

_space_group_name_H-M_alt    "P 1"
_space_group_IT_number       1

loop_
  _space_group_symop_operation_xyz
  'x, y, z'

loop_
  _atom_site_type_symbol
  _atom_site_label
  _atom_site_symmetry_multiplicity
  _atom_site_fract_x
  _atom_site_fract_y
  _atom_site_fract_z
  _atom_site_occupancy
  H   H1        1.0  0.00081  0.09707  0.37250  1.0000
  H   H2        1.0  0.99919  0.90293  0.62750  1.0000
  H   H3        1.0  0.16760  0.84786  0.30496  1.0000
  H   H4        1.0  0.83240  0.15214  0.69504  1.0000
  H   H5        1.0  0.02920  0.71388  0.27303  1.0000
  H   H6        1.0  0.97080  0.28612  0.72698  1.0000
  H   H7        1.0  0.72378  0.81711  0.32040  1.0000
  H   H8        1.0  0.27621  0.18289  0.67960  1.0000
  H   H9        1.0  0.55892  0.06372  0.39070  1.0000
  H   H10       1.0  0.44108  0.93628  0.60930  1.0000
  H   H11       1.0  0.74961  0.78288  0.09558  1.0000
  H   H12       1.0  0.25039  0.21712  0.90442  1.0000
  H   H13       1.0  0.78755  0.91023  0.85573  1.0000
  H   H14       1.0  0.21245  0.08976  0.14427  1.0000
  H   H15       1.0  0.61667  0.91742  0.73010  1.0000
  H   H16       1.0  0.38333  0.08258  0.26990  1.0000
  H   H17       1.0  0.40889  0.79636  0.84519  1.0000
  H   H18       1.0  0.59112  0.20363  0.15481  1.0000
  H   H19       1.0  0.37063  0.67040  0.08659  1.0000
  H   H20       1.0  0.62937  0.32960  0.91341  1.0000
  H   H21       1.0  0.26284  0.37708  0.34579  1.0000
  H   H22       1.0  0.73718  0.62291  0.65421  1.0000
  H   H23       1.0  0.99402  0.39444  0.33645  1.0000
  H   H24       1.0  0.00599  0.60555  0.66355  1.0000
  Rh  Rh1       1.0  0.37538  0.49219  0.50326  1.0000
  Rh  Rh2       1.0  0.62463  0.50781  0.49674  1.0000
  C   C1        1.0  0.67241  0.24317  0.42245  1.0000
  C   C2        1.0  0.32760  0.75684  0.57755  1.0000
  C   C3        1.0  0.77088  0.09547  0.38323  1.0000
  C   C4        1.0  0.22912  0.90453  0.61677  1.0000
  C   C5        1.0  0.94244  0.03485  0.35972  1.0000
  C   C6        1.0  0.05756  0.96515  0.64028  1.0000
  C   C7        1.0  0.03464  0.89730  0.32119  1.0000
  C   C8        1.0  0.96535  0.10270  0.67881  1.0000
  C   C9        1.0  0.95629  0.82055  0.30472  1.0000
  C   C10       1.0  0.04371  0.17945  0.69528  1.0000
  C   C11       1.0  0.78497  0.87927  0.32979  1.0000
  C   C12       1.0  0.21502  0.12073  0.67021  1.0000
  C   C13       1.0  0.69254  0.01620  0.36947  1.0000
  C   C14       1.0  0.30746  0.98380  0.63053  1.0000
  C   C15       1.0  0.53678  0.64160  0.24845  1.0000
  C   C16       1.0  0.46322  0.35840  0.75155  1.0000
  C   C17       1.0  0.55759  0.71954  0.10546  1.0000
  C   C18       1.0  0.44240  0.28046  0.89454  1.0000
  C   C19       1.0  0.67542  0.78681  0.03993  1.0000
  C   C20       1.0  0.32458  0.21318  0.96007  1.0000
  C   C21       1.0  0.69597  0.85808  0.90556  1.0000
  C   C22       1.0  0.30403  0.14192  0.09444  1.0000
  C   C23       1.0  0.59995  0.86178  0.83554  1.0000
  C   C24       1.0  0.40006  0.13822  0.16446  1.0000
  C   C25       1.0  0.48280  0.79435  0.90028  1.0000
  C   C26       1.0  0.51720  0.20564  0.09972  1.0000
  C   C27       1.0  0.46074  0.72407  0.03501  1.0000
  C   C28       1.0  0.53926  0.27593  0.96499  1.0000
  C   C29       1.0  0.14490  0.43176  0.41490  1.0000
  C   C30       1.0  0.85512  0.56824  0.58510  1.0000
  C   C31       1.0  0.99724  0.44190  0.40927  1.0000
  C   C32       1.0  0.00276  0.55809  0.59073  1.0000
  C   C33       1.0  0.13174  0.57609  0.99301  1.0000
  C   C34       1.0  0.86825  0.42391  0.00699  1.0000
  C   C35       1.0  1.00000  0.00001  0.00000  1.0000
  N   N1        1.0  0.14852  0.48970  0.50566  1.0000
  N   N2        1.0  0.85149  0.51029  0.49434  1.0000
  O   O1        1.0  0.75075  0.30851  0.43599  1.0000
  O   O2        1.0  0.24925  0.69148  0.56401  1.0000
  O   O3        1.0  0.51630  0.29420  0.43997  1.0000
  O   O4        1.0  0.48369  0.70580  0.56003  1.0000
  O   O5        1.0  0.64448  0.62020  0.30194  1.0000
  O   O6        1.0  0.35552  0.37980  0.69806  1.0000
  O   O7        1.0  0.41211  0.60092  0.30754  1.0000
  O   O8        1.0  0.58789  0.39909  0.69246  1.0000
  O   O9        1.0  0.09754  0.60200  0.89421  1.0000
  O   O10       1.0  0.90246  0.39800  0.10579  1.0000
  O   O11       1.0  0.16585  0.55093  0.09179  1.0000
  O   O12       1.0  0.83415  0.44907  0.90821  1.0000
  O   O13       1.0  0.02062  0.88856  0.97659  1.0000
  O   O14       1.0  0.97938  0.11144  0.02341  1.0000
