data_image0
_chemical_formula_structural       H24Rh2C33N2O10
_chemical_formula_sum              "H24 Rh2 C33 N2 O10"
_cell_length_a       9.49522
_cell_length_b       10.2424
_cell_length_c       10.732
_cell_angle_alpha    72.7528
_cell_angle_beta     64.7445
_cell_angle_gamma    63.2682

_space_group_name_H-M_alt    "P 1"
_space_group_IT_number       1

loop_
  _space_group_symop_operation_xyz
  'x, y, z'

loop_
  _atom_site_type_symbol
  _atom_site_label
  _atom_site_symmetry_multiplicity
  _atom_site_fract_x
  _atom_site_fract_y
  _atom_site_fract_z
  _atom_site_occupancy
  H   H1        1.0  0.43655  0.94611  0.61173  1.0000
  H   H2        1.0  0.56345  0.05388  0.38828  1.0000
  H   H3        1.0  0.26712  0.19734  0.68651  1.0000
  H   H4        1.0  0.73290  0.80265  0.31349  1.0000
  H   H5        1.0  0.95819  0.30343  0.73656  1.0000
  H   H6        1.0  0.04183  0.69658  0.26344  1.0000
  H   H7        1.0  0.82211  0.16871  0.69893  1.0000
  H   H8        1.0  0.17791  0.83131  0.30108  1.0000
  H   H9        1.0  0.99398  0.91589  0.62492  1.0000
  H   H10       1.0  0.00602  0.08413  0.37508  1.0000
  H   H11       1.0  0.76083  0.77170  0.08842  1.0000
  H   H12       1.0  0.23918  0.22830  0.91157  1.0000
  H   H13       1.0  0.78860  0.91030  0.85219  1.0000
  H   H14       1.0  0.21140  0.08969  0.14780  1.0000
  H   H15       1.0  0.61824  0.91785  0.72430  1.0000
  H   H16       1.0  0.38176  0.08213  0.27570  1.0000
  H   H17       1.0  0.41871  0.78651  0.83555  1.0000
  H   H18       1.0  0.58129  0.21348  0.16446  1.0000
  H   H19       1.0  0.38785  0.65187  0.07473  1.0000
  H   H20       1.0  0.61215  0.34812  0.92528  1.0000
  H   H21       1.0  0.72643  0.63256  0.65910  1.0000
  H   H22       1.0  0.27355  0.36744  0.34090  1.0000
  H   H23       1.0  0.00499  0.38479  0.32877  1.0000
  H   H24       1.0  0.99499  0.61522  0.67122  1.0000
  Rh  Rh1       1.0  0.62539  0.50764  0.49554  1.0000
  Rh  Rh2       1.0  0.37459  0.49236  0.50446  1.0000
  C   C1        1.0  0.22418  0.91563  0.61695  1.0000
  C   C2        1.0  0.77582  0.08437  0.38306  1.0000
  C   C3        1.0  0.30167  0.99537  0.63289  1.0000
  C   C4        1.0  0.69833  0.00463  0.36711  1.0000
  C   C5        1.0  0.20658  0.13493  0.67528  1.0000
  C   C6        1.0  0.79344  0.86507  0.32472  1.0000
  C   C7        1.0  0.03350  0.19521  0.70148  1.0000
  C   C8        1.0  0.96651  0.80480  0.29853  1.0000
  C   C9        1.0  0.95619  0.11822  0.68205  1.0000
  C   C10       1.0  0.04381  0.88179  0.31795  1.0000
  C   C11       1.0  0.05131  0.97842  0.64014  1.0000
  C   C12       1.0  0.94869  0.02159  0.35987  1.0000
  C   C13       1.0  0.32434  0.76442  0.57733  1.0000
  C   C14       1.0  0.67565  0.23558  0.42267  1.0000
  C   C15       1.0  0.57218  0.70369  0.09636  1.0000
  C   C16       1.0  0.42781  0.29631  0.90364  1.0000
  C   C17       1.0  0.68602  0.77570  0.03270  1.0000
  C   C18       1.0  0.31398  0.22430  0.96730  1.0000
  C   C19       1.0  0.70159  0.85299  0.89968  1.0000
  C   C20       1.0  0.29842  0.14700  0.10031  1.0000
  C   C21       1.0  0.60544  0.85737  0.82860  1.0000
  C   C22       1.0  0.39456  0.14262  0.17139  1.0000
  C   C23       1.0  0.49304  0.78431  0.89100  1.0000
  C   C24       1.0  0.50696  0.21567  0.10900  1.0000
  C   C25       1.0  0.47558  0.70850  0.02473  1.0000
  C   C26       1.0  0.52442  0.29150  0.97527  1.0000
  C   C27       1.0  0.55091  0.62533  0.24030  1.0000
  C   C28       1.0  0.44908  0.37467  0.75970  1.0000
  C   C29       1.0  0.84935  0.57346  0.58810  1.0000
  C   C30       1.0  0.15065  0.42654  0.41189  1.0000
  C   C31       1.0  0.00366  0.43659  0.40477  1.0000
  C   C32       1.0  0.99634  0.56341  0.59523  1.0000
  C   C33       1.0  0.00000  0.99999  0.99999  1.0000
  N   N1        1.0  0.85218  0.51011  0.49295  1.0000
  N   N2        1.0  0.14779  0.48989  0.50704  1.0000
  O   O1        1.0  0.48203  0.71212  0.55781  1.0000
  O   O2        1.0  0.51797  0.28789  0.44218  1.0000
  O   O3        1.0  0.24549  0.69713  0.56577  1.0000
  O   O4        1.0  0.75450  0.30287  0.43424  1.0000
  O   O5        1.0  0.65889  0.60382  0.29346  1.0000
  O   O6        1.0  0.34111  0.39618  0.70654  1.0000
  O   O7        1.0  0.42347  0.58677  0.30186  1.0000
  O   O8        1.0  0.57651  0.41324  0.69815  1.0000
  O   O9        1.0  0.03091  0.88656  0.96924  1.0000
  O   O10       1.0  0.96910  0.11344  0.03075  1.0000
