data_image0
_chemical_formula_structural       V2Cu2P2H18C20N6O12
_chemical_formula_sum              "V2 Cu2 P2 H18 C20 N6 O12"
_cell_length_a       7.29817
_cell_length_b       9.90537
_cell_length_c       9.97699
_cell_angle_alpha    106.971
_cell_angle_beta     102.629
_cell_angle_gamma    99.2611

_space_group_name_H-M_alt    "P 1"
_space_group_IT_number       1

loop_
  _space_group_symop_operation_xyz
  'x, y, z'

loop_
  _atom_site_type_symbol
  _atom_site_label
  _atom_site_symmetry_multiplicity
  _atom_site_fract_x
  _atom_site_fract_y
  _atom_site_fract_z
  _atom_site_occupancy
  V   V1        1.0  0.96302  0.70349  0.61222  1.0000
  V   V2        1.0  0.03697  0.29651  0.38777  1.0000
  Cu  Cu1       1.0  0.39772  0.50915  0.23886  1.0000
  Cu  Cu2       1.0  0.60228  0.49085  0.76114  1.0000
  P   P1        1.0  0.66257  0.39349  0.43094  1.0000
  P   P2        1.0  0.33742  0.60651  0.56906  1.0000
  H   H1        1.0  0.30533  0.21049  0.08411  1.0000
  H   H2        1.0  0.69468  0.78951  0.91588  1.0000
  H   H3        1.0  0.08704  0.03484  0.84185  1.0000
  H   H4        1.0  0.91297  0.96516  0.15814  1.0000
  H   H5        1.0  0.92981  0.13610  0.65744  1.0000
  H   H6        1.0  0.07019  0.86391  0.34256  1.0000
  H   H7        1.0  0.99597  0.40757  0.72040  1.0000
  H   H8        1.0  0.00403  0.59244  0.27960  1.0000
  H   H9        1.0  0.13219  0.62538  0.88051  1.0000
  H   H10       1.0  0.86782  0.37462  0.11949  1.0000
  H   H11       1.0  0.25843  0.86285  0.96854  1.0000
  H   H12       1.0  0.74157  0.13715  0.03146  1.0000
  H   H13       1.0  0.46140  0.08358  0.18243  1.0000
  H   H14       1.0  0.53861  0.91642  0.81757  1.0000
  H   H15       1.0  0.64972  0.04607  0.40496  1.0000
  H   H16       1.0  0.35030  0.95393  0.59504  1.0000
  H   H17       1.0  0.61639  0.79429  0.41233  1.0000
  H   H18       1.0  0.38361  0.20571  0.58767  1.0000
  C   C1        1.0  0.23493  0.24687  0.99797  1.0000
  C   C2        1.0  0.76507  0.75312  0.00202  1.0000
  C   C3        1.0  0.11484  0.15176  0.86561  1.0000
  C   C4        1.0  0.88516  0.84824  0.13438  1.0000
  C   C5        1.0  0.02596  0.20912  0.76263  1.0000
  C   C6        1.0  0.97404  0.79088  0.23737  1.0000
  C   C7        1.0  0.06174  0.35796  0.79651  1.0000
  C   C8        1.0  0.93826  0.64205  0.20350  1.0000
  C   C9        1.0  0.18719  0.44994  0.93387  1.0000
  C   C10       1.0  0.81281  0.55006  0.06613  1.0000
  C   C11       1.0  0.33101  0.71378  0.07978  1.0000
  C   C12       1.0  0.66898  0.28623  0.92023  1.0000
  C   C13       1.0  0.34149  0.85384  0.06910  1.0000
  C   C14       1.0  0.65852  0.14616  0.93091  1.0000
  C   C15       1.0  0.45250  0.97403  0.18662  1.0000
  C   C16       1.0  0.54750  0.02597  0.81338  1.0000
  C   C17       1.0  0.55615  0.95422  0.31249  1.0000
  C   C18       1.0  0.44386  0.04578  0.68751  1.0000
  C   C19       1.0  0.53955  0.81486  0.31662  1.0000
  C   C20       1.0  0.46045  0.18515  0.68338  1.0000
  N   N1        1.0  0.27132  0.39371  0.03284  1.0000
  N   N2        1.0  0.72868  0.60629  0.96716  1.0000
  N   N3        1.0  0.21707  0.59706  0.96181  1.0000
  N   N4        1.0  0.78292  0.40294  0.03819  1.0000
  N   N5        1.0  0.42660  0.69619  0.20319  1.0000
  N   N6        1.0  0.57340  0.30382  0.79682  1.0000
  O   O1        1.0  0.51072  0.35304  0.28389  1.0000
  O   O2        1.0  0.48927  0.64695  0.71610  1.0000
  O   O3        1.0  0.58118  0.39039  0.55740  1.0000
  O   O4        1.0  0.41882  0.60960  0.44260  1.0000
  O   O5        1.0  0.80141  0.54518  0.45997  1.0000
  O   O6        1.0  0.19859  0.45481  0.54003  1.0000
  O   O7        1.0  0.79272  0.27948  0.41559  1.0000
  O   O8        1.0  0.20727  0.72051  0.58441  1.0000
  O   O9        1.0  0.89583  0.85236  0.61389  1.0000
  O   O10       1.0  0.10417  0.14764  0.38611  1.0000
  O   O11       1.0  0.97003  0.67617  0.76869  1.0000
  O   O12       1.0  0.02997  0.32383  0.23132  1.0000
