data_image0
_chemical_formula_structural       Cd2H60C60N8O10
_chemical_formula_sum              "Cd2 H60 C60 N8 O10"
_cell_length_a       9.29971
_cell_length_b       12.43
_cell_length_c       12.673
_cell_angle_alpha    90.3902
_cell_angle_beta     105.292
_cell_angle_gamma    100.961

_space_group_name_H-M_alt    "P 1"
_space_group_IT_number       1

loop_
  _space_group_symop_operation_xyz
  'x, y, z'

loop_
  _atom_site_type_symbol
  _atom_site_label
  _atom_site_symmetry_multiplicity
  _atom_site_fract_x
  _atom_site_fract_y
  _atom_site_fract_z
  _atom_site_occupancy
  Cd  Cd1       1.0  0.75267  0.42412  0.12774  1.0000
  Cd  Cd2       1.0  0.24733  0.57588  0.87227  1.0000
  H   H1        1.0  0.63551  0.49339  0.90941  1.0000
  H   H2        1.0  0.36450  0.50661  0.09059  1.0000
  H   H3        1.0  0.82014  0.53808  0.93552  1.0000
  H   H4        1.0  0.17986  0.46192  0.06448  1.0000
  H   H5        1.0  0.80928  0.58765  0.33945  1.0000
  H   H6        1.0  0.19072  0.41235  0.66054  1.0000
  H   H7        1.0  0.96594  0.76764  0.42951  1.0000
  H   H8        1.0  0.03405  0.23236  0.57049  1.0000
  H   H9        1.0  0.21837  0.77321  0.18830  1.0000
  H   H10       1.0  0.78163  0.22679  0.81169  1.0000
  H   H11       1.0  0.04589  0.59863  0.10366  1.0000
  H   H12       1.0  0.95411  0.40137  0.89634  1.0000
  H   H13       1.0  0.32135  0.89659  0.36067  1.0000
  H   H14       1.0  0.67865  0.10341  0.63933  1.0000
  H   H15       1.0  0.16454  0.96055  0.31233  1.0000
  H   H16       1.0  0.83546  0.03945  0.68767  1.0000
  H   H17       1.0  0.39272  0.86856  0.56584  1.0000
  H   H18       1.0  0.60728  0.13144  0.43416  1.0000
  H   H19       1.0  0.22301  0.76558  0.52859  1.0000
  H   H20       1.0  0.77699  0.23442  0.47141  1.0000
  H   H21       1.0  0.11127  0.84999  0.65396  1.0000
  H   H22       1.0  0.88873  0.15001  0.34604  1.0000
  H   H23       1.0  0.28875  0.82066  0.72558  1.0000
  H   H24       1.0  0.71125  0.17934  0.27442  1.0000
  H   H25       1.0  0.28715  0.14701  0.65072  1.0000
  H   H26       1.0  0.71285  0.85299  0.34928  1.0000
  H   H27       1.0  0.10815  0.05350  0.61019  1.0000
  H   H28       1.0  0.89185  0.94650  0.38981  1.0000
  H   H29       1.0  0.20194  0.08920  0.45018  1.0000
  H   H30       1.0  0.79805  0.91080  0.54982  1.0000
  H   H31       1.0  0.38238  0.05791  0.51666  1.0000
  H   H32       1.0  0.61762  0.94210  0.48334  1.0000
  H   H33       1.0  0.26941  0.93585  0.85439  1.0000
  H   H34       1.0  0.73060  0.06415  0.14561  1.0000
  H   H35       1.0  0.13779  0.01802  0.79239  1.0000
  H   H36       1.0  0.86221  0.98198  0.20762  1.0000
  H   H37       1.0  0.37485  0.34922  0.00797  1.0000
  H   H38       1.0  0.62515  0.65079  0.99203  1.0000
  H   H39       1.0  0.18980  0.19852  0.88478  1.0000
  H   H40       1.0  0.81020  0.80149  0.11522  1.0000
  H   H41       1.0  0.56612  0.04265  0.88473  1.0000
  H   H42       1.0  0.43389  0.95735  0.11528  1.0000
  H   H43       1.0  0.73627  0.19975  0.00932  1.0000
  H   H44       1.0  0.26373  0.80025  0.99068  1.0000
  H   H45       1.0  0.98415  0.11410  0.06640  1.0000
  H   H46       1.0  0.01585  0.88590  0.93360  1.0000
  H   H47       1.0  0.17819  0.99671  0.10038  1.0000
  H   H48       1.0  0.82181  0.00328  0.89962  1.0000
  H   H49       1.0  0.43273  0.06491  0.23653  1.0000
  H   H50       1.0  0.56727  0.93509  0.76347  1.0000
  H   H51       1.0  0.48779  0.24871  0.32943  1.0000
  H   H52       1.0  0.51222  0.75129  0.67057  1.0000
  H   H53       1.0  0.10445  0.36252  0.37013  1.0000
  H   H54       1.0  0.89556  0.63748  0.62987  1.0000
  H   H55       1.0  0.16398  0.54049  0.47856  1.0000
  H   H56       1.0  0.83602  0.45950  0.52144  1.0000
  H   H57       1.0  0.39760  0.67720  0.47931  1.0000
  H   H58       1.0  0.60239  0.32280  0.52069  1.0000
  H   H59       1.0  0.57179  0.63463  0.37383  1.0000
  H   H60       1.0  0.42820  0.36537  0.62617  1.0000
  C   C1        1.0  0.89849  0.63334  0.30674  1.0000
  C   C2        1.0  0.10151  0.36666  0.69326  1.0000
  C   C3        1.0  0.98678  0.73260  0.35724  1.0000
  C   C4        1.0  0.01322  0.26740  0.64276  1.0000
  C   C5        1.0  0.10403  0.78687  0.31522  1.0000
  C   C6        1.0  0.89597  0.21313  0.68478  1.0000
  C   C7        1.0  0.12586  0.73689  0.22294  1.0000
  C   C8        1.0  0.87414  0.26311  0.77706  1.0000
  C   C9        1.0  0.03102  0.63837  0.17575  1.0000
  C   C10       1.0  0.96898  0.36163  0.82425  1.0000
  C   C11       1.0  0.20290  0.89556  0.36495  1.0000
  C   C12       1.0  0.79710  0.10444  0.63505  1.0000
  C   C13       1.0  0.26778  0.85242  0.55580  1.0000
  C   C14       1.0  0.73222  0.14758  0.44420  1.0000
  C   C15       1.0  0.23573  0.87335  0.66437  1.0000
  C   C16       1.0  0.76427  0.12665  0.33563  1.0000
  C   C17       1.0  0.23254  0.06161  0.62144  1.0000
  C   C18       1.0  0.76746  0.93839  0.37856  1.0000
  C   C19       1.0  0.25858  0.03708  0.51080  1.0000
  C   C20       1.0  0.74142  0.96292  0.48920  1.0000
  C   C21       1.0  0.25794  0.00907  0.80688  1.0000
  C   C22       1.0  0.74206  0.99093  0.19312  1.0000
  C   C23       1.0  0.41313  0.27947  0.97963  1.0000
  C   C24       1.0  0.58688  0.72054  0.02037  1.0000
  C   C25       1.0  0.31038  0.19516  0.91010  1.0000
  C   C26       1.0  0.68962  0.80484  0.08990  1.0000
  C   C27       1.0  0.36278  0.10696  0.87504  1.0000
  C   C28       1.0  0.63722  0.89304  0.12496  1.0000
  C   C29       1.0  0.51949  0.10936  0.90994  1.0000
  C   C30       1.0  0.48051  0.89064  0.09006  1.0000
  C   C31       1.0  0.61413  0.19602  0.97901  1.0000
  C   C32       1.0  0.38588  0.80398  0.02099  1.0000
  C   C33       1.0  0.00773  0.31697  0.14922  1.0000
  C   C34       1.0  0.99227  0.68303  0.85078  1.0000
  C   C35       1.0  0.12745  0.24794  0.17655  1.0000
  C   C36       1.0  0.87255  0.75206  0.82344  1.0000
  C   C37       1.0  0.09567  0.14344  0.12367  1.0000
  C   C38       1.0  0.90433  0.85656  0.87633  1.0000
  C   C39       1.0  0.20472  0.07764  0.14298  1.0000
  C   C40       1.0  0.79528  0.92236  0.85701  1.0000
  C   C41       1.0  0.34633  0.11561  0.21753  1.0000
  C   C42       1.0  0.65367  0.88439  0.78246  1.0000
  C   C43       1.0  0.37778  0.21908  0.27102  1.0000
  C   C44       1.0  0.62222  0.78092  0.72898  1.0000
  C   C45       1.0  0.27044  0.28728  0.25156  1.0000
  C   C46       1.0  0.72956  0.71272  0.74844  1.0000
  C   C47       1.0  0.30650  0.39572  0.31279  1.0000
  C   C48       1.0  0.69350  0.60428  0.68721  1.0000
  C   C49       1.0  0.20749  0.42228  0.37137  1.0000
  C   C50       1.0  0.79251  0.57772  0.62863  1.0000
  C   C51       1.0  0.23968  0.52236  0.43121  1.0000
  C   C52       1.0  0.76031  0.47763  0.56879  1.0000
  C   C53       1.0  0.37096  0.59906  0.43204  1.0000
  C   C54       1.0  0.62903  0.40094  0.56796  1.0000
  C   C55       1.0  0.46942  0.57470  0.37373  1.0000
  C   C56       1.0  0.53057  0.42531  0.62628  1.0000
  C   C57       1.0  0.43965  0.47318  0.31535  1.0000
  C   C58       1.0  0.56035  0.52682  0.68465  1.0000
  C   C59       1.0  0.55124  0.45299  0.25389  1.0000
  C   C60       1.0  0.44875  0.54701  0.74611  1.0000
  N   N1        1.0  0.91848  0.58685  0.21686  1.0000
  N   N2        1.0  0.08152  0.41315  0.78314  1.0000
  N   N3        1.0  0.19505  0.92201  0.47457  1.0000
  N   N4        1.0  0.80495  0.07799  0.52543  1.0000
  N   N5        1.0  0.29446  0.98841  0.70407  1.0000
  N   N6        1.0  0.70554  0.01159  0.29593  1.0000
  N   N7        1.0  0.56246  0.27943  0.01501  1.0000
  N   N8        1.0  0.43754  0.72057  0.98499  1.0000
  O   O1        1.0  0.88806  0.28551  0.18101  1.0000
  O   O2        1.0  0.11194  0.71449  0.81899  1.0000
  O   O3        1.0  0.02731  0.40065  0.09449  1.0000
  O   O4        1.0  0.97269  0.59935  0.90551  1.0000
  O   O5        1.0  0.65921  0.40593  0.29845  1.0000
  O   O6        1.0  0.34079  0.59408  0.70155  1.0000
  O   O7        1.0  0.53474  0.48962  0.15781  1.0000
  O   O8        1.0  0.46526  0.51039  0.84220  1.0000
  O   O9        1.0  0.73708  0.48942  0.95934  1.0000
  O   O10       1.0  0.26292  0.51058  0.04066  1.0000
