data_image0
_chemical_formula_structural       Cu4H28C40S4N4O12
_chemical_formula_sum              "Cu4 H28 C40 S4 N4 O12"
_cell_length_a       7.04634
_cell_length_b       12.0914
_cell_length_c       14.6368
_cell_angle_alpha    92.867
_cell_angle_beta     90.0174
_cell_angle_gamma    106.967

_space_group_name_H-M_alt    "P 1"
_space_group_IT_number       1

loop_
  _space_group_symop_operation_xyz
  'x, y, z'

loop_
  _atom_site_type_symbol
  _atom_site_label
  _atom_site_symmetry_multiplicity
  _atom_site_fract_x
  _atom_site_fract_y
  _atom_site_fract_z
  _atom_site_occupancy
  Cu  Cu1       1.0  0.48525  0.53071  0.39949  1.0000
  Cu  Cu2       1.0  0.04496  0.53067  0.89954  1.0000
  Cu  Cu3       1.0  0.51477  0.46931  0.60049  1.0000
  Cu  Cu4       1.0  0.95504  0.46932  0.10047  1.0000
  H   H1        1.0  0.73576  0.68304  0.68355  1.0000
  H   H2        1.0  0.94667  0.68313  0.18334  1.0000
  H   H3        1.0  0.26422  0.31694  0.31643  1.0000
  H   H4        1.0  0.05336  0.31686  0.81666  1.0000
  H   H5        1.0  0.86250  0.88912  0.73499  1.0000
  H   H6        1.0  0.02615  0.88925  0.23483  1.0000
  H   H7        1.0  0.13750  0.11086  0.26501  1.0000
  H   H8        1.0  0.97387  0.11075  0.76517  1.0000
  H   H9        1.0  0.85913  0.04455  0.62742  1.0000
  H   H10       1.0  0.18569  0.04466  0.12737  1.0000
  H   H11       1.0  0.14086  0.95545  0.37260  1.0000
  H   H12       1.0  0.81427  0.95534  0.87262  1.0000
  H   H13       1.0  0.74501  0.98760  0.46789  1.0000
  H   H14       1.0  0.24304  0.98790  0.96788  1.0000
  H   H15       1.0  0.25496  0.01241  0.53212  1.0000
  H   H16       1.0  0.75693  0.01210  0.03212  1.0000
  H   H17       1.0  0.36233  0.78880  0.21080  1.0000
  H   H18       1.0  0.42746  0.78859  0.71097  1.0000
  H   H19       1.0  0.63768  0.21121  0.78919  1.0000
  H   H20       1.0  0.57255  0.21141  0.28904  1.0000
  H   H21       1.0  0.59786  0.81464  0.15765  1.0000
  H   H22       1.0  0.21802  0.81450  0.65764  1.0000
  H   H23       1.0  0.40214  0.18536  0.84234  1.0000
  H   H24       1.0  0.78199  0.18549  0.34236  1.0000
  H   H25       1.0  0.65285  0.64678  0.21398  1.0000
  H   H26       1.0  0.99450  0.64691  0.71399  1.0000
  H   H27       1.0  0.34713  0.35322  0.78602  1.0000
  H   H28       1.0  0.00550  0.35307  0.28601  1.0000
  C   C1        1.0  0.67580  0.71472  0.54481  1.0000
  C   C2        1.0  0.03939  0.71485  0.04478  1.0000
  C   C3        1.0  0.32419  0.28528  0.45518  1.0000
  C   C4        1.0  0.96065  0.28515  0.95522  1.0000
  C   C5        1.0  0.74200  0.75017  0.63583  1.0000
  C   C6        1.0  0.00820  0.75029  0.13572  1.0000
  C   C7        1.0  0.25799  0.24983  0.36416  1.0000
  C   C8        1.0  0.99184  0.24971  0.86428  1.0000
  C   C9        1.0  0.80897  0.86629  0.66466  1.0000
  C   C10       1.0  0.05736  0.86638  0.16457  1.0000
  C   C11       1.0  0.19102  0.13370  0.33534  1.0000
  C   C12       1.0  0.94265  0.13362  0.83542  1.0000
  C   C13       1.0  0.80902  0.95341  0.60492  1.0000
  C   C14       1.0  0.14488  0.95352  0.10490  1.0000
  C   C15       1.0  0.19096  0.04659  0.39508  1.0000
  C   C16       1.0  0.85512  0.04647  0.89510  1.0000
  C   C17       1.0  0.74430  0.92103  0.51571  1.0000
  C   C18       1.0  0.17731  0.92126  0.01567  1.0000
  C   C19       1.0  0.25567  0.07896  0.48429  1.0000
  C   C20       1.0  0.82269  0.07875  0.98433  1.0000
  C   C21       1.0  0.68007  0.80402  0.48312  1.0000
  C   C22       1.0  0.12456  0.80421  0.98310  1.0000
  C   C23       1.0  0.31993  0.19599  0.51688  1.0000
  C   C24       1.0  0.87546  0.19580  0.01690  1.0000
  C   C25       1.0  0.62571  0.77914  0.38739  1.0000
  C   C26       1.0  0.15405  0.77923  0.88740  1.0000
  C   C27       1.0  0.37429  0.22087  0.61261  1.0000
  C   C28       1.0  0.84596  0.22077  0.11260  1.0000
  C   C29       1.0  0.51634  0.78827  0.22046  1.0000
  C   C30       1.0  0.27297  0.78819  0.72053  1.0000
  C   C31       1.0  0.48367  0.21173  0.77953  1.0000
  C   C32       1.0  0.72703  0.21180  0.27947  1.0000
  C   C33       1.0  0.53120  0.67061  0.24942  1.0000
  C   C34       1.0  0.13998  0.67060  0.74950  1.0000
  C   C35       1.0  0.46881  0.32940  0.75058  1.0000
  C   C36       1.0  0.86002  0.32940  0.25051  1.0000
  C   C37       1.0  0.34727  0.56798  0.22796  1.0000
  C   C38       1.0  0.22077  0.56782  0.72813  1.0000
  C   C39       1.0  0.65272  0.43203  0.77205  1.0000
  C   C40       1.0  0.77924  0.43217  0.27188  1.0000
  S   S1        1.0  0.63159  0.89145  0.31407  1.0000
  S   S2        1.0  0.26104  0.89147  0.81404  1.0000
  S   S3        1.0  0.36842  0.10857  0.68592  1.0000
  S   S4        1.0  0.73894  0.10853  0.18595  1.0000
  N   N1        1.0  0.57327  0.67659  0.34708  1.0000
  N   N2        1.0  0.10363  0.67664  0.84714  1.0000
  N   N3        1.0  0.42675  0.32342  0.65291  1.0000
  N   N4        1.0  0.89635  0.32336  0.15287  1.0000
  O   O1        1.0  0.61284  0.60200  0.52034  1.0000
  O   O2        1.0  0.98947  0.60209  0.02034  1.0000
  O   O3        1.0  0.38715  0.39800  0.47965  1.0000
  O   O4        1.0  0.01056  0.39791  0.97966  1.0000
  O   O5        1.0  0.29994  0.49202  0.28955  1.0000
  O   O6        1.0  0.19109  0.49171  0.78962  1.0000
  O   O7        1.0  0.70008  0.50799  0.71045  1.0000
  O   O8        1.0  0.80892  0.50829  0.21040  1.0000
  O   O9        1.0  0.25993  0.56330  0.15313  1.0000
  O   O10       1.0  0.30411  0.56322  0.65348  1.0000
  O   O11       1.0  0.74004  0.43671  0.84689  1.0000
  O   O12       1.0  0.69591  0.43676  0.34653  1.0000
