data_image0
_chemical_formula_structural       Cu4H48C30N8Cl8O2
_chemical_formula_sum              "Cu4 H48 C30 N8 Cl8 O2"
_cell_length_a       7.49038
_cell_length_b       7.53979
_cell_length_c       17.9001
_cell_angle_alpha    89.9993
_cell_angle_beta     100.376
_cell_angle_gamma    89.9994

_space_group_name_H-M_alt    "P 1"
_space_group_IT_number       1

loop_
  _space_group_symop_operation_xyz
  'x, y, z'

loop_
  _atom_site_type_symbol
  _atom_site_label
  _atom_site_symmetry_multiplicity
  _atom_site_fract_x
  _atom_site_fract_y
  _atom_site_fract_z
  _atom_site_occupancy
  Cu  Cu1       1.0  0.14326  0.76989  0.66000  1.0000
  Cu  Cu2       1.0  0.85674  0.26989  0.34000  1.0000
  Cu  Cu3       1.0  0.97989  0.21984  0.72066  1.0000
  Cu  Cu4       1.0  0.02011  0.71984  0.27935  1.0000
  H   H1        1.0  0.10456  0.68795  0.51983  1.0000
  H   H2        1.0  0.89545  0.18794  0.48017  1.0000
  H   H3        1.0  0.36662  0.01580  0.70175  1.0000
  H   H4        1.0  0.63337  0.51580  0.29824  1.0000
  H   H5        1.0  0.99926  0.50846  0.78785  1.0000
  H   H6        1.0  0.00073  0.00846  0.21215  1.0000
  H   H7        1.0  0.02997  0.35230  0.85521  1.0000
  H   H8        1.0  0.97002  0.85229  0.14479  1.0000
  H   H9        1.0  0.47962  0.32304  0.62799  1.0000
  H   H10       1.0  0.52038  0.82304  0.37201  1.0000
  H   H11       1.0  0.56527  0.53654  0.61925  1.0000
  H   H12       1.0  0.43473  0.03654  0.38075  1.0000
  H   H13       1.0  0.31579  0.45640  0.51117  1.0000
  H   H14       1.0  0.68422  0.95640  0.48883  1.0000
  H   H15       1.0  0.16510  0.41873  0.57568  1.0000
  H   H16       1.0  0.83491  0.91872  0.42432  1.0000
  H   H17       1.0  0.30473  0.85436  0.47819  1.0000
  H   H18       1.0  0.69528  0.35436  0.52180  1.0000
  H   H19       1.0  0.48287  0.73983  0.53765  1.0000
  H   H20       1.0  0.51713  0.23983  0.46235  1.0000
  H   H21       1.0  0.50986  0.03809  0.58664  1.0000
  H   H22       1.0  0.49013  0.53808  0.41335  1.0000
  H   H23       1.0  0.26844  0.06242  0.57661  1.0000
  H   H24       1.0  0.73156  0.56242  0.42339  1.0000
  H   H25       1.0  0.64161  0.90224  0.73973  1.0000
  H   H26       1.0  0.35839  0.40224  0.26027  1.0000
  H   H27       1.0  0.62773  0.77913  0.65687  1.0000
  H   H28       1.0  0.37227  0.27913  0.34313  1.0000
  H   H29       1.0  0.66157  0.58862  0.76828  1.0000
  H   H30       1.0  0.33843  0.08863  0.23172  1.0000
  H   H31       1.0  0.46749  0.68315  0.79741  1.0000
  H   H32       1.0  0.53251  0.18315  0.20259  1.0000
  H   H33       1.0  0.29495  0.55757  0.83767  1.0000
  H   H34       1.0  0.70504  0.05756  0.16233  1.0000
  H   H35       1.0  0.34750  0.15314  0.84166  1.0000
  H   H36       1.0  0.65251  0.65314  0.15835  1.0000
  H   H37       1.0  0.51487  0.31527  0.87545  1.0000
  H   H38       1.0  0.48513  0.81527  0.12455  1.0000
  H   H39       1.0  0.47424  0.50471  0.99008  1.0000
  H   H40       1.0  0.52576  0.00471  0.00993  1.0000
  H   H41       1.0  0.35760  0.50939  0.11214  1.0000
  H   H42       1.0  0.64240  0.00940  0.88786  1.0000
  H   H43       1.0  0.12592  0.29253  0.13534  1.0000
  H   H44       1.0  0.87408  0.79252  0.86466  1.0000
  H   H45       1.0  0.01076  0.06465  0.03642  1.0000
  H   H46       1.0  0.98924  0.56464  0.96358  1.0000
  H   H47       1.0  0.12834  0.05799  0.91550  1.0000
  H   H48       1.0  0.87166  0.55798  0.08450  1.0000
  C   C1        1.0  0.44435  0.46411  0.62824  1.0000
  C   C2        1.0  0.55566  0.96411  0.37176  1.0000
  C   C3        1.0  0.28120  0.49814  0.56581  1.0000
  C   C4        1.0  0.71881  0.99814  0.43419  1.0000
  C   C5        1.0  0.35436  0.81061  0.53679  1.0000
  C   C6        1.0  0.64565  0.31060  0.46321  1.0000
  C   C7        1.0  0.38193  0.96911  0.59050  1.0000
  C   C8        1.0  0.61806  0.46911  0.40950  1.0000
  C   C9        1.0  0.55250  0.81136  0.70220  1.0000
  C   C10       1.0  0.44750  0.31136  0.29780  1.0000
  C   C11       1.0  0.52692  0.64693  0.74798  1.0000
  C   C12       1.0  0.47308  0.14693  0.25202  1.0000
  C   C13       1.0  0.30721  0.39956  0.73590  1.0000
  C   C14       1.0  0.69279  0.89956  0.26410  1.0000
  C   C15       1.0  0.26437  0.42362  0.81505  1.0000
  C   C16       1.0  0.73563  0.92362  0.18495  1.0000
  C   C17       1.0  0.36958  0.28397  0.86890  1.0000
  C   C18       1.0  0.63042  0.78397  0.13110  1.0000
  C   C19       1.0  0.30785  0.28192  0.94441  1.0000
  C   C20       1.0  0.69215  0.78192  0.05559  1.0000
  C   C21       1.0  0.37300  0.40794  0.00041  1.0000
  C   C22       1.0  0.62701  0.90794  0.99960  1.0000
  C   C23       1.0  0.30914  0.41002  0.06900  1.0000
  C   C24       1.0  0.69085  0.91001  0.93099  1.0000
  C   C25       1.0  0.17889  0.28680  0.08244  1.0000
  C   C26       1.0  0.82110  0.78680  0.91756  1.0000
  C   C27       1.0  0.11378  0.16049  0.02716  1.0000
  C   C28       1.0  0.88621  0.66049  0.97284  1.0000
  C   C29       1.0  0.17803  0.15783  0.95849  1.0000
  C   C30       1.0  0.82197  0.65782  0.04151  1.0000
  N   N1        1.0  0.22063  0.68566  0.56020  1.0000
  N   N2        1.0  0.77937  0.18565  0.43979  1.0000
  N   N3        1.0  0.38304  0.90740  0.66906  1.0000
  N   N4        1.0  0.61696  0.40740  0.33094  1.0000
  N   N5        1.0  0.41246  0.50973  0.70473  1.0000
  N   N6        1.0  0.58755  0.00972  0.29527  1.0000
  N   N7        1.0  0.06677  0.39288  0.80548  1.0000
  N   N8        1.0  0.93323  0.89287  0.19452  1.0000
  Cl  Cl1       1.0  0.90291  0.57977  0.63725  1.0000
  Cl  Cl2       1.0  0.09709  0.07976  0.36275  1.0000
  Cl  Cl3       1.0  0.11858  0.84773  0.78171  1.0000
  Cl  Cl4       1.0  0.88141  0.34773  0.21829  1.0000
  Cl  Cl5       1.0  0.91382  0.06244  0.61292  1.0000
  Cl  Cl6       1.0  0.08618  0.56243  0.38708  1.0000
  Cl  Cl7       1.0  0.71578  0.20828  0.76329  1.0000
  Cl  Cl8       1.0  0.28422  0.70830  0.23671  1.0000
  O   O1        1.0  0.23397  0.26690  0.69830  1.0000
  O   O2        1.0  0.76604  0.76689  0.30170  1.0000
