data_image0
_chemical_formula_structural       Ag4Mo8H42C36N18O26
_chemical_formula_sum              "Ag4 Mo8 H42 C36 N18 O26"
_cell_length_a       11.3615
_cell_length_b       11.7312
_cell_length_c       12.1772
_cell_angle_alpha    115.029
_cell_angle_beta     94.0737
_cell_angle_gamma    100.547

_space_group_name_H-M_alt    "P 1"
_space_group_IT_number       1

loop_
  _space_group_symop_operation_xyz
  'x, y, z'

loop_
  _atom_site_type_symbol
  _atom_site_label
  _atom_site_symmetry_multiplicity
  _atom_site_fract_x
  _atom_site_fract_y
  _atom_site_fract_z
  _atom_site_occupancy
  Ag  Ag1       1.0  0.17564  0.98387  0.69098  1.0000
  Ag  Ag2       1.0  0.82436  0.01613  0.30902  1.0000
  Ag  Ag3       1.0  0.62097  0.94599  0.73147  1.0000
  Ag  Ag4       1.0  0.37902  0.05401  0.26853  1.0000
  Mo  Mo1       1.0  0.02097  0.66428  0.34142  1.0000
  Mo  Mo2       1.0  0.97903  0.33571  0.65857  1.0000
  Mo  Mo3       1.0  0.18873  0.37989  0.88844  1.0000
  Mo  Mo4       1.0  0.81126  0.62011  0.11158  1.0000
  Mo  Mo5       1.0  0.98552  0.37906  0.05859  1.0000
  Mo  Mo6       1.0  0.01448  0.62093  0.94142  1.0000
  Mo  Mo7       1.0  0.22310  0.66713  0.15808  1.0000
  Mo  Mo8       1.0  0.77690  0.33287  0.84194  1.0000
  H   H1        1.0  0.73323  0.09433  0.57591  1.0000
  H   H2        1.0  0.26677  0.90568  0.42409  1.0000
  H   H3        1.0  0.59332  0.75206  0.24685  1.0000
  H   H4        1.0  0.40668  0.24794  0.75315  1.0000
  H   H5        1.0  0.38819  0.70430  0.40844  1.0000
  H   H6        1.0  0.61181  0.29570  0.59156  1.0000
  H   H7        1.0  0.49354  0.61373  0.34158  1.0000
  H   H8        1.0  0.50646  0.38627  0.65842  1.0000
  H   H9        1.0  0.73959  0.35551  0.52260  1.0000
  H   H10       1.0  0.26041  0.64449  0.47740  1.0000
  H   H11       1.0  0.77795  0.33441  0.37930  1.0000
  H   H12       1.0  0.22205  0.66559  0.62070  1.0000
  H   H13       1.0  0.70217  0.20028  0.39604  1.0000
  H   H14       1.0  0.29783  0.79972  0.60396  1.0000
  H   H15       1.0  0.66681  0.72139  0.93572  1.0000
  H   H16       1.0  0.33319  0.27861  0.06428  1.0000
  H   H17       1.0  0.51536  0.64350  0.92633  1.0000
  H   H18       1.0  0.48464  0.35651  0.07367  1.0000
  H   H19       1.0  0.61707  0.55200  0.85714  1.0000
  H   H20       1.0  0.38293  0.44801  0.14286  1.0000
  H   H21       1.0  0.19383  0.43085  0.34221  1.0000
  H   H22       1.0  0.80617  0.56914  0.65779  1.0000
  H   H23       1.0  0.21730  0.35615  0.18935  1.0000
  H   H24       1.0  0.78269  0.64384  0.81064  1.0000
  H   H25       1.0  0.22788  0.25263  0.48680  1.0000
  H   H26       1.0  0.77212  0.74737  0.51320  1.0000
  H   H27       1.0  0.22409  0.40889  0.50557  1.0000
  H   H28       1.0  0.77592  0.59111  0.49443  1.0000
  H   H29       1.0  0.32562  0.38946  0.60874  1.0000
  H   H30       1.0  0.67438  0.61054  0.39126  1.0000
  H   H31       1.0  0.35502  0.60535  0.84857  1.0000
  H   H32       1.0  0.64498  0.39465  0.15143  1.0000
  H   H33       1.0  0.25303  0.62612  0.74847  1.0000
  H   H34       1.0  0.74697  0.37388  0.25154  1.0000
  H   H35       1.0  0.02177  0.70364  0.69196  1.0000
  H   H36       1.0  0.97823  0.29635  0.30804  1.0000
  H   H37       1.0  0.06849  0.93523  0.20174  1.0000
  H   H38       1.0  0.93151  0.06476  0.79826  1.0000
  H   H39       1.0  0.71743  0.93338  0.00430  1.0000
  H   H40       1.0  0.28257  0.06662  0.99570  1.0000
  H   H41       1.0  0.44271  0.79827  0.05739  1.0000
  H   H42       1.0  0.55729  0.20173  0.94261  1.0000
  C   C1        1.0  0.68034  0.99958  0.50943  1.0000
  C   C2        1.0  0.31966  0.00042  0.49057  1.0000
  C   C3        1.0  0.61249  0.82652  0.34145  1.0000
  C   C4        1.0  0.38751  0.17348  0.65855  1.0000
  C   C5        1.0  0.48083  0.69435  0.42493  1.0000
  C   C6        1.0  0.51917  0.30565  0.57508  1.0000
  C   C7        1.0  0.50491  0.67392  0.53780  1.0000
  C   C8        1.0  0.49509  0.32608  0.46220  1.0000
  C   C9        1.0  0.61974  0.65645  0.56943  1.0000
  C   C10       1.0  0.38026  0.34355  0.43056  1.0000
  C   C11       1.0  0.64641  0.65016  0.68109  1.0000
  C   C12       1.0  0.35359  0.34984  0.31891  1.0000
  C   C13       1.0  0.44243  0.34830  0.24334  1.0000
  C   C14       1.0  0.55757  0.65170  0.75666  1.0000
  C   C15       1.0  0.55907  0.33754  0.27990  1.0000
  C   C16       1.0  0.44092  0.66246  0.72010  1.0000
  C   C17       1.0  0.58552  0.32340  0.38793  1.0000
  C   C18       1.0  0.41448  0.67660  0.61207  1.0000
  C   C19       1.0  0.70694  0.30376  0.42355  1.0000
  C   C20       1.0  0.29306  0.69624  0.57645  1.0000
  C   C21       1.0  0.58975  0.64236  0.87434  1.0000
  C   C22       1.0  0.41025  0.35764  0.12566  1.0000
  C   C23       1.0  0.77442  0.65058  0.72367  1.0000
  C   C24       1.0  0.22558  0.34941  0.27632  1.0000
  C   C25       1.0  0.28554  0.34917  0.51179  1.0000
  C   C26       1.0  0.71446  0.65083  0.48821  1.0000
  C   C27       1.0  0.65474  0.33549  0.19934  1.0000
  C   C28       1.0  0.34526  0.66451  0.80066  1.0000
  C   C29       1.0  0.97554  0.78184  0.72051  1.0000
  C   C30       1.0  0.02446  0.21816  0.27949  1.0000
  C   C31       1.0  0.07343  0.03617  0.22509  1.0000
  C   C32       1.0  0.92656  0.96382  0.77490  1.0000
  C   C33       1.0  0.68323  0.01831  0.01910  1.0000
  C   C34       1.0  0.31677  0.98169  0.98090  1.0000
  C   C35       1.0  0.39899  0.84780  0.01496  1.0000
  C   C36       1.0  0.60101  0.15220  0.98504  1.0000
  N   N1        1.0  0.56479  0.81041  0.43289  1.0000
  N   N2        1.0  0.43521  0.18959  0.56712  1.0000
  N   N3        1.0  0.60708  0.91995  0.54066  1.0000
  N   N4        1.0  0.39291  0.08005  0.45934  1.0000
  N   N5        1.0  0.68595  0.94544  0.38725  1.0000
  N   N6        1.0  0.31405  0.05456  0.61275  1.0000
  N   N7        1.0  0.65002  0.20499  0.10420  1.0000
  N   N8        1.0  0.34998  0.79501  0.89580  1.0000
  N   N9        1.0  0.70232  0.12040  0.12807  1.0000
  N   N10       1.0  0.29768  0.87960  0.87193  1.0000
  N   N11       1.0  0.62022  0.03317  0.92786  1.0000
  N   N12       1.0  0.37978  0.96683  0.07214  1.0000
  N   N13       1.0  0.86019  0.76860  0.73937  1.0000
  N   N14       1.0  0.13980  0.23139  0.26063  1.0000
  N   N15       1.0  0.17258  0.11611  0.22517  1.0000
  N   N16       1.0  0.82742  0.88389  0.77483  1.0000
  N   N17       1.0  0.02002  0.90457  0.74185  1.0000
  N   N18       1.0  0.97998  0.09542  0.25814  1.0000
  O   O1        1.0  0.01123  0.61219  0.11062  1.0000
  O   O2        1.0  0.98877  0.38782  0.88940  1.0000
  O   O3        1.0  0.18026  0.60986  0.97936  1.0000
  O   O4        1.0  0.81974  0.39014  0.02064  1.0000
  O   O5        1.0  0.22989  0.82976  0.20861  1.0000
  O   O6        1.0  0.77012  0.17025  0.79139  1.0000
  O   O7        1.0  0.62749  0.34285  0.83240  1.0000
  O   O8        1.0  0.37250  0.65715  0.16760  1.0000
  O   O9        1.0  0.18142  0.64789  0.29906  1.0000
  O   O10       1.0  0.81856  0.35212  0.70094  1.0000
  O   O11       1.0  0.98321  0.36306  0.53142  1.0000
  O   O12       1.0  0.01680  0.63695  0.46856  1.0000
  O   O13       1.0  0.95160  0.17016  0.60330  1.0000
  O   O14       1.0  0.04840  0.82982  0.39669  1.0000
  O   O15       1.0  0.14522  0.38075  0.73469  1.0000
  O   O16       1.0  0.85480  0.61925  0.26532  1.0000
  O   O17       1.0  0.65757  0.55963  0.09122  1.0000
  O   O18       1.0  0.34243  0.44037  0.90878  1.0000
  O   O19       1.0  0.82788  0.78242  0.15212  1.0000
  O   O20       1.0  0.17212  0.21758  0.84788  1.0000
  O   O21       1.0  0.16047  0.43701  0.06175  1.0000
  O   O22       1.0  0.83952  0.56299  0.93824  1.0000
  O   O23       1.0  0.00750  0.55189  0.77985  1.0000
  O   O24       1.0  0.99250  0.44812  0.22016  1.0000
  O   O25       1.0  0.97010  0.21813  0.01566  1.0000
  O   O26       1.0  0.02990  0.78187  0.98434  1.0000
