data_image0
_chemical_formula_structural       ZnH26C30N10O10
_chemical_formula_sum              "Zn1 H26 C30 N10 O10"
_cell_length_a       7.58035
_cell_length_b       9.07963
_cell_length_c       11.3058
_cell_angle_alpha    97.3548
_cell_angle_beta     105.796
_cell_angle_gamma    95.2479

_space_group_name_H-M_alt    "P 1"
_space_group_IT_number       1

loop_
  _space_group_symop_operation_xyz
  'x, y, z'

loop_
  _atom_site_type_symbol
  _atom_site_label
  _atom_site_symmetry_multiplicity
  _atom_site_fract_x
  _atom_site_fract_y
  _atom_site_fract_z
  _atom_site_occupancy
  Zn  Zn1       1.0  0.49999  0.50000  0.00000  1.0000
  H   H1        1.0  0.92759  0.17326  0.71204  1.0000
  H   H2        1.0  0.07250  0.82671  0.28797  1.0000
  H   H3        1.0  0.70584  0.71917  0.63143  1.0000
  H   H4        1.0  0.29413  0.28083  0.36856  1.0000
  H   H5        1.0  0.65737  0.48374  0.42261  1.0000
  H   H6        1.0  0.34260  0.51626  0.57739  1.0000
  H   H7        1.0  0.87379  0.62973  0.90259  1.0000
  H   H8        1.0  0.12616  0.37025  0.09740  1.0000
  H   H9        1.0  0.46379  0.85966  0.00090  1.0000
  H   H10       1.0  0.53620  0.14035  0.99910  1.0000
  H   H11       1.0  0.04304  0.84070  0.83754  1.0000
  H   H12       1.0  0.95694  0.15926  0.16246  1.0000
  H   H13       1.0  0.01107  0.02745  0.89373  1.0000
  H   H14       1.0  0.98893  0.97251  0.10627  1.0000
  H   H15       1.0  0.54049  0.71132  0.36084  1.0000
  H   H16       1.0  0.45950  0.28871  0.63914  1.0000
  H   H17       1.0  0.51214  0.87341  0.19986  1.0000
  H   H18       1.0  0.48789  0.12662  0.80013  1.0000
  H   H19       1.0  0.67166  0.13582  0.24910  1.0000
  H   H20       1.0  0.32844  0.86420  0.75090  1.0000
  H   H21       1.0  0.85771  0.24449  0.46560  1.0000
  H   H22       1.0  0.14240  0.75550  0.53440  1.0000
  H   H23       1.0  0.77306  0.35910  0.01347  1.0000
  H   H24       1.0  0.22694  0.64091  0.98654  1.0000
  H   H25       1.0  0.72216  0.37458  0.86234  1.0000
  H   H26       1.0  0.27783  0.62542  0.13767  1.0000
  C   C1        1.0  0.18489  0.53457  0.76784  1.0000
  C   C2        1.0  0.81509  0.46543  0.23217  1.0000
  C   C3        1.0  0.08872  0.50767  0.62891  1.0000
  C   C4        1.0  0.91125  0.49233  0.37110  1.0000
  C   C5        1.0  0.89513  0.49940  0.58400  1.0000
  C   C6        1.0  0.10484  0.50061  0.41600  1.0000
  C   C7        1.0  0.80811  0.49444  0.45670  1.0000
  C   C8        1.0  0.19186  0.50557  0.54330  1.0000
  C   C9        1.0  0.77776  0.48345  0.67062  1.0000
  C   C10       1.0  0.22221  0.51656  0.32938  1.0000
  C   C11       1.0  0.78638  0.71305  0.92028  1.0000
  C   C12       1.0  0.21359  0.28693  0.07971  1.0000
  C   C13       1.0  0.58157  0.83493  0.96836  1.0000
  C   C14       1.0  0.41842  0.16507  0.03165  1.0000
  C   C15       1.0  0.94074  0.91967  0.83870  1.0000
  C   C16       1.0  0.05925  0.08030  0.16129  1.0000
  C   C17       1.0  0.85172  0.94094  0.70856  1.0000
  C   C18       1.0  0.14829  0.05904  0.29143  1.0000
  C   C19       1.0  0.70716  0.89085  0.50653  1.0000
  C   C20       1.0  0.29284  0.10916  0.49346  1.0000
  C   C21       1.0  0.60591  0.82702  0.38523  1.0000
  C   C22       1.0  0.39410  0.17301  0.61476  1.0000
  C   C23       1.0  0.59363  0.91912  0.29469  1.0000
  C   C24       1.0  0.40640  0.08090  0.70530  1.0000
  C   C25       1.0  0.68293  0.06784  0.32291  1.0000
  C   C26       1.0  0.31712  0.93218  0.67709  1.0000
  C   C27       1.0  0.78595  0.13111  0.44341  1.0000
  C   C28       1.0  0.21411  0.86890  0.55660  1.0000
  C   C29       1.0  0.79259  0.04101  0.53475  1.0000
  C   C30       1.0  0.20744  0.95899  0.46524  1.0000
  N   N1        1.0  0.64252  0.69780  0.96595  1.0000
  N   N2        1.0  0.35745  0.30220  0.03406  1.0000
  N   N3        1.0  0.67985  0.93432  0.92716  1.0000
  N   N4        1.0  0.32014  0.06567  0.07284  1.0000
  N   N5        1.0  0.81030  0.85466  0.89707  1.0000
  N   N6        1.0  0.18967  0.14532  0.10292  1.0000
  N   N7        1.0  0.87895  0.06797  0.66199  1.0000
  N   N8        1.0  0.12109  0.93202  0.33801  1.0000
  N   N9        1.0  0.74906  0.83318  0.61748  1.0000
  N   N10       1.0  0.25092  0.16681  0.38250  1.0000
  O   O1        1.0  0.31770  0.46233  0.80839  1.0000
  O   O2        1.0  0.68228  0.53768  0.19161  1.0000
  O   O3        1.0  0.12617  0.63377  0.83351  1.0000
  O   O4        1.0  0.87382  0.36623  0.16650  1.0000
  O   O5        1.0  0.80601  0.38148  0.73832  1.0000
  O   O6        1.0  0.19395  0.61853  0.26169  1.0000
  O   O7        1.0  0.65477  0.57126  0.66828  1.0000
  O   O8        1.0  0.34520  0.42875  0.33172  1.0000
  O   O9        1.0  0.67302  0.35847  0.93423  1.0000
  O   O10       1.0  0.32697  0.64153  0.06578  1.0000
