data_image0
_chemical_formula_structural       Cd4H40C36N16O20
_chemical_formula_sum              "Cd4 H40 C36 N16 O20"
_cell_length_a       9.11957
_cell_length_b       10.7997
_cell_length_c       11.9495
_cell_angle_alpha    95.7272
_cell_angle_beta     90.0005
_cell_angle_gamma    89.9998

_space_group_name_H-M_alt    "P 1"
_space_group_IT_number       1

loop_
  _space_group_symop_operation_xyz
  'x, y, z'

loop_
  _atom_site_type_symbol
  _atom_site_label
  _atom_site_symmetry_multiplicity
  _atom_site_fract_x
  _atom_site_fract_y
  _atom_site_fract_z
  _atom_site_occupancy
  Cd  Cd1       1.0  0.90745  0.71060  0.20118  1.0000
  Cd  Cd2       1.0  0.40746  0.78940  0.29883  1.0000
  Cd  Cd3       1.0  0.09255  0.28940  0.79883  1.0000
  Cd  Cd4       1.0  0.59255  0.21060  0.70117  1.0000
  H   H1        1.0  0.72651  0.94278  0.07011  1.0000
  H   H2        1.0  0.22651  0.55721  0.42989  1.0000
  H   H3        1.0  0.27349  0.05721  0.92989  1.0000
  H   H4        1.0  0.77349  0.44278  0.57011  1.0000
  H   H5        1.0  0.83733  0.18587  0.07314  1.0000
  H   H6        1.0  0.33733  0.31413  0.42686  1.0000
  H   H7        1.0  0.16267  0.81412  0.92686  1.0000
  H   H8        1.0  0.66267  0.68587  0.57314  1.0000
  H   H9        1.0  0.11617  0.97044  0.25998  1.0000
  H   H10       1.0  0.61618  0.52955  0.24002  1.0000
  H   H11       1.0  0.88382  0.02956  0.74002  1.0000
  H   H12       1.0  0.38383  0.47045  0.75998  1.0000
  H   H13       1.0  0.18607  0.18397  0.25487  1.0000
  H   H14       1.0  0.68607  0.31603  0.24513  1.0000
  H   H15       1.0  0.81393  0.81603  0.74513  1.0000
  H   H16       1.0  0.31393  0.68397  0.75487  1.0000
  H   H17       1.0  0.15549  0.23444  0.11777  1.0000
  H   H18       1.0  0.65549  0.26556  0.38224  1.0000
  H   H19       1.0  0.84451  0.76556  0.88223  1.0000
  H   H20       1.0  0.34451  0.73444  0.61776  1.0000
  H   H21       1.0  0.03826  0.43039  0.10084  1.0000
  H   H22       1.0  0.53826  0.06961  0.39916  1.0000
  H   H23       1.0  0.96174  0.56961  0.89916  1.0000
  H   H24       1.0  0.46174  0.93039  0.60084  1.0000
  H   H25       1.0  0.98297  0.28223  0.41394  1.0000
  H   H26       1.0  0.48298  0.21776  0.08606  1.0000
  H   H27       1.0  0.01703  0.71777  0.58607  1.0000
  H   H28       1.0  0.51702  0.78223  0.91394  1.0000
  H   H29       1.0  0.87834  0.52754  0.42852  1.0000
  H   H30       1.0  0.37834  0.97245  0.07148  1.0000
  H   H31       1.0  0.12166  0.47246  0.57148  1.0000
  H   H32       1.0  0.62166  0.02755  0.92852  1.0000
  H   H33       1.0  0.72543  0.54800  0.05021  1.0000
  H   H34       1.0  0.22543  0.95200  0.44979  1.0000
  H   H35       1.0  0.27457  0.45200  0.94979  1.0000
  H   H36       1.0  0.77457  0.04800  0.55021  1.0000
  H   H37       1.0  0.63475  0.67145  0.06725  1.0000
  H   H38       1.0  0.13476  0.82855  0.43276  1.0000
  H   H39       1.0  0.36525  0.32855  0.93275  1.0000
  H   H40       1.0  0.86524  0.17145  0.56725  1.0000
  C   C1        1.0  0.82498  0.98431  0.10805  1.0000
  C   C2        1.0  0.32498  0.51569  0.39195  1.0000
  C   C3        1.0  0.17502  0.01569  0.89195  1.0000
  C   C4        1.0  0.67502  0.48431  0.60805  1.0000
  C   C5        1.0  0.87608  0.10420  0.10984  1.0000
  C   C6        1.0  0.37608  0.39580  0.39016  1.0000
  C   C7        1.0  0.12392  0.89580  0.89016  1.0000
  C   C8        1.0  0.62392  0.60420  0.60984  1.0000
  C   C9        1.0  0.02527  0.99280  0.20739  1.0000
  C   C10       1.0  0.52527  0.50720  0.29261  1.0000
  C   C11       1.0  0.97474  0.00720  0.79261  1.0000
  C   C12       1.0  0.47473  0.49280  0.70739  1.0000
  C   C13       1.0  0.10321  0.21228  0.19616  1.0000
  C   C14       1.0  0.60321  0.28771  0.30384  1.0000
  C   C15       1.0  0.89678  0.78771  0.80384  1.0000
  C   C16       1.0  0.39679  0.71229  0.69616  1.0000
  C   C17       1.0  0.00957  0.42660  0.18837  1.0000
  C   C18       1.0  0.50957  0.07340  0.31163  1.0000
  C   C19       1.0  0.99043  0.57340  0.81163  1.0000
  C   C20       1.0  0.49043  0.92660  0.68837  1.0000
  C   C21       1.0  0.97754  0.35024  0.35303  1.0000
  C   C22       1.0  0.47755  0.14976  0.14698  1.0000
  C   C23       1.0  0.02246  0.64976  0.64698  1.0000
  C   C24       1.0  0.52246  0.85024  0.85302  1.0000
  C   C25       1.0  0.92578  0.47014  0.35831  1.0000
  C   C26       1.0  0.42578  0.02986  0.14169  1.0000
  C   C27       1.0  0.07422  0.52986  0.64169  1.0000
  C   C28       1.0  0.57421  0.97014  0.85831  1.0000
  C   C29       1.0  0.84897  0.83363  0.45653  1.0000
  C   C30       1.0  0.34897  0.66637  0.04347  1.0000
  C   C31       1.0  0.15103  0.16637  0.54347  1.0000
  C   C32       1.0  0.65103  0.33363  0.95653  1.0000
  C   C33       1.0  0.69610  0.81625  0.39745  1.0000
  C   C34       1.0  0.19610  0.68375  0.10255  1.0000
  C   C35       1.0  0.30390  0.18375  0.60256  1.0000
  C   C36       1.0  0.80390  0.31625  0.89745  1.0000
  N   N1        1.0  0.91957  0.91601  0.16808  1.0000
  N   N2        1.0  0.41957  0.58399  0.33192  1.0000
  N   N3        1.0  0.08043  0.08399  0.83192  1.0000
  N   N4        1.0  0.58043  0.41601  0.66808  1.0000
  N   N5        1.0  0.00301  0.10789  0.17379  1.0000
  N   N6        1.0  0.50301  0.39211  0.32621  1.0000
  N   N7        1.0  0.99699  0.89211  0.82621  1.0000
  N   N8        1.0  0.49699  0.60789  0.67379  1.0000
  N   N9        1.0  0.03026  0.32429  0.24421  1.0000
  N   N10       1.0  0.53027  0.17571  0.25579  1.0000
  N   N11       1.0  0.96973  0.67571  0.75579  1.0000
  N   N12       1.0  0.46974  0.82429  0.74421  1.0000
  N   N13       1.0  0.94614  0.51612  0.25542  1.0000
  N   N14       1.0  0.44614  0.98388  0.24459  1.0000
  N   N15       1.0  0.05386  0.48388  0.74458  1.0000
  N   N16       1.0  0.55386  0.01612  0.75542  1.0000
  O   O1        1.0  0.69000  0.76123  0.29793  1.0000
  O   O2        1.0  0.19000  0.73877  0.20207  1.0000
  O   O3        1.0  0.31000  0.23878  0.70208  1.0000
  O   O4        1.0  0.81000  0.26123  0.79792  1.0000
  O   O5        1.0  0.95727  0.77940  0.40442  1.0000
  O   O6        1.0  0.45727  0.72061  0.09558  1.0000
  O   O7        1.0  0.04273  0.22060  0.59559  1.0000
  O   O8        1.0  0.54273  0.27940  0.90442  1.0000
  O   O9        1.0  0.85348  0.89543  0.55140  1.0000
  O   O10       1.0  0.35348  0.60458  0.94860  1.0000
  O   O11       1.0  0.14652  0.10458  0.44860  1.0000
  O   O12       1.0  0.64652  0.39542  0.05140  1.0000
  O   O13       1.0  0.58369  0.85506  0.45166  1.0000
  O   O14       1.0  0.08369  0.64495  0.04834  1.0000
  O   O15       1.0  0.41631  0.14495  0.54834  1.0000
  O   O16       1.0  0.91631  0.35505  0.95166  1.0000
  O   O17       1.0  0.73728  0.63990  0.05467  1.0000
  O   O18       1.0  0.23728  0.86010  0.44533  1.0000
  O   O19       1.0  0.26272  0.36010  0.94533  1.0000
  O   O20       1.0  0.76271  0.13991  0.55467  1.0000
