data_image0
_chemical_formula_structural       Cu2H24C22N8O8
_chemical_formula_sum              "Cu2 H24 C22 N8 O8"
_cell_length_a       8.33407
_cell_length_b       8.33411
_cell_length_c       10.1633
_cell_angle_alpha    69.5806
_cell_angle_beta     69.5802
_cell_angle_gamma    86.6174

_space_group_name_H-M_alt    "P 1"
_space_group_IT_number       1

loop_
  _space_group_symop_operation_xyz
  'x, y, z'

loop_
  _atom_site_type_symbol
  _atom_site_label
  _atom_site_symmetry_multiplicity
  _atom_site_fract_x
  _atom_site_fract_y
  _atom_site_fract_z
  _atom_site_occupancy
  Cu  Cu1       1.0  0.50000  1.00000  0.50000  1.0000
  Cu  Cu2       1.0  0.00000  0.50000  1.00000  1.0000
  H   H1        1.0  0.31517  0.12450  0.25387  1.0000
  H   H2        1.0  0.87550  0.68483  0.24613  1.0000
  H   H3        1.0  0.68483  0.87550  0.74613  1.0000
  H   H4        1.0  0.12450  0.31518  0.75387  1.0000
  H   H5        1.0  0.21114  0.68574  0.64977  1.0000
  H   H6        1.0  0.31425  0.78885  0.85024  1.0000
  H   H7        1.0  0.78886  0.31425  0.35023  1.0000
  H   H8        1.0  0.68576  0.21115  0.14976  1.0000
  H   H9        1.0  0.96359  0.68942  0.51914  1.0000
  H   H10       1.0  0.31056  0.03639  0.98087  1.0000
  H   H11       1.0  0.03641  0.31058  0.48086  1.0000
  H   H12       1.0  0.68944  0.96361  0.01913  1.0000
  H   H13       1.0  0.88853  0.94257  0.31157  1.0000
  H   H14       1.0  0.05743  0.11146  0.18842  1.0000
  H   H15       1.0  0.11147  0.05743  0.68843  1.0000
  H   H16       1.0  0.94257  0.88854  0.81157  1.0000
  H   H17       1.0  0.70360  0.43394  0.62071  1.0000
  H   H18       1.0  0.56605  0.29641  0.87929  1.0000
  H   H19       1.0  0.29640  0.56606  0.37929  1.0000
  H   H20       1.0  0.43395  0.70359  0.12071  1.0000
  H   H21       1.0  0.49016  0.41937  0.63234  1.0000
  H   H22       1.0  0.58062  0.50984  0.86765  1.0000
  H   H23       1.0  0.50984  0.58063  0.36766  1.0000
  H   H24       1.0  0.41938  0.49016  0.13235  1.0000
  C   C1        1.0  0.25788  0.00491  0.34472  1.0000
  C   C2        1.0  0.99510  0.74213  0.15528  1.0000
  C   C3        1.0  0.74212  0.99509  0.65528  1.0000
  C   C4        1.0  0.00490  0.25788  0.84472  1.0000
  C   C5        1.0  0.19491  0.77681  0.54939  1.0000
  C   C6        1.0  0.22319  0.80510  0.95061  1.0000
  C   C7        1.0  0.80509  0.22319  0.45061  1.0000
  C   C8        1.0  0.77681  0.19490  0.04939  1.0000
  C   C9        1.0  0.07434  0.77567  0.48592  1.0000
  C   C10       1.0  0.22433  0.92565  0.01409  1.0000
  C   C11       1.0  0.92566  0.22433  0.51408  1.0000
  C   C12       1.0  0.77568  0.07435  0.98591  1.0000
  C   C13       1.0  0.02669  0.97331  0.25000  1.0000
  C   C14       1.0  0.97331  0.02669  0.75000  1.0000
  C   C15       1.0  0.59009  0.67091  0.57623  1.0000
  C   C16       1.0  0.32911  0.40990  0.92376  1.0000
  C   C17       1.0  0.40991  0.32909  0.42377  1.0000
  C   C18       1.0  0.67089  0.59010  0.07624  1.0000
  C   C19       1.0  0.57700  0.48016  0.66486  1.0000
  C   C20       1.0  0.51982  0.42300  0.83515  1.0000
  C   C21       1.0  0.42300  0.51984  0.33514  1.0000
  C   C22       1.0  0.48018  0.57701  0.16485  1.0000
  N   N1        1.0  0.30763  0.92080  0.46047  1.0000
  N   N2        1.0  0.07920  0.69237  0.03953  1.0000
  N   N3        1.0  0.69237  0.07920  0.53953  1.0000
  N   N4        1.0  0.92080  0.30763  0.96047  1.0000
  N   N5        1.0  0.11630  0.92010  0.35673  1.0000
  N   N6        1.0  0.07989  0.88370  0.14327  1.0000
  N   N7        1.0  0.88370  0.07989  0.64327  1.0000
  N   N8        1.0  0.92011  0.11630  0.85672  1.0000
  O   O1        1.0  0.50041  0.76813  0.64558  1.0000
  O   O2        1.0  0.23190  0.49959  0.85440  1.0000
  O   O3        1.0  0.49959  0.23187  0.35441  1.0000
  O   O4        1.0  0.76810  0.50041  0.14561  1.0000
  O   O5        1.0  0.68275  0.72637  0.43946  1.0000
  O   O6        1.0  0.27362  0.31723  0.06055  1.0000
  O   O7        1.0  0.31725  0.27363  0.56053  1.0000
  O   O8        1.0  0.72638  0.68277  0.93945  1.0000
