data_image0
_chemical_formula_structural       CoH52C40N2O4
_chemical_formula_sum              "Co1 H52 C40 N2 O4"
_cell_length_a       8.29567
_cell_length_b       11.222
_cell_length_c       11.7531
_cell_angle_alpha    104.011
_cell_angle_beta     95.329
_cell_angle_gamma    97.3916

_space_group_name_H-M_alt    "P 1"
_space_group_IT_number       1

loop_
  _space_group_symop_operation_xyz
  'x, y, z'

loop_
  _atom_site_type_symbol
  _atom_site_label
  _atom_site_symmetry_multiplicity
  _atom_site_fract_x
  _atom_site_fract_y
  _atom_site_fract_z
  _atom_site_occupancy
  Co  Co1       1.0  0.50000  0.50000  1.00000  1.0000
  H   H1        1.0  0.51847  0.22222  0.49449  1.0000
  H   H2        1.0  0.48153  0.77778  0.50551  1.0000
  H   H3        1.0  0.18942  0.46084  0.65574  1.0000
  H   H4        1.0  0.81058  0.53916  0.34425  1.0000
  H   H5        1.0  0.84570  0.55648  0.00551  1.0000
  H   H6        1.0  0.15430  0.44352  0.99448  1.0000
  H   H7        1.0  0.63371  0.92355  0.93203  1.0000
  H   H8        1.0  0.36629  0.07646  0.06798  1.0000
  H   H9        1.0  0.04497  0.73178  0.97791  1.0000
  H   H10       1.0  0.95503  0.26822  0.02208  1.0000
  H   H11       1.0  0.45182  0.73676  0.95805  1.0000
  H   H12       1.0  0.54818  0.26325  0.04195  1.0000
  H   H13       1.0  0.70128  0.20261  0.86299  1.0000
  H   H14       1.0  0.29872  0.79739  0.13702  1.0000
  H   H15       1.0  0.61722  0.07477  0.74019  1.0000
  H   H16       1.0  0.38278  0.92524  0.25981  1.0000
  H   H17       1.0  0.83349  0.11057  0.78134  1.0000
  H   H18       1.0  0.16651  0.88943  0.21866  1.0000
  H   H19       1.0  0.89045  0.40712  0.68317  1.0000
  H   H20       1.0  0.10955  0.59288  0.31683  1.0000
  H   H21       1.0  0.87014  0.39532  0.82913  1.0000
  H   H22       1.0  0.12986  0.60469  0.17087  1.0000
  H   H23       1.0  0.99792  0.30392  0.74246  1.0000
  H   H24       1.0  0.00208  0.69608  0.25754  1.0000
  H   H25       1.0  0.41316  0.45420  0.38845  1.0000
  H   H26       1.0  0.58684  0.54579  0.61155  1.0000
  H   H27       1.0  0.46561  0.30304  0.34343  1.0000
  H   H28       1.0  0.53439  0.69696  0.65657  1.0000
  H   H29       1.0  0.29473  0.34267  0.26593  1.0000
  H   H30       1.0  0.70527  0.65732  0.73407  1.0000
  H   H31       1.0  0.28313  0.11651  0.38196  1.0000
  H   H32       1.0  0.71686  0.88349  0.61804  1.0000
  H   H33       1.0  0.10197  0.13901  0.44837  1.0000
  H   H34       1.0  0.89803  0.86098  0.55163  1.0000
  H   H35       1.0  0.11224  0.15290  0.30146  1.0000
  H   H36       1.0  0.88776  0.84710  0.69854  1.0000
  H   H37       1.0  0.01263  0.35509  0.49337  1.0000
  H   H38       1.0  0.98736  0.64491  0.50663  1.0000
  H   H39       1.0  0.14168  0.48324  0.46843  1.0000
  H   H40       1.0  0.85832  0.51676  0.53157  1.0000
  H   H41       1.0  0.03714  0.36328  0.34666  1.0000
  H   H42       1.0  0.96286  0.63671  0.65333  1.0000
  H   H43       1.0  0.07645  0.92138  0.89916  1.0000
  H   H44       1.0  0.92356  0.07863  0.10084  1.0000
  H   H45       1.0  0.90745  0.99959  0.88060  1.0000
  H   H46       1.0  0.09256  0.00042  0.11941  1.0000
  H   H47       1.0  0.66837  0.08198  0.53157  1.0000
  H   H48       1.0  0.33163  0.91802  0.46843  1.0000
  H   H49       1.0  0.78234  0.21733  0.50702  1.0000
  H   H50       1.0  0.21766  0.78267  0.49298  1.0000
  H   H51       1.0  0.88142  0.12205  0.58221  1.0000
  H   H52       1.0  0.11858  0.87794  0.41779  1.0000
  C   C1        1.0  0.52839  0.37164  0.78264  1.0000
  C   C2        1.0  0.47161  0.62836  0.21736  1.0000
  C   C3        1.0  0.48220  0.27993  0.57359  1.0000
  C   C4        1.0  0.51780  0.72006  0.42641  1.0000
  C   C5        1.0  0.57897  0.29575  0.68130  1.0000
  C   C6        1.0  0.42103  0.70425  0.31870  1.0000
  C   C7        1.0  0.38819  0.43162  0.77092  1.0000
  C   C8        1.0  0.61181  0.56838  0.22908  1.0000
  C   C9        1.0  0.29530  0.41330  0.66017  1.0000
  C   C10       1.0  0.70470  0.58670  0.33982  1.0000
  C   C11       1.0  0.34107  0.33629  0.56042  1.0000
  C   C12       1.0  0.65893  0.66371  0.43958  1.0000
  C   C13       1.0  0.80613  0.63982  0.98833  1.0000
  C   C14       1.0  0.19388  0.36018  0.01167  1.0000
  C   C15       1.0  0.68656  0.84448  0.94917  1.0000
  C   C16       1.0  0.31344  0.15552  0.05083  1.0000
  C   C17       1.0  0.91465  0.73823  0.97369  1.0000
  C   C18       1.0  0.08535  0.26177  0.02631  1.0000
  C   C19       1.0  0.24708  0.31188  0.43669  1.0000
  C   C20       1.0  0.75292  0.68811  0.56331  1.0000
  C   C21       1.0  0.85568  0.84358  0.95328  1.0000
  C   C22       1.0  0.14432  0.15642  0.04673  1.0000
  C   C23       1.0  0.58432  0.74235  0.96328  1.0000
  C   C24       1.0  0.41568  0.25765  0.03672  1.0000
  C   C25       1.0  0.73486  0.23762  0.69082  1.0000
  C   C26       1.0  0.26514  0.76238  0.30918  1.0000
  C   C27       1.0  0.72036  0.15120  0.77450  1.0000
  C   C28       1.0  0.27964  0.84881  0.22550  1.0000
  C   C29       1.0  0.88255  0.34221  0.73977  1.0000
  C   C30       1.0  0.11745  0.65779  0.26023  1.0000
  C   C31       1.0  0.36236  0.35529  0.35402  1.0000
  C   C32       1.0  0.63764  0.64470  0.64598  1.0000
  C   C33       1.0  0.18279  0.17171  0.38951  1.0000
  C   C34       1.0  0.81721  0.82829  0.61049  1.0000
  C   C35       1.0  0.10121  0.38250  0.43693  1.0000
  C   C36       1.0  0.89878  0.61750  0.56307  1.0000
  C   C37       1.0  0.96986  0.95284  0.93973  1.0000
  C   C38       1.0  0.03014  0.04716  0.06028  1.0000
  C   C39       1.0  0.76740  0.16047  0.57059  1.0000
  C   C40       1.0  0.23260  0.83953  0.42942  1.0000
  N   N1        1.0  0.64391  0.64197  0.98238  1.0000
  N   N2        1.0  0.35609  0.35803  0.01762  1.0000
  O   O1        1.0  0.60606  0.39411  0.89229  1.0000
  O   O2        1.0  0.39394  0.60589  0.10771  1.0000
  O   O3        1.0  0.35317  0.50587  0.86969  1.0000
  O   O4        1.0  0.64683  0.49413  0.13031  1.0000
