data_image0
_chemical_formula_structural       H24Rh4C16Cl2O16
_chemical_formula_sum              "H24 Rh4 C16 Cl2 O16"
_cell_length_a       7.55423
_cell_length_b       7.55426
_cell_length_c       12.503
_cell_angle_alpha    93.5652
_cell_angle_beta     93.5663
_cell_angle_gamma    107.858

_space_group_name_H-M_alt    "P 1"
_space_group_IT_number       1

loop_
  _space_group_symop_operation_xyz
  'x, y, z'

loop_
  _atom_site_type_symbol
  _atom_site_label
  _atom_site_symmetry_multiplicity
  _atom_site_fract_x
  _atom_site_fract_y
  _atom_site_fract_z
  _atom_site_occupancy
  H   H1        1.0  0.76757  0.54682  0.70792  1.0000
  H   H2        1.0  0.45399  0.23151  0.79251  1.0000
  H   H3        1.0  0.23150  0.45399  0.29252  1.0000
  H   H4        1.0  0.54681  0.76757  0.20792  1.0000
  H   H5        1.0  0.57770  0.60018  0.64057  1.0000
  H   H6        1.0  0.40133  0.42245  0.85913  1.0000
  H   H7        1.0  0.42246  0.40134  0.35913  1.0000
  H   H8        1.0  0.60019  0.57772  0.14057  1.0000
  H   H9        1.0  0.79333  0.63858  0.58107  1.0000
  H   H10       1.0  0.36233  0.20744  0.91943  1.0000
  H   H11       1.0  0.20746  0.36233  0.41944  1.0000
  H   H12       1.0  0.63859  0.79334  0.08107  1.0000
  H   H13       1.0  0.61338  0.15307  0.15268  1.0000
  H   H14       1.0  0.84571  0.38619  0.34714  1.0000
  H   H15       1.0  0.38620  0.84570  0.84714  1.0000
  H   H16       1.0  0.15307  0.61339  0.65268  1.0000
  H   H17       1.0  0.43661  0.25941  0.18271  1.0000
  H   H18       1.0  0.73891  0.56227  0.31647  1.0000
  H   H19       1.0  0.56226  0.73888  0.81646  1.0000
  H   H20       1.0  0.25938  0.43659  0.68270  1.0000
  H   H21       1.0  0.36968  0.02219  0.13628  1.0000
  H   H22       1.0  0.97586  0.63020  0.36358  1.0000
  H   H23       1.0  0.63021  0.97584  0.86357  1.0000
  H   H24       1.0  0.02216  0.36970  0.63628  1.0000
  Rh  Rh1       1.0  0.65687  0.00035  0.49383  1.0000
  Rh  Rh2       1.0  0.00060  0.34293  0.00630  1.0000
  Rh  Rh3       1.0  0.34293  0.00059  0.50630  1.0000
  Rh  Rh4       1.0  0.00034  0.65687  0.99383  1.0000
  C   C1        1.0  0.62273  0.35236  0.57614  1.0000
  C   C2        1.0  0.64867  0.37706  0.92398  1.0000
  C   C3        1.0  0.37707  0.64867  0.42398  1.0000
  C   C4        1.0  0.35237  0.62274  0.07614  1.0000
  C   C5        1.0  0.48699  0.08171  0.29877  1.0000
  C   C6        1.0  0.91824  0.51263  0.20117  1.0000
  C   C7        1.0  0.51263  0.91823  0.70117  1.0000
  C   C8        1.0  0.08170  0.48699  0.79877  1.0000
  C   C9        1.0  0.69388  0.54604  0.62929  1.0000
  C   C10       1.0  0.45503  0.30608  0.87089  1.0000
  C   C11       1.0  0.30609  0.45503  0.37089  1.0000
  C   C12       1.0  0.54604  0.69389  0.12929  1.0000
  C   C13       1.0  0.47851  0.13275  0.18555  1.0000
  C   C14       1.0  0.86596  0.52094  0.31415  1.0000
  C   C15       1.0  0.52095  0.86594  0.81415  1.0000
  C   C16       1.0  0.13274  0.47852  0.68555  1.0000
  Cl  Cl1       1.0  0.00009  0.00071  0.50013  1.0000
  Cl  Cl2       1.0  0.00071  0.00009  0.00014  1.0000
  O   O1        1.0  0.74267  0.27471  0.54650  1.0000
  O   O2        1.0  0.72644  0.25704  0.95331  1.0000
  O   O3        1.0  0.25704  0.72643  0.45331  1.0000
  O   O4        1.0  0.27471  0.74268  0.04650  1.0000
  O   O5        1.0  0.64066  0.06311  0.33909  1.0000
  O   O6        1.0  0.93678  0.35890  0.16088  1.0000
  O   O7        1.0  0.35890  0.93678  0.66088  1.0000
  O   O8        1.0  0.06310  0.64066  0.83909  1.0000
  O   O9        1.0  0.44529  0.27362  0.56400  1.0000
  O   O10       1.0  0.72730  0.55455  0.93642  1.0000
  O   O11       1.0  0.55456  0.72731  0.43641  1.0000
  O   O12       1.0  0.27363  0.44530  0.06400  1.0000
  O   O13       1.0  0.34077  0.06021  0.34963  1.0000
  O   O14       1.0  0.94092  0.65919  0.15049  1.0000
  O   O15       1.0  0.65919  0.94091  0.65048  1.0000
  O   O16       1.0  0.06022  0.34078  0.84963  1.0000
