data_image0
_chemical_formula_structural       Cd4H40C24N12O28
_chemical_formula_sum              "Cd4 H40 C24 N12 O28"
_cell_length_a       8.70337
_cell_length_b       10.1679
_cell_length_c       14.2423
_cell_angle_alpha    70.5417
_cell_angle_beta     72.2133
_cell_angle_gamma    64.664

_space_group_name_H-M_alt    "P 1"
_space_group_IT_number       1

loop_
  _space_group_symop_operation_xyz
  'x, y, z'

loop_
  _atom_site_type_symbol
  _atom_site_label
  _atom_site_symmetry_multiplicity
  _atom_site_fract_x
  _atom_site_fract_y
  _atom_site_fract_z
  _atom_site_occupancy
  Cd  Cd1       1.0  0.43158  0.53264  0.80813  1.0000
  Cd  Cd2       1.0  0.77214  0.96747  0.69188  1.0000
  Cd  Cd3       1.0  0.56842  0.46736  0.19188  1.0000
  Cd  Cd4       1.0  0.22786  0.03253  0.30812  1.0000
  H   H1        1.0  0.44051  0.15932  0.09725  1.0000
  H   H2        1.0  0.69734  0.34055  0.40256  1.0000
  H   H3        1.0  0.55949  0.84068  0.90275  1.0000
  H   H4        1.0  0.30266  0.65945  0.59745  1.0000
  H   H5        1.0  0.72676  0.99341  0.97709  1.0000
  H   H6        1.0  0.69731  0.50639  0.52284  1.0000
  H   H7        1.0  0.27324  0.00658  0.02291  1.0000
  H   H8        1.0  0.30269  0.49361  0.47716  1.0000
  H   H9        1.0  0.89997  0.59977  0.13892  1.0000
  H   H10       1.0  0.63859  0.90015  0.36097  1.0000
  H   H11       1.0  0.10003  0.40023  0.86108  1.0000
  H   H12       1.0  0.36141  0.09985  0.63902  1.0000
  H   H13       1.0  0.85026  0.67677  0.01572  1.0000
  H   H14       1.0  0.54257  0.82328  0.48417  1.0000
  H   H15       1.0  0.14974  0.32323  0.98428  1.0000
  H   H16       1.0  0.45743  0.17672  0.51583  1.0000
  H   H17       1.0  0.09762  0.72838  0.10103  1.0000
  H   H18       1.0  0.92684  0.77171  0.39897  1.0000
  H   H19       1.0  0.90238  0.27162  0.89897  1.0000
  H   H20       1.0  0.07317  0.22829  0.60103  1.0000
  H   H21       1.0  0.00216  0.86451  0.00103  1.0000
  H   H22       1.0  0.86753  0.63561  0.49901  1.0000
  H   H23       1.0  0.99784  0.13549  0.99897  1.0000
  H   H24       1.0  0.13247  0.36439  0.50099  1.0000
  H   H25       1.0  0.60126  0.32438  0.96354  1.0000
  H   H26       1.0  0.88917  0.17557  0.53654  1.0000
  H   H27       1.0  0.39874  0.67562  0.03646  1.0000
  H   H28       1.0  0.11084  0.82443  0.46346  1.0000
  H   H29       1.0  0.65665  0.23649  0.87699  1.0000
  H   H30       1.0  0.77021  0.26352  0.62306  1.0000
  H   H31       1.0  0.34335  0.76351  0.12301  1.0000
  H   H32       1.0  0.22979  0.73648  0.37694  1.0000
  H   H33       1.0  0.49161  0.80045  0.66137  1.0000
  H   H34       1.0  0.95358  0.69963  0.83859  1.0000
  H   H35       1.0  0.50839  0.19955  0.33863  1.0000
  H   H36       1.0  0.04642  0.30037  0.16141  1.0000
  H   H37       1.0  0.28446  0.83954  0.69834  1.0000
  H   H38       1.0  0.82246  0.66044  0.80171  1.0000
  H   H39       1.0  0.71554  0.16046  0.30166  1.0000
  H   H40       1.0  0.17754  0.33956  0.19829  1.0000
  C   C1        1.0  0.62254  0.81560  0.20793  1.0000
  C   C2        1.0  0.64606  0.68436  0.29202  1.0000
  C   C3        1.0  0.37746  0.18440  0.79207  1.0000
  C   C4        1.0  0.35394  0.31564  0.70798  1.0000
  C   C5        1.0  0.52580  0.04370  0.11593  1.0000
  C   C6        1.0  0.68557  0.45622  0.38392  1.0000
  C   C7        1.0  0.47420  0.95630  0.88407  1.0000
  C   C8        1.0  0.31443  0.54378  0.61609  1.0000
  C   C9        1.0  0.66637  0.96291  0.05561  1.0000
  C   C10       1.0  0.68489  0.53696  0.44432  1.0000
  C   C11       1.0  0.33363  0.03708  0.94439  1.0000
  C   C12       1.0  0.31511  0.46304  0.55569  1.0000
  C   C13       1.0  0.87945  0.70035  0.07680  1.0000
  C   C14       1.0  0.65647  0.79964  0.42314  1.0000
  C   C15       1.0  0.12055  0.29965  0.92320  1.0000
  C   C16       1.0  0.34353  0.20036  0.57686  1.0000
  C   C17       1.0  0.03952  0.74434  0.03808  1.0000
  C   C18       1.0  0.82173  0.75576  0.46191  1.0000
  C   C19       1.0  0.96047  0.25566  0.96192  1.0000
  C   C20       1.0  0.17827  0.24424  0.53809  1.0000
  C   C21       1.0  0.17545  0.66517  0.95906  1.0000
  C   C22       1.0  0.79949  0.83504  0.54090  1.0000
  C   C23       1.0  0.82455  0.33483  0.04094  1.0000
  C   C24       1.0  0.20051  0.16496  0.45910  1.0000
  N   N1        1.0  0.80473  0.47895  0.71853  1.0000
  N   N2        1.0  0.00221  0.02103  0.78145  1.0000
  N   N3        1.0  0.19527  0.52105  0.28147  1.0000
  N   N4        1.0  0.99778  0.97897  0.21855  1.0000
  N   N5        1.0  0.49827  0.95160  0.21006  1.0000
  N   N6        1.0  0.66004  0.54836  0.28980  1.0000
  N   N7        1.0  0.50173  0.04840  0.78994  1.0000
  N   N8        1.0  0.33996  0.45164  0.71020  1.0000
  N   N9        1.0  0.72687  0.82006  0.11380  1.0000
  N   N10       1.0  0.66070  0.67986  0.38617  1.0000
  N   N11       1.0  0.27313  0.17994  0.88620  1.0000
  N   N12       1.0  0.33930  0.32014  0.61383  1.0000
  O   O1        1.0  0.33485  0.63628  0.95560  1.0000
  O   O2        1.0  0.92652  0.86401  0.54430  1.0000
  O   O3        1.0  0.66515  0.36372  0.04439  1.0000
  O   O4        1.0  0.07348  0.13599  0.45570  1.0000
  O   O5        1.0  0.13085  0.63328  0.89443  1.0000
  O   O6        1.0  0.65838  0.86690  0.60555  1.0000
  O   O7        1.0  0.86915  0.36672  0.10557  1.0000
  O   O8        1.0  0.34162  0.13310  0.39445  1.0000
  O   O9        1.0  0.72009  0.54889  0.79004  1.0000
  O   O10       1.0  0.05910  0.95117  0.70989  1.0000
  O   O11       1.0  0.27991  0.45111  0.20996  1.0000
  O   O12       1.0  0.94090  0.04883  0.29011  1.0000
  O   O13       1.0  0.72241  0.42727  0.68783  1.0000
  O   O14       1.0  0.83750  0.07271  0.81209  1.0000
  O   O15       1.0  0.27759  0.57273  0.31217  1.0000
  O   O16       1.0  0.16250  0.92729  0.18791  1.0000
  O   O17       1.0  0.95844  0.46341  0.68170  1.0000
  O   O18       1.0  0.10346  0.03651  0.81841  1.0000
  O   O19       1.0  0.04156  0.53658  0.31831  1.0000
  O   O20       1.0  0.89654  0.96349  0.18159  1.0000
  O   O21       1.0  0.55630  0.30451  0.91400  1.0000
  O   O22       1.0  0.77476  0.19558  0.58603  1.0000
  O   O23       1.0  0.44370  0.69549  0.08600  1.0000
  O   O24       1.0  0.22524  0.80442  0.41397  1.0000
  O   O25       1.0  0.39849  0.75811  0.68803  1.0000
  O   O26       1.0  0.84482  0.74193  0.81190  1.0000
  O   O27       1.0  0.60151  0.24189  0.31198  1.0000
  O   O28       1.0  0.15518  0.25807  0.18810  1.0000
