data_image0
_chemical_formula_structural       Cd2H30C24N8Cl2O10
_chemical_formula_sum              "Cd2 H30 C24 N8 Cl2 O10"
_cell_length_a       8.96846
_cell_length_b       9.61854
_cell_length_c       10.0351
_cell_angle_alpha    103.298
_cell_angle_beta     113.463
_cell_angle_gamma    89.365

_space_group_name_H-M_alt    "P 1"
_space_group_IT_number       1

loop_
  _space_group_symop_operation_xyz
  'x, y, z'

loop_
  _atom_site_type_symbol
  _atom_site_label
  _atom_site_symmetry_multiplicity
  _atom_site_fract_x
  _atom_site_fract_y
  _atom_site_fract_z
  _atom_site_occupancy
  Cd  Cd1       1.0  0.49898  0.64018  0.28502  1.0000
  Cd  Cd2       1.0  0.50102  0.35981  0.71497  1.0000
  H   H1        1.0  0.18458  0.94216  0.30618  1.0000
  H   H2        1.0  0.81542  0.05785  0.69382  1.0000
  H   H3        1.0  0.80787  0.60489  0.85256  1.0000
  H   H4        1.0  0.19213  0.39511  0.14743  1.0000
  H   H5        1.0  0.01067  0.72881  0.14664  1.0000
  H   H6        1.0  0.98933  0.27119  0.85335  1.0000
  H   H7        1.0  0.47478  0.29564  0.32568  1.0000
  H   H8        1.0  0.52522  0.70435  0.67432  1.0000
  H   H9        1.0  0.87261  0.60148  0.39586  1.0000
  H   H10       1.0  0.12739  0.39853  0.60414  1.0000
  H   H11       1.0  0.02227  0.48763  0.37101  1.0000
  H   H12       1.0  0.97773  0.51238  0.62899  1.0000
  H   H13       1.0  0.82896  0.21378  0.00286  1.0000
  H   H14       1.0  0.17104  0.78623  0.99714  1.0000
  H   H15       1.0  0.64720  0.09932  0.90186  1.0000
  H   H16       1.0  0.35280  0.90067  0.09814  1.0000
  H   H17       1.0  0.75676  0.95180  0.10485  1.0000
  H   H18       1.0  0.24324  0.04821  0.89516  1.0000
  H   H19       1.0  0.85157  0.94112  0.98206  1.0000
  H   H20       1.0  0.14844  0.05889  0.01796  1.0000
  H   H21       1.0  0.57286  0.05998  0.17378  1.0000
  H   H22       1.0  0.42714  0.94002  0.82621  1.0000
  H   H23       1.0  0.13732  0.72706  0.54737  1.0000
  H   H24       1.0  0.86268  0.27294  0.45262  1.0000
  H   H25       1.0  0.03470  0.81428  0.40497  1.0000
  H   H26       1.0  0.96530  0.18572  0.59502  1.0000
  H   H27       1.0  0.69879  0.56971  0.56907  1.0000
  H   H28       1.0  0.30121  0.43029  0.43093  1.0000
  H   H29       1.0  0.77633  0.72751  0.58902  1.0000
  H   H30       1.0  0.22367  0.27249  0.41098  1.0000
  C   C1        1.0  0.81550  0.57799  0.95389  1.0000
  C   C2        1.0  0.18450  0.42200  0.04611  1.0000
  C   C3        1.0  0.91855  0.63935  0.09978  1.0000
  C   C4        1.0  0.08145  0.36064  0.90021  1.0000
  C   C5        1.0  0.75678  0.46341  0.09271  1.0000
  C   C6        1.0  0.24321  0.53659  0.90729  1.0000
  C   C7        1.0  0.54235  0.29150  0.25602  1.0000
  C   C8        1.0  0.45765  0.70849  0.74398  1.0000
  C   C9        1.0  0.67756  0.37058  0.14559  1.0000
  C   C10       1.0  0.32243  0.62942  0.85441  1.0000
  C   C11       1.0  0.96567  0.58678  0.34993  1.0000
  C   C12       1.0  0.03432  0.41322  0.65007  1.0000
  C   C13       1.0  0.74509  0.13983  0.01405  1.0000
  C   C14       1.0  0.25492  0.86017  0.98596  1.0000
  C   C15       1.0  0.83225  0.01627  0.07274  1.0000
  C   C16       1.0  0.16776  0.98373  0.92727  1.0000
  C   C17       1.0  0.99393  0.05814  0.20653  1.0000
  C   C18       1.0  0.00609  0.94187  0.79350  1.0000
  C   C19       1.0  0.58716  0.17316  0.17843  1.0000
  C   C20       1.0  0.41284  0.82684  0.82157  1.0000
  C   C21       1.0  0.24076  0.70466  0.38780  1.0000
  C   C22       1.0  0.75925  0.29534  0.61221  1.0000
  C   C23       1.0  0.09208  0.71571  0.42576  1.0000
  C   C24       1.0  0.90792  0.28429  0.57423  1.0000
  N   N1        1.0  0.71602  0.46797  0.94976  1.0000
  N   N2        1.0  0.28398  0.53202  0.05024  1.0000
  N   N3        1.0  0.88211  0.56591  0.18661  1.0000
  N   N4        1.0  0.11789  0.43408  0.81339  1.0000
  N   N5        1.0  0.59941  0.41384  0.23548  1.0000
  N   N6        1.0  0.40059  0.58616  0.76452  1.0000
  N   N7        1.0  0.67325  0.22451  0.11015  1.0000
  N   N8        1.0  0.32675  0.77549  0.88986  1.0000
  Cl  Cl1       1.0  0.65613  0.83333  0.25905  1.0000
  Cl  Cl2       1.0  0.34386  0.16667  0.74094  1.0000
  O   O1        1.0  0.03249  0.17665  0.29651  1.0000
  O   O2        1.0  0.96750  0.82336  0.70351  1.0000
  O   O3        1.0  0.08694  0.94895  0.21188  1.0000
  O   O4        1.0  0.91307  0.05106  0.78813  1.0000
  O   O5        1.0  0.67465  0.66254  0.54006  1.0000
  O   O6        1.0  0.32535  0.33745  0.45993  1.0000
  O   O7        1.0  0.30278  0.81410  0.37139  1.0000
  O   O8        1.0  0.69722  0.18590  0.62860  1.0000
  O   O9        1.0  0.30101  0.58324  0.37378  1.0000
  O   O10       1.0  0.69898  0.41676  0.62622  1.0000
