data_image0
_chemical_formula_structural       Zn4H52C48N16Cl4O16
_chemical_formula_sum              "Zn4 H52 C48 N16 Cl4 O16"
_cell_length_a       9.07544
_cell_length_b       11.8116
_cell_length_c       14.6897
_cell_angle_alpha    110.116
_cell_angle_beta     90.0002
_cell_angle_gamma    89.9998

_space_group_name_H-M_alt    "P 1"
_space_group_IT_number       1

loop_
  _space_group_symop_operation_xyz
  'x, y, z'

loop_
  _atom_site_type_symbol
  _atom_site_label
  _atom_site_symmetry_multiplicity
  _atom_site_fract_x
  _atom_site_fract_y
  _atom_site_fract_z
  _atom_site_occupancy
  Zn  Zn1       1.0  0.56495  0.42001  0.34940  1.0000
  Zn  Zn2       1.0  0.06494  0.07999  0.15060  1.0000
  Zn  Zn3       1.0  0.43505  0.57999  0.65060  1.0000
  Zn  Zn4       1.0  0.93506  0.92001  0.84940  1.0000
  H   H1        1.0  0.05709  0.03531  0.65228  1.0000
  H   H2        1.0  0.55709  0.46469  0.84771  1.0000
  H   H3        1.0  0.94290  0.96469  0.34771  1.0000
  H   H4        1.0  0.44291  0.53532  0.15229  1.0000
  H   H5        1.0  0.37559  0.18967  0.30989  1.0000
  H   H6        1.0  0.87559  0.31032  0.19011  1.0000
  H   H7        1.0  0.62441  0.81032  0.69011  1.0000
  H   H8        1.0  0.12441  0.68968  0.80989  1.0000
  H   H9        1.0  0.32336  0.08290  0.44805  1.0000
  H   H10       1.0  0.82337  0.41710  0.05194  1.0000
  H   H11       1.0  0.67664  0.91710  0.55195  1.0000
  H   H12       1.0  0.17664  0.58290  0.94805  1.0000
  H   H13       1.0  0.57764  0.25043  0.66313  1.0000
  H   H14       1.0  0.07764  0.24957  0.83687  1.0000
  H   H15       1.0  0.42236  0.74957  0.33687  1.0000
  H   H16       1.0  0.92236  0.75044  0.16313  1.0000
  H   H17       1.0  0.53909  0.09484  0.59995  1.0000
  H   H18       1.0  0.03909  0.40516  0.90004  1.0000
  H   H19       1.0  0.46091  0.90516  0.40005  1.0000
  H   H20       1.0  0.96092  0.59484  0.09996  1.0000
  H   H21       1.0  0.37279  0.21739  0.74754  1.0000
  H   H22       1.0  0.87280  0.28261  0.75246  1.0000
  H   H23       1.0  0.62720  0.78261  0.25246  1.0000
  H   H24       1.0  0.12721  0.71740  0.24754  1.0000
  H   H25       1.0  0.29270  0.28319  0.66866  1.0000
  H   H26       1.0  0.79271  0.21681  0.83134  1.0000
  H   H27       1.0  0.70729  0.71681  0.33134  1.0000
  H   H28       1.0  0.20730  0.78319  0.16866  1.0000
  H   H29       1.0  0.76044  0.63124  0.73973  1.0000
  H   H30       1.0  0.26044  0.86876  0.76027  1.0000
  H   H31       1.0  0.23956  0.36877  0.26027  1.0000
  H   H32       1.0  0.73956  0.13123  0.23973  1.0000
  H   H33       1.0  0.98592  0.46483  0.67238  1.0000
  H   H34       1.0  0.48593  0.03517  0.82762  1.0000
  H   H35       1.0  0.01408  0.53517  0.32762  1.0000
  H   H36       1.0  0.51407  0.96483  0.17238  1.0000
  H   H37       1.0  0.81757  0.17942  0.49336  1.0000
  H   H38       1.0  0.31757  0.32058  0.00663  1.0000
  H   H39       1.0  0.18243  0.82058  0.50664  1.0000
  H   H40       1.0  0.68243  0.67942  0.99337  1.0000
  H   H41       1.0  0.97446  0.23040  0.56792  1.0000
  H   H42       1.0  0.47447  0.26960  0.93208  1.0000
  H   H43       1.0  0.02553  0.76960  0.43208  1.0000
  H   H44       1.0  0.52553  0.73040  0.06792  1.0000
  H   H45       1.0  0.89014  0.33537  0.41013  1.0000
  H   H46       1.0  0.39014  0.16463  0.08987  1.0000
  H   H47       1.0  0.10986  0.66462  0.58987  1.0000
  H   H48       1.0  0.60986  0.83537  0.91013  1.0000
  H   H49       1.0  0.06078  0.34888  0.46858  1.0000
  H   H50       1.0  0.56078  0.15111  0.03143  1.0000
  H   H51       1.0  0.93922  0.65111  0.53142  1.0000
  H   H52       1.0  0.43922  0.84889  0.96858  1.0000
  C   C1        1.0  0.56342  0.29978  0.50626  1.0000
  C   C2        1.0  0.06342  0.20022  0.99373  1.0000
  C   C3        1.0  0.43658  0.70022  0.49374  1.0000
  C   C4        1.0  0.93658  0.79978  0.00627  1.0000
  C   C5        1.0  0.42345  0.20927  0.38127  1.0000
  C   C6        1.0  0.92345  0.29073  0.11872  1.0000
  C   C7        1.0  0.57655  0.79073  0.61873  1.0000
  C   C8        1.0  0.07655  0.70927  0.88127  1.0000
  C   C9        1.0  0.39753  0.15495  0.44872  1.0000
  C   C10       1.0  0.89753  0.34505  0.05128  1.0000
  C   C11       1.0  0.60247  0.84505  0.55128  1.0000
  C   C12       1.0  0.10247  0.65495  0.94872  1.0000
  C   C13       1.0  0.49736  0.18703  0.61719  1.0000
  C   C14       1.0  0.99736  0.31297  0.88281  1.0000
  C   C15       1.0  0.50264  0.81297  0.38281  1.0000
  C   C16       1.0  0.00265  0.68703  0.11719  1.0000
  C   C17       1.0  0.35081  0.20222  0.67053  1.0000
  C   C18       1.0  0.85081  0.29778  0.82947  1.0000
  C   C19       1.0  0.64918  0.79778  0.32947  1.0000
  C   C20       1.0  0.14919  0.70222  0.17053  1.0000
  C   C21       1.0  0.25176  0.09283  0.63325  1.0000
  C   C22       1.0  0.75176  0.40718  0.86675  1.0000
  C   C23       1.0  0.74824  0.90717  0.36674  1.0000
  C   C24       1.0  0.24824  0.59283  0.13325  1.0000
  C   C25       1.0  0.66530  0.38295  0.57386  1.0000
  C   C26       1.0  0.16530  0.11705  0.92614  1.0000
  C   C27       1.0  0.33470  0.61705  0.42615  1.0000
  C   C28       1.0  0.83470  0.88295  0.07386  1.0000
  C   C29       1.0  0.75700  0.54155  0.68588  1.0000
  C   C30       1.0  0.25701  0.95845  0.81412  1.0000
  C   C31       1.0  0.24299  0.45845  0.31412  1.0000
  C   C32       1.0  0.74299  0.04155  0.18588  1.0000
  C   C33       1.0  0.86967  0.45971  0.65412  1.0000
  C   C34       1.0  0.36968  0.04030  0.84588  1.0000
  C   C35       1.0  0.13033  0.54030  0.34588  1.0000
  C   C36       1.0  0.63032  0.95970  0.15412  1.0000
  C   C37       1.0  0.89396  0.25541  0.52240  1.0000
  C   C38       1.0  0.39396  0.24459  0.97760  1.0000
  C   C39       1.0  0.10605  0.74459  0.47760  1.0000
  C   C40       1.0  0.60605  0.75541  0.02240  1.0000
  C   C41       1.0  0.96784  0.28657  0.44069  1.0000
  C   C42       1.0  0.46784  0.21343  0.05931  1.0000
  C   C43       1.0  0.03216  0.71343  0.55931  1.0000
  C   C44       1.0  0.53216  0.78657  0.94069  1.0000
  C   C45       1.0  0.02536  0.17868  0.35864  1.0000
  C   C46       1.0  0.52536  0.32132  0.14136  1.0000
  C   C47       1.0  0.97464  0.82132  0.64136  1.0000
  C   C48       1.0  0.47464  0.67868  0.85864  1.0000
  N   N1        1.0  0.52685  0.29903  0.41755  1.0000
  N   N2        1.0  0.02685  0.20097  0.08245  1.0000
  N   N3        1.0  0.47315  0.70097  0.58245  1.0000
  N   N4        1.0  0.97315  0.79903  0.91755  1.0000
  N   N5        1.0  0.48661  0.21234  0.52673  1.0000
  N   N6        1.0  0.98661  0.28767  0.97326  1.0000
  N   N7        1.0  0.51339  0.78766  0.47327  1.0000
  N   N8        1.0  0.01339  0.71234  0.02674  1.0000
  N   N9        1.0  0.63056  0.49285  0.63604  1.0000
  N   N10       1.0  0.13057  0.00715  0.86395  1.0000
  N   N11       1.0  0.36944  0.50715  0.36396  1.0000
  N   N12       1.0  0.86943  0.99285  0.13605  1.0000
  N   N13       1.0  0.81057  0.36007  0.58425  1.0000
  N   N14       1.0  0.31057  0.13993  0.91575  1.0000
  N   N15       1.0  0.18943  0.63993  0.41575  1.0000
  N   N16       1.0  0.68943  0.86007  0.08425  1.0000
  Cl  Cl1       1.0  0.75866  0.53819  0.39825  1.0000
  Cl  Cl2       1.0  0.25865  0.96181  0.10176  1.0000
  Cl  Cl3       1.0  0.24134  0.46181  0.60176  1.0000
  Cl  Cl4       1.0  0.74134  0.03818  0.89824  1.0000
  O   O1        1.0  0.29203  0.99569  0.57448  1.0000
  O   O2        1.0  0.79202  0.50430  0.92551  1.0000
  O   O3        1.0  0.70797  0.00430  0.42552  1.0000
  O   O4        1.0  0.20798  0.49571  0.07449  1.0000
  O   O5        1.0  0.11740  0.11344  0.67270  1.0000
  O   O6        1.0  0.61740  0.38656  0.82729  1.0000
  O   O7        1.0  0.88260  0.88656  0.32729  1.0000
  O   O8        1.0  0.38260  0.61344  0.17271  1.0000
  O   O9        1.0  0.05535  0.20231  0.28121  1.0000
  O   O10       1.0  0.55536  0.29769  0.21879  1.0000
  O   O11       1.0  0.94465  0.79768  0.71879  1.0000
  O   O12       1.0  0.44465  0.70231  0.78121  1.0000
  O   O13       1.0  0.04204  0.07769  0.36838  1.0000
  O   O14       1.0  0.54204  0.42231  0.13162  1.0000
  O   O15       1.0  0.95796  0.92230  0.63162  1.0000
  O   O16       1.0  0.45796  0.57769  0.86838  1.0000
