data_image0
_chemical_formula_structural       Cd2H24C28N2O10
_chemical_formula_sum              "Cd2 H24 C28 N2 O10"
_cell_length_a       9.35779
_cell_length_b       10.1192
_cell_length_c       9.9731
_cell_angle_alpha    91.4398
_cell_angle_beta     90.3987
_cell_angle_gamma    122.784

_space_group_name_H-M_alt    "P 1"
_space_group_IT_number       1

loop_
  _space_group_symop_operation_xyz
  'x, y, z'

loop_
  _atom_site_type_symbol
  _atom_site_label
  _atom_site_symmetry_multiplicity
  _atom_site_fract_x
  _atom_site_fract_y
  _atom_site_fract_z
  _atom_site_occupancy
  Cd  Cd1       1.0  0.40587  0.24361  0.98332  1.0000
  Cd  Cd2       1.0  0.59413  0.75637  0.01667  1.0000
  H   H1        1.0  0.29711  0.94022  0.09100  1.0000
  H   H2        1.0  0.70288  0.05977  0.90900  1.0000
  H   H3        1.0  0.11455  0.92109  0.05709  1.0000
  H   H4        1.0  0.88543  0.07890  0.94292  1.0000
  H   H5        1.0  0.33286  0.12259  0.53231  1.0000
  H   H6        1.0  0.66714  0.87742  0.46767  1.0000
  H   H7        1.0  0.67874  0.00590  0.68883  1.0000
  H   H8        1.0  0.32127  0.99412  0.31116  1.0000
  H   H9        1.0  0.78757  0.44455  0.82032  1.0000
  H   H10       1.0  0.21244  0.55544  0.17970  1.0000
  H   H11       1.0  0.94005  0.30294  0.81789  1.0000
  H   H12       1.0  0.05997  0.69705  0.18213  1.0000
  H   H13       1.0  0.51487  0.46324  0.24235  1.0000
  H   H14       1.0  0.48512  0.53676  0.75764  1.0000
  H   H15       1.0  0.69647  0.53700  0.45066  1.0000
  H   H16       1.0  0.30355  0.46301  0.54932  1.0000
  H   H17       1.0  0.85910  0.23513  0.30222  1.0000
  H   H18       1.0  0.14089  0.76487  0.69778  1.0000
  H   H19       1.0  0.67108  0.17317  0.10151  1.0000
  H   H20       1.0  0.32891  0.82682  0.89848  1.0000
  H   H21       1.0  0.90547  0.33059  0.54897  1.0000
  H   H22       1.0  0.09454  0.66942  0.45102  1.0000
  H   H23       1.0  0.86257  0.47473  0.59878  1.0000
  H   H24       1.0  0.13744  0.52529  0.40121  1.0000
  C   C1        1.0  0.50531  0.14336  0.75718  1.0000
  C   C2        1.0  0.49468  0.85664  0.24281  1.0000
  C   C3        1.0  0.50747  0.07366  0.62334  1.0000
  C   C4        1.0  0.49253  0.92635  0.37664  1.0000
  C   C5        1.0  0.40561  0.06853  0.51681  1.0000
  C   C6        1.0  0.59439  0.93148  0.48317  1.0000
  C   C7        1.0  0.60207  0.00467  0.60543  1.0000
  C   C8        1.0  0.39793  0.99533  0.39455  1.0000
  C   C9        1.0  0.82545  0.66307  0.00184  1.0000
  C   C10       1.0  0.17455  0.33692  0.99818  1.0000
  C   C11       1.0  0.91760  0.58069  0.99973  1.0000
  C   C12       1.0  0.08241  0.41931  0.00029  1.0000
  C   C13       1.0  0.88170  0.46835  0.89793  1.0000
  C   C14       1.0  0.11831  0.53164  0.10209  1.0000
  C   C15       1.0  0.96420  0.38839  0.89787  1.0000
  C   C16       1.0  0.03582  0.61160  0.10216  1.0000
  C   C17       1.0  0.59281  0.41506  0.26063  1.0000
  C   C18       1.0  0.40718  0.58495  0.73937  1.0000
  C   C19       1.0  0.69469  0.45566  0.37569  1.0000
  C   C20       1.0  0.30532  0.54435  0.62430  1.0000
  C   C21       1.0  0.79278  0.39098  0.39455  1.0000
  C   C22       1.0  0.20723  0.60903  0.60544  1.0000
  C   C23       1.0  0.78526  0.28884  0.29361  1.0000
  C   C24       1.0  0.21474  0.71116  0.70638  1.0000
  C   C25       1.0  0.68059  0.25325  0.18120  1.0000
  C   C26       1.0  0.31940  0.74675  0.81881  1.0000
  C   C27       1.0  0.90769  0.43445  0.51555  1.0000
  C   C28       1.0  0.09232  0.56556  0.48444  1.0000
  N   N1        1.0  0.58523  0.31453  0.16532  1.0000
  N   N2        1.0  0.41477  0.68547  0.83468  1.0000
  O   O1        1.0  0.24066  0.98910  0.04971  1.0000
  O   O2        1.0  0.75933  0.01089  0.95031  1.0000
  O   O3        1.0  0.42993  0.21830  0.76262  1.0000
  O   O4        1.0  0.57004  0.78168  0.23737  1.0000
  O   O5        1.0  0.57085  0.12288  0.86001  1.0000
  O   O6        1.0  0.42914  0.87713  0.13998  1.0000
  O   O7        1.0  0.67560  0.58972  0.94754  1.0000
  O   O8        1.0  0.32442  0.41029  0.05246  1.0000
  O   O9        1.0  0.89346  0.79839  0.05877  1.0000
  O   O10       1.0  0.10655  0.20161  0.94125  1.0000
