data_image0
_chemical_formula_structural       Cd2H24C28N2O10
_chemical_formula_sum              "Cd2 H24 C28 N2 O10"
_cell_length_a       10.1165
_cell_length_b       9.35308
_cell_length_c       9.97663
_cell_angle_alpha    90.8214
_cell_angle_beta     90.8727
_cell_angle_gamma    123.083

_space_group_name_H-M_alt    "P 1"
_space_group_IT_number       1

loop_
  _space_group_symop_operation_xyz
  'x, y, z'

loop_
  _atom_site_type_symbol
  _atom_site_label
  _atom_site_symmetry_multiplicity
  _atom_site_fract_x
  _atom_site_fract_y
  _atom_site_fract_z
  _atom_site_occupancy
  Cd  Cd1       1.0  0.25607  0.09450  0.01916  1.0000
  Cd  Cd2       1.0  0.74393  0.90550  0.98085  1.0000
  H   H1        1.0  0.55887  0.20337  0.90568  1.0000
  H   H2        1.0  0.44113  0.79662  0.09432  1.0000
  H   H3        1.0  0.57976  0.38740  0.93868  1.0000
  H   H4        1.0  0.42025  0.61259  0.06132  1.0000
  H   H5        1.0  0.38298  0.17178  0.46737  1.0000
  H   H6        1.0  0.61702  0.82822  0.53263  1.0000
  H   H7        1.0  0.48982  0.81604  0.31210  1.0000
  H   H8        1.0  0.51019  0.18396  0.68790  1.0000
  H   H9        1.0  0.05297  0.71265  0.17987  1.0000
  H   H10       1.0  0.94703  0.28735  0.82013  1.0000
  H   H11       1.0  0.19473  0.56094  0.18312  1.0000
  H   H12       1.0  0.80526  0.43904  0.81688  1.0000
  H   H13       1.0  0.04389  0.98465  0.75631  1.0000
  H   H14       1.0  0.95609  0.01534  0.24370  1.0000
  H   H15       1.0  0.97601  0.80246  0.54828  1.0000
  H   H16       1.0  0.02399  0.19755  0.45171  1.0000
  H   H17       1.0  0.27024  0.63742  0.70612  1.0000
  H   H18       1.0  0.72977  0.36260  0.29388  1.0000
  H   H19       1.0  0.32692  0.82667  0.90618  1.0000
  H   H20       1.0  0.67307  0.17333  0.09383  1.0000
  H   H21       1.0  0.05904  0.64516  0.40013  1.0000
  H   H22       1.0  0.94098  0.35486  0.59986  1.0000
  H   H23       1.0  0.17350  0.57130  0.46775  1.0000
  H   H24       1.0  0.82652  0.42872  0.53225  1.0000
  C   C1        1.0  0.35779  0.99468  0.24360  1.0000
  C   C2        1.0  0.64221  0.00532  0.75640  1.0000
  C   C3        1.0  0.42692  0.99237  0.37695  1.0000
  C   C4        1.0  0.57309  0.00763  0.62304  1.0000
  C   C5        1.0  0.43447  0.09685  0.48317  1.0000
  C   C6        1.0  0.56554  0.90315  0.51683  1.0000
  C   C7        1.0  0.49300  0.89528  0.39490  1.0000
  C   C8        1.0  0.50700  0.10472  0.60509  1.0000
  C   C9        1.0  0.83832  0.67576  0.99659  1.0000
  C   C10       1.0  0.16166  0.32422  0.00341  1.0000
  C   C11       1.0  0.91956  0.58258  0.99972  1.0000
  C   C12       1.0  0.08043  0.41740  0.00028  1.0000
  C   C13       1.0  0.03050  0.61858  0.10207  1.0000
  C   C14       1.0  0.96950  0.38142  0.89793  1.0000
  C   C15       1.0  0.11028  0.53606  0.10269  1.0000
  C   C16       1.0  0.88973  0.46393  0.89731  1.0000
  C   C17       1.0  0.09189  0.90609  0.74002  1.0000
  C   C18       1.0  0.90810  0.09392  0.25998  1.0000
  C   C19       1.0  0.05443  0.80377  0.62528  1.0000
  C   C20       1.0  0.94557  0.19624  0.37472  1.0000
  C   C21       1.0  0.11849  0.70453  0.60929  1.0000
  C   C22       1.0  0.88152  0.29549  0.39071  1.0000
  C   C23       1.0  0.21722  0.71210  0.71246  1.0000
  C   C24       1.0  0.78279  0.28792  0.28754  1.0000
  C   C25       1.0  0.24992  0.81745  0.82449  1.0000
  C   C26       1.0  0.75007  0.18256  0.17551  1.0000
  C   C27       1.0  0.07632  0.58816  0.48891  1.0000
  C   C28       1.0  0.92369  0.41186  0.51109  1.0000
  N   N1        1.0  0.18905  0.91349  0.83777  1.0000
  N   N2        1.0  0.81094  0.08650  0.16223  1.0000
  O   O1        1.0  0.50935  0.26082  0.94471  1.0000
  O   O2        1.0  0.49066  0.73917  0.05529  1.0000
  O   O3        1.0  0.28515  0.07243  0.23873  1.0000
  O   O4        1.0  0.71484  0.92756  0.76126  1.0000
  O   O5        1.0  0.37637  0.92693  0.14063  1.0000
  O   O6        1.0  0.62364  0.07307  0.85936  1.0000
  O   O7        1.0  0.91115  0.82557  0.05215  1.0000
  O   O8        1.0  0.08883  0.17441  0.94786  1.0000
  O   O9        1.0  0.70444  0.60882  0.93722  1.0000
  O   O10       1.0  0.29555  0.39116  0.06279  1.0000
