data_image0
_chemical_formula_structural       Zn2H28C36N12O6
_chemical_formula_sum              "Zn2 H28 C36 N12 O6"
_cell_length_a       8.85951
_cell_length_b       10.5525
_cell_length_c       12.5251
_cell_angle_alpha    64.1665
_cell_angle_beta     84.1153
_cell_angle_gamma    67.2454

_space_group_name_H-M_alt    "P 1"
_space_group_IT_number       1

loop_
  _space_group_symop_operation_xyz
  'x, y, z'

loop_
  _atom_site_type_symbol
  _atom_site_label
  _atom_site_symmetry_multiplicity
  _atom_site_fract_x
  _atom_site_fract_y
  _atom_site_fract_z
  _atom_site_occupancy
  Zn  Zn1       1.0  0.94409  0.88227  0.69978  1.0000
  Zn  Zn2       1.0  0.05591  0.11773  0.30022  1.0000
  H   H1        1.0  0.85425  0.90036  0.49533  1.0000
  H   H2        1.0  0.14575  0.09963  0.50467  1.0000
  H   H3        1.0  0.56417  0.32628  0.65049  1.0000
  H   H4        1.0  0.43584  0.67372  0.34951  1.0000
  H   H5        1.0  0.02743  0.37826  0.60926  1.0000
  H   H6        1.0  0.97256  0.62175  0.39074  1.0000
  H   H7        1.0  0.88558  0.64774  0.57654  1.0000
  H   H8        1.0  0.11442  0.35226  0.42347  1.0000
  H   H9        1.0  0.58144  0.75918  0.57717  1.0000
  H   H10       1.0  0.41855  0.24082  0.42281  1.0000
  H   H11       1.0  0.69369  0.73423  0.73893  1.0000
  H   H12       1.0  0.30633  0.26574  0.26106  1.0000
  H   H13       1.0  0.24946  0.93320  0.76711  1.0000
  H   H14       1.0  0.75054  0.06680  0.23289  1.0000
  H   H15       1.0  0.36379  0.91814  0.95032  1.0000
  H   H16       1.0  0.63621  0.08185  0.04968  1.0000
  H   H17       1.0  0.24569  0.80786  0.14511  1.0000
  H   H18       1.0  0.75431  0.19215  0.85490  1.0000
  H   H19       1.0  0.02982  0.71031  0.15115  1.0000
  H   H20       1.0  0.97015  0.28972  0.84885  1.0000
  H   H21       1.0  0.86578  0.61389  0.14401  1.0000
  H   H22       1.0  0.13421  0.38612  0.85599  1.0000
  H   H23       1.0  0.56495  0.58839  0.91092  1.0000
  H   H24       1.0  0.43509  0.41157  0.08907  1.0000
  H   H25       1.0  0.73941  0.04957  0.50387  1.0000
  H   H26       1.0  0.26058  0.95043  0.49613  1.0000
  H   H27       1.0  0.65358  0.53186  0.11870  1.0000
  H   H28       1.0  0.34644  0.46812  0.88129  1.0000
  C   C1        1.0  0.55289  0.54865  0.61759  1.0000
  C   C2        1.0  0.44710  0.45135  0.38241  1.0000
  C   C3        1.0  0.63392  0.39737  0.63411  1.0000
  C   C4        1.0  0.36607  0.60264  0.36589  1.0000
  C   C5        1.0  0.80408  0.33728  0.62902  1.0000
  C   C6        1.0  0.19592  0.66272  0.37098  1.0000
  C   C7        1.0  0.89456  0.42736  0.61023  1.0000
  C   C8        1.0  0.10544  0.57264  0.38977  1.0000
  C   C9        1.0  0.81404  0.57870  0.59154  1.0000
  C   C10       1.0  0.18595  0.42131  0.40846  1.0000
  C   C11       1.0  0.64405  0.64012  0.59332  1.0000
  C   C12       1.0  0.35594  0.35988  0.40667  1.0000
  C   C13       1.0  0.37705  0.60612  0.63134  1.0000
  C   C14       1.0  0.62294  0.39388  0.36865  1.0000
  C   C15       1.0  0.88924  0.17709  0.64387  1.0000
  C   C16       1.0  0.11076  0.82292  0.35612  1.0000
  C   C17       1.0  0.72827  0.70515  0.83005  1.0000
  C   C18       1.0  0.27175  0.29483  0.16994  1.0000
  C   C19       1.0  0.20590  0.88379  0.85439  1.0000
  C   C20       1.0  0.79410  0.11621  0.14562  1.0000
  C   C21       1.0  0.26733  0.87597  0.95615  1.0000
  C   C22       1.0  0.73266  0.12403  0.04386  1.0000
  C   C23       1.0  0.20227  0.81413  0.06398  1.0000
  C   C24       1.0  0.79772  0.18588  0.93603  1.0000
  C   C25       1.0  0.07989  0.76045  0.06709  1.0000
  C   C26       1.0  0.92009  0.23956  0.93291  1.0000
  C   C27       1.0  0.02373  0.77276  0.96107  1.0000
  C   C28       1.0  0.97626  0.22725  0.03893  1.0000
  C   C29       1.0  0.89340  0.72026  0.95406  1.0000
  C   C30       1.0  0.10659  0.27974  0.04594  1.0000
  C   C31       1.0  0.82562  0.64135  0.05460  1.0000
  C   C32       1.0  0.17438  0.35865  0.94540  1.0000
  C   C33       1.0  0.70631  0.59315  0.04028  1.0000
  C   C34       1.0  0.29371  0.40684  0.95972  1.0000
  C   C35       1.0  0.65712  0.62447  0.92633  1.0000
  C   C36       1.0  0.34290  0.37551  0.07367  1.0000
  N   N1        1.0  0.28427  0.74941  0.61686  1.0000
  N   N2        1.0  0.71573  0.25059  0.38313  1.0000
  N   N3        1.0  0.13615  0.74457  0.64772  1.0000
  N   N4        1.0  0.86386  0.25543  0.35229  1.0000
  N   N5        1.0  0.13800  0.60619  0.67878  1.0000
  N   N6        1.0  0.86200  0.39381  0.32123  1.0000
  N   N7        1.0  0.28807  0.51694  0.66924  1.0000
  N   N8        1.0  0.71192  0.48306  0.33075  1.0000
  N   N9        1.0  0.08643  0.83463  0.85713  1.0000
  N   N10       1.0  0.91357  0.16538  0.14287  1.0000
  N   N11       1.0  0.84301  0.75162  0.84354  1.0000
  N   N12       1.0  0.15699  0.24837  0.15646  1.0000
  O   O1        1.0  0.78586  0.93727  0.55204  1.0000
  O   O2        1.0  0.21414  0.06273  0.44796  1.0000
  O   O3        1.0  0.03508  0.13176  0.61576  1.0000
  O   O4        1.0  0.96493  0.86827  0.38424  1.0000
  O   O5        1.0  0.80670  0.09080  0.68767  1.0000
  O   O6        1.0  0.19332  0.90921  0.31233  1.0000
