data_image0
_chemical_formula_structural       Zn2H24C32N16
_chemical_formula_sum              "Zn2 H24 C32 N16"
_cell_length_a       9.52571
_cell_length_b       9.52627
_cell_length_c       11.9344
_cell_angle_alpha    94.8276
_cell_angle_beta     108.156
_cell_angle_gamma    120.283

_space_group_name_H-M_alt    "P 1"
_space_group_IT_number       1

loop_
  _space_group_symop_operation_xyz
  'x, y, z'

loop_
  _atom_site_type_symbol
  _atom_site_label
  _atom_site_symmetry_multiplicity
  _atom_site_fract_x
  _atom_site_fract_y
  _atom_site_fract_z
  _atom_site_occupancy
  Zn  Zn1       1.0  0.50000  1.00000  0.00000  1.0000
  Zn  Zn2       1.0  0.50000  0.50000  0.50000  1.0000
  H   H1        1.0  0.57296  0.32671  0.94220  1.0000
  H   H2        1.0  0.88453  0.63078  0.55783  1.0000
  H   H3        1.0  0.42704  0.67329  0.05779  1.0000
  H   H4        1.0  0.11547  0.36922  0.44217  1.0000
  H   H5        1.0  0.88428  0.21164  0.18911  1.0000
  H   H6        1.0  0.52253  0.69525  0.31101  1.0000
  H   H7        1.0  0.11572  0.78836  0.81089  1.0000
  H   H8        1.0  0.47747  0.30475  0.68899  1.0000
  H   H9        1.0  0.80857  0.63807  0.02885  1.0000
  H   H10       1.0  0.10911  0.77954  0.47107  1.0000
  H   H11       1.0  0.19143  0.36193  0.97115  1.0000
  H   H12       1.0  0.89089  0.22046  0.52893  1.0000
  H   H13       1.0  0.13283  0.51914  0.28972  1.0000
  H   H14       1.0  0.72930  0.84297  0.21027  1.0000
  H   H15       1.0  0.86717  0.48086  0.71028  1.0000
  H   H16       1.0  0.27070  0.15703  0.78973  1.0000
  H   H17       1.0  0.19792  0.84742  0.17326  1.0000
  H   H18       1.0  0.17407  0.02455  0.32680  1.0000
  H   H19       1.0  0.80208  0.15258  0.82674  1.0000
  H   H20       1.0  0.82593  0.97545  0.67320  1.0000
  H   H21       1.0  0.23349  0.80678  0.31716  1.0000
  H   H22       1.0  0.98962  0.91618  0.18284  1.0000
  H   H23       1.0  0.76651  0.19322  0.68284  1.0000
  H   H24       1.0  0.01038  0.08382  0.81716  1.0000
  C   C1        1.0  0.69955  0.37570  0.01943  1.0000
  C   C2        1.0  0.85623  0.68006  0.48057  1.0000
  C   C3        1.0  0.30045  0.62430  0.98057  1.0000
  C   C4        1.0  0.14377  0.31994  0.51943  1.0000
  C   C5        1.0  0.83071  0.54877  0.06908  1.0000
  C   C6        1.0  0.97957  0.76145  0.43085  1.0000
  C   C7        1.0  0.16929  0.45123  0.93092  1.0000
  C   C8        1.0  0.02043  0.23855  0.56915  1.0000
  C   C9        1.0  0.98942  0.60628  0.17057  1.0000
  C   C10       1.0  0.93557  0.81862  0.32936  1.0000
  C   C11       1.0  0.01058  0.39372  0.82943  1.0000
  C   C12       1.0  0.06444  0.18138  0.67064  1.0000
  C   C13       1.0  0.01035  0.48253  0.21304  1.0000
  C   C14       1.0  0.76938  0.79718  0.28694  1.0000
  C   C15       1.0  0.98965  0.51747  0.78696  1.0000
  C   C16       1.0  0.23062  0.20281  0.71306  1.0000
  C   C17       1.0  0.87316  0.31134  0.15773  1.0000
  C   C18       1.0  0.65355  0.71539  0.34231  1.0000
  C   C19       1.0  0.12684  0.68866  0.84227  1.0000
  C   C20       1.0  0.34645  0.28461  0.65769  1.0000
  C   C21       1.0  0.13077  0.79274  0.23370  1.0000
  C   C22       1.0  0.05904  0.89693  0.26633  1.0000
  C   C23       1.0  0.86923  0.20726  0.76630  1.0000
  C   C24       1.0  0.94096  0.10307  0.73367  1.0000
  C   C25       1.0  0.43237  0.95498  0.71115  1.0000
  C   C26       1.0  0.74422  0.72147  0.78893  1.0000
  C   C27       1.0  0.56763  0.04502  0.28885  1.0000
  C   C28       1.0  0.25578  0.27854  0.21107  1.0000
  C   C29       1.0  0.42165  0.78862  0.55320  1.0000
  C   C30       1.0  0.73564  0.86860  0.94681  1.0000
  C   C31       1.0  0.57835  0.21138  0.44680  1.0000
  C   C32       1.0  0.26436  0.13140  0.05319  1.0000
  N   N1        1.0  0.71836  0.25842  0.06413  1.0000
  N   N2        1.0  0.69427  0.65423  0.43590  1.0000
  N   N3        1.0  0.28164  0.74158  0.93587  1.0000
  N   N4        1.0  0.30574  0.34577  0.56410  1.0000
  N   N5        1.0  0.44806  0.00737  0.81043  1.0000
  N   N6        1.0  0.69725  0.63786  0.68963  1.0000
  N   N7        1.0  0.55194  0.99263  0.18957  1.0000
  N   N8        1.0  0.30275  0.36215  0.31037  1.0000
  N   N9        1.0  0.41411  0.91104  0.59944  1.0000
  N   N10       1.0  0.81195  0.81490  0.90065  1.0000
  N   N11       1.0  0.58589  0.08896  0.40056  1.0000
  N   N12       1.0  0.18805  0.18511  0.09935  1.0000
  N   N13       1.0  0.42236  0.67895  0.50009  1.0000
  N   N14       1.0  0.67888  0.92224  0.99985  1.0000
  N   N15       1.0  0.57764  0.32105  0.49991  1.0000
  N   N16       1.0  0.32112  0.07776  0.00015  1.0000
