data_image0
_chemical_formula_structural       Cd4H16C20I8N8O8
_chemical_formula_sum              "Cd4 H16 C20 I8 N8 O8"
_cell_length_a       7.40934
_cell_length_b       7.68582
_cell_length_c       19.872
_cell_angle_alpha    90.0006
_cell_angle_beta     90.0004
_cell_angle_gamma    113.94

_space_group_name_H-M_alt    "P 1"
_space_group_IT_number       1

loop_
  _space_group_symop_operation_xyz
  'x, y, z'

loop_
  _atom_site_type_symbol
  _atom_site_label
  _atom_site_symmetry_multiplicity
  _atom_site_fract_x
  _atom_site_fract_y
  _atom_site_fract_z
  _atom_site_occupancy
  Cd  Cd1       1.0  0.84626  0.81104  0.54702  1.0000
  Cd  Cd2       1.0  0.15374  0.18896  0.04702  1.0000
  Cd  Cd3       1.0  0.31926  0.75554  0.47576  1.0000
  Cd  Cd4       1.0  0.68073  0.24446  0.97576  1.0000
  H   H1        1.0  0.05242  0.10177  0.80154  1.0000
  H   H2        1.0  0.94759  0.89823  0.30154  1.0000
  H   H3        1.0  0.45533  0.42826  0.65765  1.0000
  H   H4        1.0  0.54467  0.57174  0.15765  1.0000
  H   H5        1.0  0.25712  0.20335  0.56637  1.0000
  H   H6        1.0  0.74287  0.79666  0.06637  1.0000
  H   H7        1.0  0.59853  0.71852  0.77714  1.0000
  H   H8        1.0  0.40149  0.28147  0.27714  1.0000
  H   H9        1.0  0.01439  0.49515  0.22637  1.0000
  H   H10       1.0  0.98562  0.50485  0.72637  1.0000
  H   H11       1.0  0.67457  0.14759  0.37929  1.0000
  H   H12       1.0  0.32544  0.85242  0.87929  1.0000
  H   H13       1.0  0.91541  0.35434  0.46574  1.0000
  H   H14       1.0  0.08459  0.64566  0.96575  1.0000
  H   H15       1.0  0.45006  0.89250  0.23490  1.0000
  H   H16       1.0  0.54991  0.10749  0.73489  1.0000
  C   C1        1.0  0.98422  0.00393  0.69803  1.0000
  C   C2        1.0  0.01580  0.99609  0.19803  1.0000
  C   C3        1.0  0.09727  0.12585  0.74870  1.0000
  C   C4        1.0  0.90273  0.87414  0.24871  1.0000
  C   C5        1.0  0.32045  0.30449  0.66992  1.0000
  C   C6        1.0  0.67956  0.69553  0.16992  1.0000
  C   C7        1.0  0.21036  0.18040  0.61894  1.0000
  C   C8        1.0  0.78963  0.81960  0.11894  1.0000
  C   C9        1.0  0.79332  0.83778  0.71033  1.0000
  C   C10       1.0  0.20669  0.16224  0.21032  1.0000
  C   C11       1.0  0.12743  0.57692  0.32764  1.0000
  C   C12       1.0  0.87257  0.42307  0.82763  1.0000
  C   C13       1.0  0.99212  0.46353  0.28006  1.0000
  C   C14       1.0  0.00788  0.53646  0.78006  1.0000
  C   C15       1.0  0.80462  0.27212  0.36377  1.0000
  C   C16       1.0  0.19537  0.72789  0.86378  1.0000
  C   C17       1.0  0.93907  0.38612  0.41211  1.0000
  C   C18       1.0  0.06092  0.61387  0.91211  1.0000
  C   C19       1.0  0.31005  0.74618  0.30966  1.0000
  C   C20       1.0  0.68994  0.25382  0.80966  1.0000
  I   I1        1.0  0.61560  0.05178  0.55178  1.0000
  I   I2        1.0  0.38442  0.94822  0.05179  1.0000
  I   I3        1.0  0.54408  0.51707  0.47240  1.0000
  I   I4        1.0  0.45593  0.48293  0.97240  1.0000
  I   I5        1.0  0.10593  0.00327  0.43802  1.0000
  I   I6        1.0  0.89409  0.99673  0.93802  1.0000
  I   I7        1.0  0.06167  0.57321  0.58845  1.0000
  I   I8        1.0  0.93832  0.42678  0.08845  1.0000
  N   N1        1.0  0.04395  0.03090  0.63329  1.0000
  N   N2        1.0  0.95607  0.96912  0.13329  1.0000
  N   N3        1.0  0.26634  0.27660  0.73467  1.0000
  N   N4        1.0  0.73365  0.72338  0.23467  1.0000
  N   N5        1.0  0.09838  0.53815  0.39398  1.0000
  N   N6        1.0  0.90162  0.46184  0.89397  1.0000
  N   N7        1.0  0.82917  0.31058  0.29799  1.0000
  N   N8        1.0  0.17081  0.68941  0.79799  1.0000
  O   O1        1.0  0.70403  0.72066  0.66684  1.0000
  O   O2        1.0  0.29597  0.27933  0.16684  1.0000
  O   O3        1.0  0.72617  0.82890  0.77366  1.0000
  O   O4        1.0  0.27384  0.17109  0.27366  1.0000
  O   O5        1.0  0.43280  0.84362  0.35095  1.0000
  O   O6        1.0  0.56719  0.15639  0.85095  1.0000
  O   O7        1.0  0.32598  0.78142  0.24315  1.0000
  O   O8        1.0  0.67399  0.21857  0.74315  1.0000
