data_image0
_chemical_formula_structural       Cd4H20C20I4N8O12
_chemical_formula_sum              "Cd4 H20 C20 I4 N8 O12"
_cell_length_a       9.02395
_cell_length_b       9.02394
_cell_length_c       12.6734
_cell_angle_alpha    102.823
_cell_angle_beta     102.823
_cell_angle_gamma    108.957

_space_group_name_H-M_alt    "P 1"
_space_group_IT_number       1

loop_
  _space_group_symop_operation_xyz
  'x, y, z'

loop_
  _atom_site_type_symbol
  _atom_site_label
  _atom_site_symmetry_multiplicity
  _atom_site_fract_x
  _atom_site_fract_y
  _atom_site_fract_z
  _atom_site_occupancy
  Cd  Cd1       1.0  0.83048  0.58564  0.79478  1.0000
  Cd  Cd2       1.0  0.41436  0.16952  0.70523  1.0000
  Cd  Cd3       1.0  0.16952  0.41436  0.20522  1.0000
  Cd  Cd4       1.0  0.58564  0.83048  0.29477  1.0000
  H   H1        1.0  0.69074  0.04860  0.64524  1.0000
  H   H2        1.0  0.95139  0.30925  0.85476  1.0000
  H   H3        1.0  0.30925  0.95139  0.35475  1.0000
  H   H4        1.0  0.04860  0.69075  0.14524  1.0000
  H   H5        1.0  0.40528  0.90873  0.84990  1.0000
  H   H6        1.0  0.09127  0.59472  0.65011  1.0000
  H   H7        1.0  0.59472  0.09127  0.15011  1.0000
  H   H8        1.0  0.90873  0.40528  0.34989  1.0000
  H   H9        1.0  0.54167  0.70786  0.88488  1.0000
  H   H10       1.0  0.29214  0.45832  0.61512  1.0000
  H   H11       1.0  0.45833  0.29214  0.11512  1.0000
  H   H12       1.0  0.70786  0.54168  0.38488  1.0000
  H   H13       1.0  0.01571  0.83110  0.00742  1.0000
  H   H14       1.0  0.16891  0.98429  0.49258  1.0000
  H   H15       1.0  0.98429  0.16891  0.99258  1.0000
  H   H16       1.0  0.83109  0.01571  0.50742  1.0000
  H   H17       1.0  0.06730  0.90947  0.91702  1.0000
  H   H18       1.0  0.09054  0.93270  0.58298  1.0000
  H   H19       1.0  0.93270  0.09054  0.08298  1.0000
  H   H20       1.0  0.90946  0.06730  0.41702  1.0000
  C   C1        1.0  0.72973  0.85954  0.71523  1.0000
  C   C2        1.0  0.14045  0.27026  0.78477  1.0000
  C   C3        1.0  0.27026  0.14045  0.28476  1.0000
  C   C4        1.0  0.85955  0.72974  0.21523  1.0000
  C   C5        1.0  0.65686  0.97118  0.69809  1.0000
  C   C6        1.0  0.02882  0.34313  0.80192  1.0000
  C   C7        1.0  0.34313  0.02882  0.30191  1.0000
  C   C8        1.0  0.97118  0.65687  0.19808  1.0000
  C   C9        1.0  0.49926  0.89368  0.81218  1.0000
  C   C10       1.0  0.10632  0.50073  0.68782  1.0000
  C   C11       1.0  0.50073  0.10632  0.18782  1.0000
  C   C12       1.0  0.89368  0.49927  0.31218  1.0000
  C   C13       1.0  0.57310  0.78376  0.83048  1.0000
  C   C14       1.0  0.21624  0.42690  0.66952  1.0000
  C   C15       1.0  0.42690  0.21624  0.16952  1.0000
  C   C16       1.0  0.78376  0.57310  0.33048  1.0000
  C   C17       1.0  0.85963  0.84035  0.66122  1.0000
  C   C18       1.0  0.15965  0.14036  0.83878  1.0000
  C   C19       1.0  0.14037  0.15965  0.33878  1.0000
  C   C20       1.0  0.84035  0.85964  0.16122  1.0000
  I   I1        1.0  0.67730  0.41931  0.93000  1.0000
  I   I2        1.0  0.58069  0.32269  0.56999  1.0000
  I   I3        1.0  0.32270  0.58069  0.07000  1.0000
  I   I4        1.0  0.41931  0.67731  0.43000  1.0000
  N   N1        1.0  0.68588  0.76661  0.78095  1.0000
  N   N2        1.0  0.23338  0.31412  0.71905  1.0000
  N   N3        1.0  0.31412  0.23339  0.21905  1.0000
  N   N4        1.0  0.76662  0.68588  0.28095  1.0000
  N   N5        1.0  0.54219  0.98657  0.74574  1.0000
  N   N6        1.0  0.01343  0.45781  0.75426  1.0000
  N   N7        1.0  0.45780  0.01342  0.25425  1.0000
  N   N8        1.0  0.98657  0.54219  0.24574  1.0000
  O   O1        1.0  0.91251  0.72964  0.67328  1.0000
  O   O2        1.0  0.27035  0.08748  0.82671  1.0000
  O   O3        1.0  0.08749  0.27036  0.32672  1.0000
  O   O4        1.0  0.72964  0.91251  0.17328  1.0000
  O   O5        1.0  0.91065  0.94148  0.60909  1.0000
  O   O6        1.0  0.05852  0.08935  0.89092  1.0000
  O   O7        1.0  0.08935  0.05852  0.39092  1.0000
  O   O8        1.0  0.94148  0.91065  0.10908  1.0000
  O   O9        1.0  0.05234  0.80746  0.93950  1.0000
  O   O10       1.0  0.19254  0.94767  0.56050  1.0000
  O   O11       1.0  0.94766  0.19254  0.06050  1.0000
  O   O12       1.0  0.80746  0.05234  0.43950  1.0000
