data_image0
_chemical_formula_structural       Zn4H32C24N16Cl4O4
_chemical_formula_sum              "Zn4 H32 C24 N16 Cl4 O4"
_cell_length_a       8.61947
_cell_length_b       8.71455
_cell_length_c       13.1582
_cell_angle_alpha    91.2364
_cell_angle_beta     89.9999
_cell_angle_gamma    89.9996

_space_group_name_H-M_alt    "P 1"
_space_group_IT_number       1

loop_
  _space_group_symop_operation_xyz
  'x, y, z'

loop_
  _atom_site_type_symbol
  _atom_site_label
  _atom_site_symmetry_multiplicity
  _atom_site_fract_x
  _atom_site_fract_y
  _atom_site_fract_z
  _atom_site_occupancy
  Zn  Zn1       1.0  0.34663  0.70984  0.29238  1.0000
  Zn  Zn2       1.0  0.84664  0.29015  0.20762  1.0000
  Zn  Zn3       1.0  0.65337  0.29016  0.70762  1.0000
  Zn  Zn4       1.0  0.15336  0.70984  0.79238  1.0000
  H   H1        1.0  0.72259  0.31237  0.95893  1.0000
  H   H2        1.0  0.22258  0.68763  0.54107  1.0000
  H   H3        1.0  0.27741  0.68763  0.04107  1.0000
  H   H4        1.0  0.77741  0.31237  0.45893  1.0000
  H   H5        1.0  0.64314  0.86248  0.37123  1.0000
  H   H6        1.0  0.14314  0.13751  0.12877  1.0000
  H   H7        1.0  0.35686  0.13751  0.62877  1.0000
  H   H8        1.0  0.85686  0.86249  0.87123  1.0000
  H   H9        1.0  0.90046  0.82288  0.55601  1.0000
  H   H10       1.0  0.40046  0.17712  0.94399  1.0000
  H   H11       1.0  0.09954  0.17712  0.44399  1.0000
  H   H12       1.0  0.59954  0.82288  0.05601  1.0000
  H   H13       1.0  0.79510  0.99120  0.59136  1.0000
  H   H14       1.0  0.29510  0.00880  0.90863  1.0000
  H   H15       1.0  0.20490  0.00881  0.40864  1.0000
  H   H16       1.0  0.70490  0.99119  0.09137  1.0000
  H   H17       1.0  0.83653  0.95090  0.45963  1.0000
  H   H18       1.0  0.33653  0.04910  0.04037  1.0000
  H   H19       1.0  0.16347  0.04910  0.54037  1.0000
  H   H20       1.0  0.66347  0.95090  0.95963  1.0000
  H   H21       1.0  0.51382  0.82164  0.65175  1.0000
  H   H22       1.0  0.01383  0.17836  0.84825  1.0000
  H   H23       1.0  0.48617  0.17836  0.34825  1.0000
  H   H24       1.0  0.98617  0.82164  0.15175  1.0000
  H   H25       1.0  0.69242  0.72150  0.66643  1.0000
  H   H26       1.0  0.19243  0.27850  0.83357  1.0000
  H   H27       1.0  0.30757  0.27850  0.33357  1.0000
  H   H28       1.0  0.80757  0.72151  0.16643  1.0000
  H   H29       1.0  0.53877  0.63718  0.59211  1.0000
  H   H30       1.0  0.03877  0.36282  0.90789  1.0000
  H   H31       1.0  0.46123  0.36282  0.40789  1.0000
  H   H32       1.0  0.96123  0.63718  0.09211  1.0000
  C   C1        1.0  0.47118  0.55017  0.09757  1.0000
  C   C2        1.0  0.97118  0.44983  0.40243  1.0000
  C   C3        1.0  0.52882  0.44983  0.90243  1.0000
  C   C4        1.0  0.02882  0.55017  0.59757  1.0000
  C   C5        1.0  0.59467  0.44489  0.07457  1.0000
  C   C6        1.0  0.09466  0.55511  0.42543  1.0000
  C   C7        1.0  0.40534  0.55512  0.92543  1.0000
  C   C8        1.0  0.90533  0.44488  0.57457  1.0000
  C   C9        1.0  0.62805  0.39156  0.97613  1.0000
  C   C10       1.0  0.12804  0.60844  0.52387  1.0000
  C   C11       1.0  0.37196  0.60844  0.02387  1.0000
  C   C12       1.0  0.87195  0.39156  0.47613  1.0000
  C   C13       1.0  0.58668  0.80570  0.43546  1.0000
  C   C14       1.0  0.08668  0.19430  0.06454  1.0000
  C   C15       1.0  0.41332  0.19430  0.56454  1.0000
  C   C16       1.0  0.91332  0.80570  0.93546  1.0000
  C   C17       1.0  0.80723  0.90045  0.53275  1.0000
  C   C18       1.0  0.30723  0.09955  0.96725  1.0000
  C   C19       1.0  0.19277  0.09955  0.46725  1.0000
  C   C20       1.0  0.69277  0.90045  0.03275  1.0000
  C   C21       1.0  0.59749  0.74448  0.61364  1.0000
  C   C22       1.0  0.09749  0.25552  0.88636  1.0000
  C   C23       1.0  0.40251  0.25552  0.38636  1.0000
  C   C24       1.0  0.90251  0.74448  0.11364  1.0000
  N   N1        1.0  0.47798  0.57682  0.20107  1.0000
  N   N2        1.0  0.97798  0.42318  0.29893  1.0000
  N   N3        1.0  0.52202  0.42318  0.79893  1.0000
  N   N4        1.0  0.02202  0.57682  0.70107  1.0000
  N   N5        1.0  0.66464  0.41547  0.16617  1.0000
  N   N6        1.0  0.16463  0.58453  0.33383  1.0000
  N   N7        1.0  0.33536  0.58453  0.83383  1.0000
  N   N8        1.0  0.83536  0.41547  0.66617  1.0000
  N   N9        1.0  0.59353  0.49563  0.23957  1.0000
  N   N10       1.0  0.09353  0.50436  0.26043  1.0000
  N   N11       1.0  0.40647  0.50436  0.76043  1.0000
  N   N12       1.0  0.90647  0.49563  0.73957  1.0000
  N   N13       1.0  0.66174  0.81549  0.52318  1.0000
  N   N14       1.0  0.16174  0.18451  0.97682  1.0000
  N   N15       1.0  0.33826  0.18451  0.47682  1.0000
  N   N16       1.0  0.83826  0.81549  0.02318  1.0000
  Cl  Cl1       1.0  0.29937  0.93196  0.21922  1.0000
  Cl  Cl2       1.0  0.79937  0.06804  0.28078  1.0000
  Cl  Cl3       1.0  0.70063  0.06804  0.78078  1.0000
  Cl  Cl4       1.0  0.20063  0.93196  0.71922  1.0000
  O   O1        1.0  0.45730  0.73686  0.42574  1.0000
  O   O2        1.0  0.95730  0.26315  0.07426  1.0000
  O   O3        1.0  0.54270  0.26314  0.57426  1.0000
  O   O4        1.0  0.04270  0.73685  0.92574  1.0000
