data_image0
_chemical_formula_structural       Cs4H28C28O16
_chemical_formula_sum              "Cs4 H28 C28 O16"
_cell_length_a       6.7326
_cell_length_b       5.99939
_cell_length_c       23.0625
_cell_angle_alpha    90.0014
_cell_angle_beta     89.9974
_cell_angle_gamma    98.5219

_space_group_name_H-M_alt    "P 1"
_space_group_IT_number       1

loop_
  _space_group_symop_operation_xyz
  'x, y, z'

loop_
  _atom_site_type_symbol
  _atom_site_label
  _atom_site_symmetry_multiplicity
  _atom_site_fract_x
  _atom_site_fract_y
  _atom_site_fract_z
  _atom_site_occupancy
  Cs  Cs1       1.0  0.69276  0.25218  0.44783  1.0000
  Cs  Cs2       1.0  0.80726  0.24780  0.94783  1.0000
  Cs  Cs3       1.0  0.30725  0.74777  0.55219  1.0000
  Cs  Cs4       1.0  0.19276  0.75225  0.05217  1.0000
  H   H1        1.0  0.44967  0.69129  0.39425  1.0000
  H   H2        1.0  0.05032  0.80865  0.89424  1.0000
  H   H3        1.0  0.55033  0.30866  0.60576  1.0000
  H   H4        1.0  0.94967  0.19138  0.10576  1.0000
  H   H5        1.0  0.33203  0.21942  0.29846  1.0000
  H   H6        1.0  0.16792  0.28054  0.79846  1.0000
  H   H7        1.0  0.66794  0.78057  0.70154  1.0000
  H   H8        1.0  0.83206  0.71945  0.20152  1.0000
  H   H9        1.0  0.99736  0.15467  0.25010  1.0000
  H   H10       1.0  0.50263  0.34535  0.75011  1.0000
  H   H11       1.0  0.00262  0.84536  0.74990  1.0000
  H   H12       1.0  0.49733  0.65462  0.24987  1.0000
  H   H13       1.0  0.74664  0.41120  0.26928  1.0000
  H   H14       1.0  0.75339  0.08887  0.76928  1.0000
  H   H15       1.0  0.25336  0.58884  0.73073  1.0000
  H   H16       1.0  0.24658  0.91110  0.23070  1.0000
  H   H17       1.0  0.83266  0.73560  0.33749  1.0000
  H   H18       1.0  0.66738  0.76447  0.83749  1.0000
  H   H19       1.0  0.16736  0.26442  0.66252  1.0000
  H   H20       1.0  0.33261  0.23554  0.16251  1.0000
  H   H21       1.0  0.83703  0.82901  0.53306  1.0000
  H   H22       1.0  0.66298  0.67097  0.03305  1.0000
  H   H23       1.0  0.16301  0.17094  0.46696  1.0000
  H   H24       1.0  0.33702  0.32908  0.96695  1.0000
  H   H25       1.0  0.87572  0.80023  0.46722  1.0000
  H   H26       1.0  0.62431  0.69977  0.96722  1.0000
  H   H27       1.0  0.12432  0.19972  0.53279  1.0000
  H   H28       1.0  0.37570  0.30029  0.03278  1.0000
  C   C1        1.0  0.12820  0.66076  0.35637  1.0000
  C   C2        1.0  0.37181  0.83925  0.85637  1.0000
  C   C3        1.0  0.87181  0.33925  0.64363  1.0000
  C   C4        1.0  0.62818  0.16076  0.14363  1.0000
  C   C5        1.0  0.27047  0.51335  0.34459  1.0000
  C   C6        1.0  0.22951  0.98663  0.84459  1.0000
  C   C7        1.0  0.72952  0.48663  0.65542  1.0000
  C   C8        1.0  0.77049  0.01338  0.15541  1.0000
  C   C9        1.0  0.22145  0.33144  0.30643  1.0000
  C   C10       1.0  0.27852  0.16855  0.80643  1.0000
  C   C11       1.0  0.77853  0.66855  0.69357  1.0000
  C   C12       1.0  0.72146  0.83144  0.19355  1.0000
  C   C13       1.0  0.03454  0.29647  0.27967  1.0000
  C   C14       1.0  0.46546  0.20355  0.77967  1.0000
  C   C15       1.0  0.96546  0.70355  0.72033  1.0000
  C   C16       1.0  0.53453  0.79644  0.22031  1.0000
  C   C17       1.0  0.89305  0.44142  0.29034  1.0000
  C   C18       1.0  0.60697  0.05863  0.79035  1.0000
  C   C19       1.0  0.10695  0.55860  0.70966  1.0000
  C   C20       1.0  0.39302  0.94136  0.20964  1.0000
  C   C21       1.0  0.94077  0.62172  0.32839  1.0000
  C   C22       1.0  0.55925  0.87832  0.82839  1.0000
  C   C23       1.0  0.05925  0.37830  0.67161  1.0000
  C   C24       1.0  0.44074  0.12168  0.17160  1.0000
  C   C25       1.0  0.17704  0.84572  0.39942  1.0000
  C   C26       1.0  0.32299  0.65427  0.89942  1.0000
  C   C27       1.0  0.82298  0.15426  0.60059  1.0000
  C   C28       1.0  0.67701  0.34576  0.10058  1.0000
  O   O1        1.0  0.79432  0.72797  0.49973  1.0000
  O   O2        1.0  0.70570  0.77202  0.99973  1.0000
  O   O3        1.0  0.20572  0.27198  0.50028  1.0000
  O   O4        1.0  0.29430  0.22804  0.00027  1.0000
  O   O5        1.0  0.45372  0.54581  0.36985  1.0000
  O   O6        1.0  0.04626  0.95413  0.86985  1.0000
  O   O7        1.0  0.54627  0.45414  0.63015  1.0000
  O   O8        1.0  0.95374  0.04589  0.13014  1.0000
  O   O9        1.0  0.04237  0.95882  0.41673  1.0000
  O   O10       1.0  0.45767  0.54119  0.91673  1.0000
  O   O11       1.0  0.95765  0.04116  0.58328  1.0000
  O   O12       1.0  0.54233  0.45884  0.08327  1.0000
  O   O13       1.0  0.35834  0.87983  0.41943  1.0000
  O   O14       1.0  0.14168  0.62014  0.91942  1.0000
  O   O15       1.0  0.64167  0.12012  0.58058  1.0000
  O   O16       1.0  0.85833  0.37991  0.08058  1.0000
