data_image0
_chemical_formula_structural       Cs4H28C28O16
_chemical_formula_sum              "Cs4 H28 C28 O16"
_cell_length_a       5.63951
_cell_length_b       11.834
_cell_length_c       13.5036
_cell_angle_alpha    99.8727
_cell_angle_beta     90
_cell_angle_gamma    90.0003

_space_group_name_H-M_alt    "P 1"
_space_group_IT_number       1

loop_
  _space_group_symop_operation_xyz
  'x, y, z'

loop_
  _atom_site_type_symbol
  _atom_site_label
  _atom_site_symmetry_multiplicity
  _atom_site_fract_x
  _atom_site_fract_y
  _atom_site_fract_z
  _atom_site_occupancy
  Cs  Cs1       1.0  0.73136  0.60640  0.44166  1.0000
  Cs  Cs2       1.0  0.23136  0.39360  0.05835  1.0000
  Cs  Cs3       1.0  0.26864  0.39360  0.55834  1.0000
  Cs  Cs4       1.0  0.76864  0.60640  0.94167  1.0000
  H   H1        1.0  0.66191  0.93297  0.69574  1.0000
  H   H2        1.0  0.16194  0.06702  0.80426  1.0000
  H   H3        1.0  0.33807  0.06702  0.30426  1.0000
  H   H4        1.0  0.83807  0.93298  0.19574  1.0000
  H   H5        1.0  0.28228  0.77666  0.89710  1.0000
  H   H6        1.0  0.78229  0.22334  0.60290  1.0000
  H   H7        1.0  0.71771  0.22333  0.10290  1.0000
  H   H8        1.0  0.21771  0.77667  0.39711  1.0000
  H   H9        1.0  0.64722  0.97577  0.88281  1.0000
  H   H10       1.0  0.14725  0.02422  0.61719  1.0000
  H   H11       1.0  0.35276  0.02423  0.11719  1.0000
  H   H12       1.0  0.85276  0.97579  0.38281  1.0000
  H   H13       1.0  0.96059  0.89994  0.98420  1.0000
  H   H14       1.0  0.46060  0.10005  0.51579  1.0000
  H   H15       1.0  0.03939  0.10005  0.01579  1.0000
  H   H16       1.0  0.53941  0.89994  0.48420  1.0000
  H   H17       1.0  0.66704  0.55843  0.67842  1.0000
  H   H18       1.0  0.16706  0.44157  0.82159  1.0000
  H   H19       1.0  0.33296  0.44157  0.32158  1.0000
  H   H20       1.0  0.83296  0.55843  0.17841  1.0000
  H   H21       1.0  0.82136  0.44655  0.68104  1.0000
  H   H22       1.0  0.32137  0.55346  0.81897  1.0000
  H   H23       1.0  0.17863  0.55345  0.31896  1.0000
  H   H24       1.0  0.67864  0.44654  0.18104  1.0000
  H   H25       1.0  0.14002  0.75911  0.57619  1.0000
  H   H26       1.0  0.64003  0.24089  0.92382  1.0000
  H   H27       1.0  0.85998  0.24088  0.42382  1.0000
  H   H28       1.0  0.35998  0.75912  0.07618  1.0000
  C   C1        1.0  0.15167  0.78209  0.74872  1.0000
  C   C2        1.0  0.65171  0.21790  0.75128  1.0000
  C   C3        1.0  0.84831  0.21789  0.25128  1.0000
  C   C4        1.0  0.34829  0.78211  0.24872  1.0000
  C   C5        1.0  0.79591  0.89863  0.74062  1.0000
  C   C6        1.0  0.29594  0.10135  0.75938  1.0000
  C   C7        1.0  0.20408  0.10136  0.25938  1.0000
  C   C8        1.0  0.70406  0.89865  0.24062  1.0000
  C   C9        1.0  0.14380  0.81025  0.85395  1.0000
  C   C10       1.0  0.64383  0.18975  0.64605  1.0000
  C   C11       1.0  0.85618  0.18974  0.14605  1.0000
  C   C12       1.0  0.35618  0.81026  0.35395  1.0000
  C   C13       1.0  0.78922  0.92240  0.84511  1.0000
  C   C14       1.0  0.28925  0.07760  0.65489  1.0000
  C   C15       1.0  0.21075  0.07760  0.15489  1.0000
  C   C16       1.0  0.71076  0.92241  0.34512  1.0000
  C   C17       1.0  0.96492  0.87953  0.90245  1.0000
  C   C18       1.0  0.46495  0.12045  0.59754  1.0000
  C   C19       1.0  0.03505  0.12045  0.09754  1.0000
  C   C20       1.0  0.53504  0.87955  0.40246  1.0000
  C   C21       1.0  0.97771  0.82948  0.69165  1.0000
  C   C22       1.0  0.47776  0.17051  0.80835  1.0000
  C   C23       1.0  0.02227  0.17051  0.30835  1.0000
  C   C24       1.0  0.52226  0.82951  0.19165  1.0000
  C   C25       1.0  0.33197  0.70113  0.69682  1.0000
  C   C26       1.0  0.83197  0.29888  0.80319  1.0000
  C   C27       1.0  0.66805  0.29887  0.30319  1.0000
  C   C28       1.0  0.16805  0.70113  0.19680  1.0000
  O   O1        1.0  0.34456  0.68847  0.60032  1.0000
  O   O2        1.0  0.84455  0.31153  0.89969  1.0000
  O   O3        1.0  0.65547  0.31153  0.39969  1.0000
  O   O4        1.0  0.15546  0.68848  0.10030  1.0000
  O   O5        1.0  0.46227  0.64420  0.74821  1.0000
  O   O6        1.0  0.96230  0.35581  0.75180  1.0000
  O   O7        1.0  0.53774  0.35580  0.25180  1.0000
  O   O8        1.0  0.03771  0.64420  0.24819  1.0000
  O   O9        1.0  0.77081  0.50046  0.63640  1.0000
  O   O10       1.0  0.27083  0.49954  0.86360  1.0000
  O   O11       1.0  0.22919  0.49954  0.36360  1.0000
  O   O12       1.0  0.72917  0.50047  0.13640  1.0000
  O   O13       1.0  0.98635  0.80816  0.58993  1.0000
  O   O14       1.0  0.48638  0.19183  0.91007  1.0000
  O   O15       1.0  0.01364  0.19183  0.41007  1.0000
  O   O16       1.0  0.51363  0.80819  0.08993  1.0000
