data_image0
_chemical_formula_structural       Zn2H24C16N4O16
_chemical_formula_sum              "Zn2 H24 C16 N4 O16"
_cell_length_a       6.79402
_cell_length_b       10.9514
_cell_length_c       10.9514
_cell_angle_alpha    108.289
_cell_angle_beta     89.9999
_cell_angle_gamma    90.0003

_space_group_name_H-M_alt    "P 1"
_space_group_IT_number       1

loop_
  _space_group_symop_operation_xyz
  'x, y, z'

loop_
  _atom_site_type_symbol
  _atom_site_label
  _atom_site_symmetry_multiplicity
  _atom_site_fract_x
  _atom_site_fract_y
  _atom_site_fract_z
  _atom_site_occupancy
  Zn  Zn1       1.0  0.89111  1.00000  0.50000  1.0000
  Zn  Zn2       1.0  0.10889  0.50000  1.00000  1.0000
  H   H1        1.0  0.63416  0.97891  0.86905  1.0000
  H   H2        1.0  0.63416  0.02109  0.13095  1.0000
  H   H3        1.0  0.36584  0.86905  0.97891  1.0000
  H   H4        1.0  0.36585  0.13095  0.02109  1.0000
  H   H5        1.0  0.40177  0.98001  0.78993  1.0000
  H   H6        1.0  0.40177  0.01999  0.21007  1.0000
  H   H7        1.0  0.59823  0.78993  0.98001  1.0000
  H   H8        1.0  0.59823  0.21008  0.01999  1.0000
  H   H9        1.0  0.39976  0.25517  0.55539  1.0000
  H   H10       1.0  0.39976  0.74483  0.44461  1.0000
  H   H11       1.0  0.60024  0.55539  0.25517  1.0000
  H   H12       1.0  0.60025  0.44461  0.74483  1.0000
  H   H13       1.0  0.26299  0.35903  0.68630  1.0000
  H   H14       1.0  0.26299  0.64097  0.31371  1.0000
  H   H15       1.0  0.73701  0.68630  0.35904  1.0000
  H   H16       1.0  0.73701  0.31370  0.64096  1.0000
  H   H17       1.0  0.61717  0.73903  0.75176  1.0000
  H   H18       1.0  0.61717  0.26097  0.24824  1.0000
  H   H19       1.0  0.38284  0.75176  0.73903  1.0000
  H   H20       1.0  0.38284  0.24824  0.26097  1.0000
  H   H21       1.0  0.55620  0.16766  0.71497  1.0000
  H   H22       1.0  0.55620  0.83234  0.28503  1.0000
  H   H23       1.0  0.44380  0.71497  0.16766  1.0000
  H   H24       1.0  0.44380  0.28503  0.83234  1.0000
  C   C1        1.0  0.53998  0.92706  0.78804  1.0000
  C   C2        1.0  0.53998  0.07294  0.21195  1.0000
  C   C3        1.0  0.46003  0.78804  0.92706  1.0000
  C   C4        1.0  0.46002  0.21196  0.07294  1.0000
  C   C5        1.0  0.64801  0.91146  0.66202  1.0000
  C   C6        1.0  0.64801  0.08854  0.33798  1.0000
  C   C7        1.0  0.35199  0.66201  0.91145  1.0000
  C   C8        1.0  0.35199  0.33799  0.08855  1.0000
  C   C9        1.0  0.33632  0.26518  0.65014  1.0000
  C   C10       1.0  0.33632  0.73483  0.34986  1.0000
  C   C11       1.0  0.66368  0.65014  0.26518  1.0000
  C   C12       1.0  0.66368  0.34986  0.73482  1.0000
  C   C13       1.0  0.18974  0.15683  0.63860  1.0000
  C   C14       1.0  0.18974  0.84317  0.36141  1.0000
  C   C15       1.0  0.81026  0.63860  0.15683  1.0000
  C   C16       1.0  0.81026  0.36140  0.84317  1.0000
  N   N1        1.0  0.50000  0.79634  0.79634  1.0000
  N   N2        1.0  0.50000  0.20366  0.20366  1.0000
  N   N3        1.0  0.50000  0.26108  0.73892  1.0000
  N   N4        1.0  0.50000  0.73893  0.26108  1.0000
  O   O1        1.0  0.69601  0.01820  0.64422  1.0000
  O   O2        1.0  0.69601  0.98179  0.35578  1.0000
  O   O3        1.0  0.30398  0.64421  0.01821  1.0000
  O   O4        1.0  0.30398  0.35578  0.98180  1.0000
  O   O5        1.0  0.68246  0.80031  0.59026  1.0000
  O   O6        1.0  0.68246  0.19969  0.40974  1.0000
  O   O7        1.0  0.31754  0.59027  0.80031  1.0000
  O   O8        1.0  0.31753  0.40974  0.19969  1.0000
  O   O9        1.0  0.05073  0.15609  0.55809  1.0000
  O   O10       1.0  0.05073  0.84390  0.44191  1.0000
  O   O11       1.0  0.94927  0.55809  0.15609  1.0000
  O   O12       1.0  0.94927  0.44191  0.84390  1.0000
  O   O13       1.0  0.21326  0.08015  0.70104  1.0000
  O   O14       1.0  0.21326  0.91985  0.29896  1.0000
  O   O15       1.0  0.78674  0.70105  0.08015  1.0000
  O   O16       1.0  0.78675  0.29896  0.91985  1.0000
