data_image0
_chemical_formula_structural       Li2H58C46N2O6
_chemical_formula_sum              "Li2 H58 C46 N2 O6"
_cell_length_a       8.98624
_cell_length_b       9.26164
_cell_length_c       12.624
_cell_angle_alpha    76.049
_cell_angle_beta     86.524
_cell_angle_gamma    80.9723

_space_group_name_H-M_alt    "P 1"
_space_group_IT_number       1

loop_
  _space_group_symop_operation_xyz
  'x, y, z'

loop_
  _atom_site_type_symbol
  _atom_site_label
  _atom_site_symmetry_multiplicity
  _atom_site_fract_x
  _atom_site_fract_y
  _atom_site_fract_z
  _atom_site_occupancy
  Li  Li1       1.0  0.38654  0.56938  0.41235  1.0000
  Li  Li2       1.0  0.61346  0.43061  0.58765  1.0000
  H   H1        1.0  0.92987  0.22732  0.21573  1.0000
  H   H2        1.0  0.07013  0.77268  0.78426  1.0000
  H   H3        1.0  0.75637  0.44809  0.11485  1.0000
  H   H4        1.0  0.24363  0.55191  0.88515  1.0000
  H   H5        1.0  0.99534  0.99804  0.09645  1.0000
  H   H6        1.0  0.00466  0.00196  0.90355  1.0000
  H   H7        1.0  0.49115  0.78460  0.04362  1.0000
  H   H8        1.0  0.50886  0.21540  0.95638  1.0000
  H   H9        1.0  0.56691  0.60092  0.02851  1.0000
  H   H10       1.0  0.43310  0.39908  0.97148  1.0000
  H   H11       1.0  0.68294  0.71115  0.07186  1.0000
  H   H12       1.0  0.31707  0.28885  0.92814  1.0000
  H   H13       1.0  0.37028  0.19669  0.16210  1.0000
  H   H14       1.0  0.62972  0.80331  0.83790  1.0000
  H   H15       1.0  0.61516  0.82494  0.25468  1.0000
  H   H16       1.0  0.38484  0.17506  0.74531  1.0000
  H   H17       1.0  0.11331  0.22509  0.09195  1.0000
  H   H18       1.0  0.88669  0.77491  0.90805  1.0000
  H   H19       1.0  0.66399  0.99797  0.07427  1.0000
  H   H20       1.0  0.33600  0.00203  0.92573  1.0000
  H   H21       1.0  0.77542  0.02086  0.17920  1.0000
  H   H22       1.0  0.22458  0.97915  0.82079  1.0000
  H   H23       1.0  0.61707  0.15521  0.13423  1.0000
  H   H24       1.0  0.38293  0.84480  0.86577  1.0000
  H   H25       1.0  0.79190  0.01489  0.58867  1.0000
  H   H26       1.0  0.20811  0.98511  0.41133  1.0000
  H   H27       1.0  0.90326  0.15861  0.59644  1.0000
  H   H28       1.0  0.09674  0.84140  0.40356  1.0000
  H   H29       1.0  0.90734  0.77904  0.25267  1.0000
  H   H30       1.0  0.09267  0.22096  0.74733  1.0000
  H   H31       1.0  0.90182  0.61697  0.20192  1.0000
  H   H32       1.0  0.09818  0.38303  0.79808  1.0000
  H   H33       1.0  0.89144  0.79682  0.11082  1.0000
  H   H34       1.0  0.10856  0.20318  0.88918  1.0000
  H   H35       1.0  0.49885  0.92241  0.41100  1.0000
  H   H36       1.0  0.50115  0.07759  0.58900  1.0000
  H   H37       1.0  0.51402  0.11063  0.33786  1.0000
  H   H38       1.0  0.48598  0.88936  0.66214  1.0000
  H   H39       1.0  0.67896  0.97948  0.37469  1.0000
  H   H40       1.0  0.32104  0.02051  0.62531  1.0000
  H   H41       1.0  0.10715  0.32937  0.35514  1.0000
  H   H42       1.0  0.89285  0.67063  0.64486  1.0000
  H   H43       1.0  0.24809  0.23716  0.45463  1.0000
  H   H44       1.0  0.75191  0.76284  0.54537  1.0000
  H   H45       1.0  0.30111  0.35674  0.32909  1.0000
  H   H46       1.0  0.69889  0.64326  0.67091  1.0000
  H   H47       1.0  0.16246  0.61680  0.24446  1.0000
  H   H48       1.0  0.83754  0.38320  0.75554  1.0000
  H   H49       1.0  0.28642  0.60458  0.06661  1.0000
  H   H50       1.0  0.71358  0.39542  0.93339  1.0000
  H   H51       1.0  0.12926  0.71988  0.99656  1.0000
  H   H52       1.0  0.87074  0.28012  0.00344  1.0000
  H   H53       1.0  0.11080  0.53553  0.07540  1.0000
  H   H54       1.0  0.88921  0.46447  0.92460  1.0000
  H   H55       1.0  0.11139  0.52281  0.58143  1.0000
  H   H56       1.0  0.88861  0.47719  0.41857  1.0000
  H   H57       1.0  0.07325  0.34593  0.56728  1.0000
  H   H58       1.0  0.92675  0.65406  0.43272  1.0000
  C   C1        1.0  0.61647  0.47859  0.25690  1.0000
  C   C2        1.0  0.38353  0.52141  0.74310  1.0000
  C   C3        1.0  0.83667  0.28316  0.25708  1.0000
  C   C4        1.0  0.16333  0.71684  0.74291  1.0000
  C   C5        1.0  0.68653  0.30779  0.41808  1.0000
  C   C6        1.0  0.31347  0.69221  0.58191  1.0000
  C   C7        1.0  0.33667  0.82573  0.20143  1.0000
  C   C8        1.0  0.66333  0.17427  0.79857  1.0000
  C   C9        1.0  0.52556  0.61712  0.19567  1.0000
  C   C10       1.0  0.47445  0.38288  0.80433  1.0000
  C   C11       1.0  0.40417  0.95471  0.20015  1.0000
  C   C12       1.0  0.59583  0.04529  0.79985  1.0000
  C   C13       1.0  0.58446  0.42945  0.37191  1.0000
  C   C14       1.0  0.41554  0.57055  0.62809  1.0000
  C   C15       1.0  0.73691  0.40695  0.20214  1.0000
  C   C16       1.0  0.26309  0.59305  0.79786  1.0000
  C   C17       1.0  0.10883  0.98530  0.12672  1.0000
  C   C18       1.0  0.89117  0.01470  0.87328  1.0000
  C   C19       1.0  0.18677  0.84093  0.16680  1.0000
  C   C20       1.0  0.81323  0.15906  0.83320  1.0000
  C   C21       1.0  0.80862  0.23542  0.36808  1.0000
  C   C22       1.0  0.19138  0.76458  0.63192  1.0000
  C   C23       1.0  0.56811  0.68275  0.07866  1.0000
  C   C24       1.0  0.43190  0.31725  0.92134  1.0000
  C   C25       1.0  0.31972  0.09679  0.16269  1.0000
  C   C26       1.0  0.68028  0.90321  0.83731  1.0000
  C   C27       1.0  0.56332  0.94346  0.23886  1.0000
  C   C28       1.0  0.43668  0.05654  0.76114  1.0000
  C   C29       1.0  0.17456  0.11302  0.12432  1.0000
  C   C30       1.0  0.82544  0.88698  0.87568  1.0000
  C   C31       1.0  0.65983  0.03440  0.15116  1.0000
  C   C32       1.0  0.34017  0.96561  0.84884  1.0000
  C   C33       1.0  0.82191  0.12573  0.54804  1.0000
  C   C34       1.0  0.17809  0.87427  0.45196  1.0000
  C   C35       1.0  0.94485  0.72505  0.18519  1.0000
  C   C36       1.0  0.05515  0.27495  0.81481  1.0000
  C   C37       1.0  0.56287  0.99180  0.34713  1.0000
  C   C38       1.0  0.43714  0.00820  0.65287  1.0000
  C   C39       1.0  0.21163  0.34021  0.39188  1.0000
  C   C40       1.0  0.78837  0.65979  0.60812  1.0000
  C   C41       1.0  0.11642  0.70072  0.17209  1.0000
  C   C42       1.0  0.88358  0.29928  0.82791  1.0000
  C   C43       1.0  0.16377  0.63603  0.07197  1.0000
  C   C44       1.0  0.83623  0.36397  0.92803  1.0000
  C   C45       1.0  0.07727  0.46361  0.52339  1.0000
  C   C46       1.0  0.92273  0.53639  0.47661  1.0000
  N   N1        1.0  0.41359  0.68116  0.24655  1.0000
  N   N2        1.0  0.58641  0.31884  0.75345  1.0000
  O   O1        1.0  0.68912  0.23585  0.53156  1.0000
  O   O2        1.0  0.31088  0.76415  0.46844  1.0000
  O   O3        1.0  0.88909  0.11962  0.44114  1.0000
  O   O4        1.0  0.11091  0.88037  0.55886  1.0000
  O   O5        1.0  0.19242  0.46884  0.43893  1.0000
  O   O6        1.0  0.80758  0.53116  0.56107  1.0000
