data_image0
_chemical_formula_structural       CoH8C12N10
_chemical_formula_sum              "Co1 H8 C12 N10"
_cell_length_a       6.20228
_cell_length_b       7.3031
_cell_length_c       9.08778
_cell_angle_alpha    115.109
_cell_angle_beta     103.695
_cell_angle_gamma    95.9864

_space_group_name_H-M_alt    "P 1"
_space_group_IT_number       1

loop_
  _space_group_symop_operation_xyz
  'x, y, z'

loop_
  _atom_site_type_symbol
  _atom_site_label
  _atom_site_symmetry_multiplicity
  _atom_site_fract_x
  _atom_site_fract_y
  _atom_site_fract_z
  _atom_site_occupancy
  Co  Co1       1.0  0.50000  0.99999  0.99999  1.0000
  H   H1        1.0  0.22455  0.70803  0.37824  1.0000
  H   H2        1.0  0.77545  0.29195  0.62174  1.0000
  H   H3        1.0  0.60339  0.66721  0.32625  1.0000
  H   H4        1.0  0.39661  0.33280  0.67374  1.0000
  H   H5        1.0  0.95195  0.78203  0.59183  1.0000
  H   H6        1.0  0.04805  0.21797  0.40816  1.0000
  H   H7        1.0  0.88222  0.91682  0.87276  1.0000
  H   H8        1.0  0.11777  0.08314  0.12723  1.0000
  C   C1        1.0  0.38040  0.74941  0.48312  1.0000
  C   C2        1.0  0.61960  0.25057  0.51686  1.0000
  C   C3        1.0  0.59050  0.72835  0.45496  1.0000
  C   C4        1.0  0.40950  0.27165  0.54503  1.0000
  C   C5        1.0  0.77872  0.78950  0.59714  1.0000
  C   C6        1.0  0.22128  0.21049  0.40284  1.0000
  C   C7        1.0  0.74293  0.86684  0.75619  1.0000
  C   C8        1.0  0.25706  0.13314  0.24380  1.0000
  C   C9        1.0  0.16019  0.56838  0.88163  1.0000
  C   C10       1.0  0.77542  0.72831  0.10340  1.0000
  C   C11       1.0  0.83982  0.43167  0.11840  1.0000
  C   C12       1.0  0.22460  0.27172  0.89663  1.0000
  N   N1        1.0  0.53521  0.88271  0.77353  1.0000
  N   N2        1.0  0.46478  0.11727  0.22645  1.0000
  N   N3        1.0  0.35277  0.82401  0.63794  1.0000
  N   N4        1.0  0.64721  0.17596  0.36204  1.0000
  N   N5        1.0  0.19427  0.74549  0.91420  1.0000
  N   N6        1.0  0.68113  0.83487  0.05707  1.0000
  N   N7        1.0  0.80574  0.25452  0.08581  1.0000
  N   N8        1.0  0.31888  0.16514  0.94293  1.0000
  N   N9        1.0  0.10437  0.37000  0.83207  1.0000
  N   N10       1.0  0.89564  0.63004  0.16798  1.0000
