data_image0
_chemical_formula_structural       FeH8C12N10
_chemical_formula_sum              "Fe1 H8 C12 N10"
_cell_length_a       6.20426
_cell_length_b       7.15136
_cell_length_c       9.33094
_cell_angle_alpha    112.649
_cell_angle_beta     107.355
_cell_angle_gamma    90.0091

_space_group_name_H-M_alt    "P 1"
_space_group_IT_number       1

loop_
  _space_group_symop_operation_xyz
  'x, y, z'

loop_
  _atom_site_type_symbol
  _atom_site_label
  _atom_site_symmetry_multiplicity
  _atom_site_fract_x
  _atom_site_fract_y
  _atom_site_fract_z
  _atom_site_occupancy
  Fe  Fe1       1.0  0.49308  0.01144  0.02343  1.0000
  H   H1        1.0  0.26584  0.68081  0.36073  1.0000
  H   H2        1.0  0.74256  0.31175  0.62318  1.0000
  H   H3        1.0  0.66260  0.67041  0.33926  1.0000
  H   H4        1.0  0.34978  0.32753  0.65466  1.0000
  H   H5        1.0  0.99755  0.80378  0.60683  1.0000
  H   H6        1.0  0.00812  0.19483  0.38937  1.0000
  H   H7        1.0  0.89690  0.93372  0.86830  1.0000
  H   H8        1.0  0.09390  0.06304  0.12591  1.0000
  C   C1        1.0  0.41748  0.73514  0.46957  1.0000
  C   C2        1.0  0.58731  0.25881  0.51702  1.0000
  C   C3        1.0  0.63733  0.72972  0.45844  1.0000
  C   C4        1.0  0.37098  0.26737  0.53409  1.0000
  C   C5        1.0  0.81952  0.80194  0.60322  1.0000
  C   C6        1.0  0.18519  0.19570  0.39088  1.0000
  C   C7        1.0  0.76578  0.87425  0.74873  1.0000
  C   C8        1.0  0.22967  0.12155  0.24279  1.0000
  C   C9        1.0  0.19023  0.60363  0.89532  1.0000
  C   C10       1.0  0.80718  0.71529  0.11687  1.0000
  C   C11       1.0  0.80718  0.40155  0.11696  1.0000
  C   C12       1.0  0.19025  0.29043  0.89541  1.0000
  N   N1        1.0  0.55113  0.87507  0.75064  1.0000
  N   N2        1.0  0.44440  0.11749  0.23493  1.0000
  N   N3        1.0  0.37560  0.80640  0.61286  1.0000
  N   N4        1.0  0.62382  0.18614  0.37215  1.0000
  N   N5        1.0  0.27202  0.77333  0.94132  1.0000
  N   N6        1.0  0.71703  0.84622  0.08610  1.0000
  N   N7        1.0  0.71705  0.23971  0.08627  1.0000
  N   N8        1.0  0.27203  0.16708  0.94155  1.0000
  N   N9        1.0  0.09052  0.41687  0.83542  1.0000
  N   N10       1.0  0.91792  0.57899  0.15781  1.0000
