data_image0
_chemical_formula_structural       Mn4H16C32N32
_chemical_formula_sum              "Mn4 H16 C32 N32"
_cell_length_a       6.25273
_cell_length_b       7.54126
_cell_length_c       23.1347
_cell_angle_alpha    90.0004
_cell_angle_beta     90
_cell_angle_gamma    89.9994

_space_group_name_H-M_alt    "P 1"
_space_group_IT_number       1

loop_
  _space_group_symop_operation_xyz
  'x, y, z'

loop_
  _atom_site_type_symbol
  _atom_site_label
  _atom_site_symmetry_multiplicity
  _atom_site_fract_x
  _atom_site_fract_y
  _atom_site_fract_z
  _atom_site_occupancy
  Mn  Mn1       1.0  0.21741  0.25000  0.66710  1.0000
  Mn  Mn2       1.0  0.71741  0.75000  0.83290  1.0000
  Mn  Mn3       1.0  0.78260  0.75000  0.33290  1.0000
  Mn  Mn4       1.0  0.28259  0.25000  0.16709  1.0000
  H   H1        1.0  0.15205  0.25000  0.44505  1.0000
  H   H2        1.0  0.65205  0.75000  0.05495  1.0000
  H   H3        1.0  0.84795  0.75000  0.55495  1.0000
  H   H4        1.0  0.34795  0.25000  0.94505  1.0000
  H   H5        1.0  0.75066  0.25000  0.43822  1.0000
  H   H6        1.0  0.25066  0.75000  0.06178  1.0000
  H   H7        1.0  0.24934  0.75000  0.56177  1.0000
  H   H8        1.0  0.74934  0.25000  0.93822  1.0000
  H   H9        1.0  0.53861  0.24999  0.53311  1.0000
  H   H10       1.0  0.03861  0.74999  0.96689  1.0000
  H   H11       1.0  0.46140  0.75000  0.46689  1.0000
  H   H12       1.0  0.96139  0.24999  0.03311  1.0000
  H   H13       1.0  0.75653  0.25000  0.62483  1.0000
  H   H14       1.0  0.25652  0.74999  0.87517  1.0000
  H   H15       1.0  0.24348  0.75001  0.37517  1.0000
  H   H16       1.0  0.74348  0.25000  0.12483  1.0000
  C   C1        1.0  0.05189  0.25000  0.48376  1.0000
  C   C2        1.0  0.55189  0.75000  0.01624  1.0000
  C   C3        1.0  0.94811  0.75000  0.51624  1.0000
  C   C4        1.0  0.44811  0.25000  0.98376  1.0000
  C   C5        1.0  0.82832  0.25000  0.48025  1.0000
  C   C6        1.0  0.32832  0.75000  0.01975  1.0000
  C   C7        1.0  0.17168  0.75000  0.51975  1.0000
  C   C8        1.0  0.67168  0.25000  0.98025  1.0000
  C   C9        1.0  0.71332  0.25000  0.53138  1.0000
  C   C10       1.0  0.21332  0.75000  0.96862  1.0000
  C   C11       1.0  0.28669  0.75000  0.46862  1.0000
  C   C12       1.0  0.78668  0.25000  0.03138  1.0000
  C   C13       1.0  0.83257  0.25000  0.58250  1.0000
  C   C14       1.0  0.33257  0.74999  0.91750  1.0000
  C   C15       1.0  0.16743  0.75001  0.41749  1.0000
  C   C16       1.0  0.66743  0.25000  0.08250  1.0000
  C   C17       1.0  0.47438  0.40172  0.78067  1.0000
  C   C18       1.0  0.97438  0.59827  0.71933  1.0000
  C   C19       1.0  0.52562  0.90173  0.21933  1.0000
  C   C20       1.0  0.02562  0.09826  0.28067  1.0000
  C   C21       1.0  0.52561  0.59827  0.21933  1.0000
  C   C22       1.0  0.02563  0.40173  0.28067  1.0000
  C   C23       1.0  0.47438  0.09826  0.78067  1.0000
  C   C24       1.0  0.97438  0.90173  0.71933  1.0000
  C   C25       1.0  0.50746  0.59858  0.63703  1.0000
  C   C26       1.0  0.00745  0.40142  0.86297  1.0000
  C   C27       1.0  0.49255  0.09859  0.36297  1.0000
  C   C28       1.0  0.99254  0.90142  0.13703  1.0000
  C   C29       1.0  0.49255  0.40142  0.36297  1.0000
  C   C30       1.0  0.99254  0.59858  0.13703  1.0000
  C   C31       1.0  0.50745  0.90142  0.63703  1.0000
  C   C32       1.0  0.00745  0.09859  0.86297  1.0000
  N   N1        1.0  0.04660  0.25000  0.58296  1.0000
  N   N2        1.0  0.54659  0.74999  0.91704  1.0000
  N   N3        1.0  0.95341  0.75000  0.41703  1.0000
  N   N4        1.0  0.45340  0.25000  0.08296  1.0000
  N   N5        1.0  0.15889  0.25000  0.53378  1.0000
  N   N6        1.0  0.65888  0.75000  0.96622  1.0000
  N   N7        1.0  0.84112  0.75000  0.46622  1.0000
  N   N8        1.0  0.34111  0.25000  0.03378  1.0000
  N   N9        1.0  0.41991  0.25000  0.75845  1.0000
  N   N10       1.0  0.91991  0.75000  0.74155  1.0000
  N   N11       1.0  0.58009  0.75000  0.24155  1.0000
  N   N12       1.0  0.08009  0.25000  0.25845  1.0000
  N   N13       1.0  0.51338  0.54597  0.79712  1.0000
  N   N14       1.0  0.01337  0.45403  0.70288  1.0000
  N   N15       1.0  0.48663  0.04597  0.20288  1.0000
  N   N16       1.0  0.98663  0.95403  0.29712  1.0000
  N   N17       1.0  0.48661  0.45403  0.20288  1.0000
  N   N18       1.0  0.98663  0.54597  0.29712  1.0000
  N   N19       1.0  0.51336  0.95402  0.79712  1.0000
  N   N20       1.0  0.01337  0.04597  0.70288  1.0000
  N   N21       1.0  0.43653  0.45463  0.64194  1.0000
  N   N22       1.0  0.93654  0.54537  0.85806  1.0000
  N   N23       1.0  0.56347  0.95464  0.35806  1.0000
  N   N24       1.0  0.06346  0.04537  0.14194  1.0000
  N   N25       1.0  0.56346  0.54538  0.35806  1.0000
  N   N26       1.0  0.06346  0.45463  0.14194  1.0000
  N   N27       1.0  0.43654  0.04537  0.64194  1.0000
  N   N28       1.0  0.93653  0.95463  0.85806  1.0000
  N   N29       1.0  0.60014  0.75000  0.62884  1.0000
  N   N30       1.0  0.10014  0.25000  0.87116  1.0000
  N   N31       1.0  0.39986  0.25001  0.37116  1.0000
  N   N32       1.0  0.89985  0.75000  0.12884  1.0000
