data_image0
_chemical_formula_structural       U4H20C16N4O24
_chemical_formula_sum              "U4 H20 C16 N4 O24"
_cell_length_a       6.86104
_cell_length_b       10.1755
_cell_length_c       10.9423
_cell_angle_alpha    90
_cell_angle_beta     90.0001
_cell_angle_gamma    90

_space_group_name_H-M_alt    "P 1"
_space_group_IT_number       1

loop_
  _space_group_symop_operation_xyz
  'x, y, z'

loop_
  _atom_site_type_symbol
  _atom_site_label
  _atom_site_symmetry_multiplicity
  _atom_site_fract_x
  _atom_site_fract_y
  _atom_site_fract_z
  _atom_site_occupancy
  U   U1        1.0  0.83667  0.75000  0.75964  1.0000
  U   U2        1.0  0.33667  0.25000  0.74036  1.0000
  U   U3        1.0  0.16333  0.25000  0.24036  1.0000
  U   U4        1.0  0.66332  0.75000  0.25964  1.0000
  H   H1        1.0  0.26682  0.60549  0.49012  1.0000
  H   H2        1.0  0.76683  0.10550  0.00988  1.0000
  H   H3        1.0  0.26683  0.89451  0.49012  1.0000
  H   H4        1.0  0.76683  0.39450  0.00988  1.0000
  H   H5        1.0  0.73318  0.39450  0.50988  1.0000
  H   H6        1.0  0.23317  0.89451  0.99011  1.0000
  H   H7        1.0  0.73318  0.10550  0.50988  1.0000
  H   H8        1.0  0.23317  0.60549  0.99011  1.0000
  H   H9        1.0  0.33763  0.64150  0.64142  1.0000
  H   H10       1.0  0.83762  0.14150  0.85858  1.0000
  H   H11       1.0  0.33763  0.85850  0.64142  1.0000
  H   H12       1.0  0.83762  0.35850  0.85858  1.0000
  H   H13       1.0  0.66237  0.35850  0.35859  1.0000
  H   H14       1.0  0.16237  0.85850  0.14141  1.0000
  H   H15       1.0  0.66237  0.14150  0.35859  1.0000
  H   H16       1.0  0.16237  0.64150  0.14141  1.0000
  H   H17       1.0  0.00395  0.75000  0.50743  1.0000
  H   H18       1.0  0.50395  0.25000  0.99257  1.0000
  H   H19       1.0  0.99605  0.25000  0.49257  1.0000
  H   H20       1.0  0.49605  0.75000  0.00743  1.0000
  C   C1        1.0  0.09471  0.51512  0.63176  1.0000
  C   C2        1.0  0.59470  0.01512  0.86824  1.0000
  C   C3        1.0  0.09471  0.98488  0.63176  1.0000
  C   C4        1.0  0.59470  0.48488  0.86824  1.0000
  C   C5        1.0  0.90530  0.48488  0.36824  1.0000
  C   C6        1.0  0.40529  0.98488  0.13176  1.0000
  C   C7        1.0  0.90530  0.01512  0.36824  1.0000
  C   C8        1.0  0.40529  0.51512  0.13176  1.0000
  C   C9        1.0  0.21006  0.62907  0.58140  1.0000
  C   C10       1.0  0.71006  0.12907  0.91860  1.0000
  C   C11       1.0  0.21006  0.87093  0.58139  1.0000
  C   C12       1.0  0.71006  0.37093  0.91860  1.0000
  C   C13       1.0  0.78994  0.37093  0.41860  1.0000
  C   C14       1.0  0.28994  0.87093  0.08140  1.0000
  C   C15       1.0  0.78994  0.12907  0.41860  1.0000
  C   C16       1.0  0.28994  0.62907  0.08140  1.0000
  N   N1        1.0  0.09221  0.75000  0.58323  1.0000
  N   N2        1.0  0.59221  0.25000  0.91677  1.0000
  N   N3        1.0  0.90779  0.25000  0.41677  1.0000
  N   N4        1.0  0.40779  0.75000  0.08323  1.0000
  O   O1        1.0  0.64546  0.75000  0.64586  1.0000
  O   O2        1.0  0.14546  0.25000  0.85415  1.0000
  O   O3        1.0  0.35454  0.25000  0.35415  1.0000
  O   O4        1.0  0.85454  0.75000  0.14586  1.0000
  O   O5        1.0  0.04897  0.75000  0.85770  1.0000
  O   O6        1.0  0.54896  0.25000  0.64230  1.0000
  O   O7        1.0  0.95104  0.25000  0.14230  1.0000
  O   O8        1.0  0.45103  0.75000  0.35770  1.0000
  O   O9        1.0  0.93644  0.53919  0.68768  1.0000
  O   O10       1.0  0.43644  0.03919  0.81233  1.0000
  O   O11       1.0  0.93644  0.96081  0.68768  1.0000
  O   O12       1.0  0.43644  0.46081  0.81233  1.0000
  O   O13       1.0  0.06356  0.46081  0.31233  1.0000
  O   O14       1.0  0.56356  0.96081  0.18768  1.0000
  O   O15       1.0  0.06356  0.03920  0.31233  1.0000
  O   O16       1.0  0.56356  0.53919  0.18768  1.0000
  O   O17       1.0  0.16215  0.39931  0.61669  1.0000
  O   O18       1.0  0.66216  0.89931  0.88331  1.0000
  O   O19       1.0  0.16215  0.10069  0.61669  1.0000
  O   O20       1.0  0.66216  0.60069  0.88331  1.0000
  O   O21       1.0  0.83784  0.60069  0.38331  1.0000
  O   O22       1.0  0.33785  0.10069  0.11669  1.0000
  O   O23       1.0  0.83784  0.89931  0.38331  1.0000
  O   O24       1.0  0.33785  0.39931  0.11669  1.0000
