data_image0
_chemical_formula_structural       Cs2Ag2H24C8S8N4O16
_chemical_formula_sum              "Cs2 Ag2 H24 C8 S8 N4 O16"
_cell_length_a       5.41763
_cell_length_b       10.161
_cell_length_c       14.8441
_cell_angle_alpha    78.47
_cell_angle_beta     79.4651
_cell_angle_gamma    74.5319

_space_group_name_H-M_alt    "P 1"
_space_group_IT_number       1

loop_
  _space_group_symop_operation_xyz
  'x, y, z'

loop_
  _atom_site_type_symbol
  _atom_site_label
  _atom_site_symmetry_multiplicity
  _atom_site_fract_x
  _atom_site_fract_y
  _atom_site_fract_z
  _atom_site_occupancy
  Cs  Cs1       1.0  0.16132  0.75022  0.25011  1.0000
  Cs  Cs2       1.0  0.83868  0.24978  0.74988  1.0000
  Ag  Ag1       1.0  0.99998  0.49999  0.50000  1.0000
  Ag  Ag2       1.0  0.99998  1.00000  0.99999  1.0000
  H   H1        1.0  0.35764  0.93861  0.47074  1.0000
  H   H2        1.0  0.76692  0.56108  0.02918  1.0000
  H   H3        1.0  0.64241  0.06137  0.52927  1.0000
  H   H4        1.0  0.23306  0.43894  0.97083  1.0000
  H   H5        1.0  0.51476  0.76542  0.44645  1.0000
  H   H6        1.0  0.72749  0.73404  0.05363  1.0000
  H   H7        1.0  0.48529  0.23458  0.55356  1.0000
  H   H8        1.0  0.27247  0.26597  0.94636  1.0000
  H   H9        1.0  0.49730  0.80501  0.56030  1.0000
  H   H10       1.0  0.86299  0.69465  0.93967  1.0000
  H   H11       1.0  0.50271  0.19498  0.43970  1.0000
  H   H12       1.0  0.13698  0.30536  0.06033  1.0000
  H   H13       1.0  0.10057  0.54799  0.82104  1.0000
  H   H14       1.0  0.47105  0.95179  0.67913  1.0000
  H   H15       1.0  0.89943  0.45201  0.17897  1.0000
  H   H16       1.0  0.52896  0.04822  0.32088  1.0000
  H   H17       1.0  0.84878  0.57716  0.74853  1.0000
  H   H18       1.0  0.17557  0.92271  0.75157  1.0000
  H   H19       1.0  0.15122  0.42284  0.25148  1.0000
  H   H20       1.0  0.82444  0.07730  0.24841  1.0000
  H   H21       1.0  0.99532  0.71443  0.75221  1.0000
  H   H22       1.0  0.46311  0.78550  0.74810  1.0000
  H   H23       1.0  0.00472  0.28556  0.24780  1.0000
  H   H24       1.0  0.53692  0.21450  0.25188  1.0000
  C   C1        1.0  0.39999  0.82781  0.49865  1.0000
  C   C2        1.0  0.72687  0.67188  0.00136  1.0000
  C   C3        1.0  0.60004  0.17217  0.50135  1.0000
  C   C4        1.0  0.27313  0.32813  0.99864  1.0000
  C   C5        1.0  0.02737  0.60253  0.75620  1.0000
  C   C6        1.0  0.38721  0.89736  0.74397  1.0000
  C   C7        1.0  0.97264  0.39747  0.24380  1.0000
  C   C8        1.0  0.61279  0.10263  0.25602  1.0000
  S   S1        1.0  0.09669  0.78576  0.53051  1.0000
  S   S2        1.0  0.41304  0.71436  0.96965  1.0000
  S   S3        1.0  0.90332  0.21424  0.46950  1.0000
  S   S4        1.0  0.58696  0.28563  0.03035  1.0000
  S   S5        1.0  0.26886  0.54737  0.66452  1.0000
  S   S6        1.0  0.48133  0.95277  0.83565  1.0000
  S   S7        1.0  0.73115  0.45266  0.33548  1.0000
  S   S8        1.0  0.51866  0.04723  0.16435  1.0000
  N   N1        1.0  0.15576  0.61802  0.56721  1.0000
  N   N2        1.0  0.34159  0.88215  0.93301  1.0000
  N   N3        1.0  0.84421  0.38198  0.43280  1.0000
  N   N4        1.0  0.65837  0.11786  0.06699  1.0000
  O   O1        1.0  0.98134  0.80453  0.44615  1.0000
  O   O2        1.0  0.23214  0.69580  0.05408  1.0000
  O   O3        1.0  0.01870  0.19547  0.55386  1.0000
  O   O4        1.0  0.76782  0.30421  0.94591  1.0000
  O   O5        1.0  0.94897  0.86382  0.60303  1.0000
  O   O6        1.0  0.41559  0.63642  0.89713  1.0000
  O   O7        1.0  0.05104  0.13618  0.39698  1.0000
  O   O8        1.0  0.58441  0.36359  0.10286  1.0000
  O   O9        1.0  0.29801  0.39866  0.67022  1.0000
  O   O10       1.0  0.36680  0.10139  0.82988  1.0000
  O   O11       1.0  0.70196  0.60131  0.32978  1.0000
  O   O12       1.0  0.63318  0.89862  0.17011  1.0000
  O   O13       1.0  0.50117  0.58998  0.67068  1.0000
  O   O14       1.0  0.76242  0.91039  0.82954  1.0000
  O   O15       1.0  0.49885  0.41001  0.32932  1.0000
  O   O16       1.0  0.23756  0.08962  0.17046  1.0000
