data_image0
_chemical_formula_structural       Tl4H16C28S8N4O8
_chemical_formula_sum              "Tl4 H16 C28 S8 N4 O8"
_cell_length_a       7.8015
_cell_length_b       10.7284
_cell_length_c       11.2185
_cell_angle_alpha    90
_cell_angle_beta     104.955
_cell_angle_gamma    90.0006

_space_group_name_H-M_alt    "P 1"
_space_group_IT_number       1

loop_
  _space_group_symop_operation_xyz
  'x, y, z'

loop_
  _atom_site_type_symbol
  _atom_site_label
  _atom_site_symmetry_multiplicity
  _atom_site_fract_x
  _atom_site_fract_y
  _atom_site_fract_z
  _atom_site_occupancy
  Tl  Tl1       1.0  0.32746  0.36956  0.37006  1.0000
  Tl  Tl2       1.0  0.82746  0.13044  0.37006  1.0000
  Tl  Tl3       1.0  0.67254  0.63045  0.62994  1.0000
  Tl  Tl4       1.0  0.17254  0.86956  0.62994  1.0000
  H   H1        1.0  0.15424  0.50551  0.99553  1.0000
  H   H2        1.0  0.65424  0.99449  0.99553  1.0000
  H   H3        1.0  0.84576  0.49449  0.00447  1.0000
  H   H4        1.0  0.34576  0.00550  0.00447  1.0000
  H   H5        1.0  0.07963  0.31124  0.09732  1.0000
  H   H6        1.0  0.57962  0.18876  0.09732  1.0000
  H   H7        1.0  0.92037  0.68876  0.90268  1.0000
  H   H8        1.0  0.42037  0.81124  0.90268  1.0000
  H   H9        1.0  0.06417  0.10899  0.99343  1.0000
  H   H10       1.0  0.56417  0.39101  0.99344  1.0000
  H   H11       1.0  0.93583  0.89101  0.00656  1.0000
  H   H12       1.0  0.43582  0.60898  0.00656  1.0000
  H   H13       1.0  0.12281  0.09119  0.78468  1.0000
  H   H14       1.0  0.62282  0.40881  0.78468  1.0000
  H   H15       1.0  0.87718  0.90881  0.21532  1.0000
  H   H16       1.0  0.37718  0.59119  0.21532  1.0000
  C   C1        1.0  0.17406  0.40315  0.83334  1.0000
  C   C2        1.0  0.67406  0.09685  0.83334  1.0000
  C   C3        1.0  0.82594  0.59685  0.16666  1.0000
  C   C4        1.0  0.32594  0.90315  0.16666  1.0000
  C   C5        1.0  0.14605  0.41532  0.94993  1.0000
  C   C6        1.0  0.64605  0.08468  0.94992  1.0000
  C   C7        1.0  0.85395  0.58468  0.05007  1.0000
  C   C8        1.0  0.35395  0.91531  0.05008  1.0000
  C   C9        1.0  0.10622  0.30669  0.00664  1.0000
  C   C10       1.0  0.60622  0.19331  0.00663  1.0000
  C   C11       1.0  0.89378  0.69331  0.99336  1.0000
  C   C12       1.0  0.39378  0.80668  0.99336  1.0000
  C   C13       1.0  0.09770  0.19126  0.94740  1.0000
  C   C14       1.0  0.59770  0.30874  0.94741  1.0000
  C   C15       1.0  0.90230  0.80874  0.05259  1.0000
  C   C16       1.0  0.40229  0.69125  0.05260  1.0000
  C   C17       1.0  0.13018  0.18094  0.83096  1.0000
  C   C18       1.0  0.63018  0.31906  0.83096  1.0000
  C   C19       1.0  0.86982  0.81906  0.16904  1.0000
  C   C20       1.0  0.36982  0.68094  0.16904  1.0000
  C   C21       1.0  0.16785  0.28854  0.77322  1.0000
  C   C22       1.0  0.66785  0.21146  0.77322  1.0000
  C   C23       1.0  0.83215  0.71146  0.22678  1.0000
  C   C24       1.0  0.33215  0.78854  0.22679  1.0000
  C   C25       1.0  0.20758  0.30293  0.65079  1.0000
  C   C26       1.0  0.70758  0.19707  0.65079  1.0000
  C   C27       1.0  0.79242  0.69707  0.34921  1.0000
  C   C28       1.0  0.29242  0.80293  0.34921  1.0000
  S   S1        1.0  0.22017  0.51778  0.73184  1.0000
  S   S2        1.0  0.72017  0.98222  0.73183  1.0000
  S   S3        1.0  0.77983  0.48222  0.26816  1.0000
  S   S4        1.0  0.27984  0.01778  0.26817  1.0000
  S   S5        1.0  0.22765  0.17936  0.56181  1.0000
  S   S6        1.0  0.72765  0.32065  0.56180  1.0000
  S   S7        1.0  0.77236  0.82065  0.43819  1.0000
  S   S8        1.0  0.27236  0.67935  0.43820  1.0000
  N   N1        1.0  0.23556  0.42058  0.62124  1.0000
  N   N2        1.0  0.73556  0.07942  0.62124  1.0000
  N   N3        1.0  0.76444  0.57942  0.37876  1.0000
  N   N4        1.0  0.26445  0.92058  0.37876  1.0000
  O   O1        1.0  0.39044  0.57882  0.78258  1.0000
  O   O2        1.0  0.89044  0.92119  0.78258  1.0000
  O   O3        1.0  0.60956  0.42118  0.21742  1.0000
  O   O4        1.0  0.10956  0.07881  0.21742  1.0000
  O   O5        1.0  0.07018  0.60258  0.69240  1.0000
  O   O6        1.0  0.57018  0.89742  0.69240  1.0000
  O   O7        1.0  0.92982  0.39742  0.30760  1.0000
  O   O8        1.0  0.42982  0.10258  0.30760  1.0000
