data_image0
_chemical_formula_structural       Ag4H32C36N8O8
_chemical_formula_sum              "Ag4 H32 C36 N8 O8"
_cell_length_a       5.77108
_cell_length_b       8.05773
_cell_length_c       18.4839
_cell_angle_alpha    90.4837
_cell_angle_beta     89.9996
_cell_angle_gamma    89.9999

_space_group_name_H-M_alt    "P 1"
_space_group_IT_number       1

loop_
  _space_group_symop_operation_xyz
  'x, y, z'

loop_
  _atom_site_type_symbol
  _atom_site_label
  _atom_site_symmetry_multiplicity
  _atom_site_fract_x
  _atom_site_fract_y
  _atom_site_fract_z
  _atom_site_occupancy
  Ag  Ag1       1.0  0.71499  0.03491  0.93187  1.0000
  Ag  Ag2       1.0  0.78502  0.53491  0.43188  1.0000
  Ag  Ag3       1.0  0.28506  0.96511  0.06813  1.0000
  Ag  Ag4       1.0  0.21498  0.46509  0.56812  1.0000
  H   H1        1.0  0.66395  0.14659  0.80650  1.0000
  H   H2        1.0  0.83604  0.64656  0.30650  1.0000
  H   H3        1.0  0.33605  0.85342  0.19351  1.0000
  H   H4        1.0  0.16393  0.35342  0.69350  1.0000
  H   H5        1.0  0.78635  0.16179  0.71884  1.0000
  H   H6        1.0  0.71364  0.66177  0.21885  1.0000
  H   H7        1.0  0.21362  0.83821  0.28116  1.0000
  H   H8        1.0  0.28635  0.33821  0.78116  1.0000
  H   H9        1.0  0.13930  0.03347  0.68659  1.0000
  H   H10       1.0  0.36068  0.53347  0.18661  1.0000
  H   H11       1.0  0.86064  0.96651  0.31340  1.0000
  H   H12       1.0  0.63931  0.46653  0.81340  1.0000
  H   H13       1.0  0.47397  0.85537  0.72442  1.0000
  H   H14       1.0  0.02602  0.35535  0.22444  1.0000
  H   H15       1.0  0.52599  0.14463  0.27556  1.0000
  H   H16       1.0  0.97397  0.64463  0.77556  1.0000
  H   H17       1.0  0.48256  0.74751  0.85252  1.0000
  H   H18       1.0  0.01748  0.24749  0.35254  1.0000
  H   H19       1.0  0.51748  0.25250  0.14746  1.0000
  H   H20       1.0  0.98254  0.75249  0.64746  1.0000
  H   H21       1.0  0.15810  0.82166  0.93498  1.0000
  H   H22       1.0  0.34194  0.32163  0.43499  1.0000
  H   H23       1.0  0.84197  0.17837  0.06501  1.0000
  H   H24       1.0  0.65806  0.67834  0.56501  1.0000
  H   H25       1.0  0.94659  0.38347  0.87603  1.0000
  H   H26       1.0  0.55342  0.88347  0.37603  1.0000
  H   H27       1.0  0.05341  0.61652  0.12397  1.0000
  H   H28       1.0  0.44657  0.11654  0.62397  1.0000
  H   H29       1.0  0.34771  0.42081  0.07092  1.0000
  H   H30       1.0  0.15228  0.92083  0.57092  1.0000
  H   H31       1.0  0.65229  0.57919  0.92908  1.0000
  H   H32       1.0  0.84772  0.07919  0.42909  1.0000
  C   C1        1.0  0.97367  0.02283  0.79075  1.0000
  C   C2        1.0  0.52637  0.52283  0.29077  1.0000
  C   C3        1.0  0.02633  0.97717  0.20924  1.0000
  C   C4        1.0  0.47366  0.47717  0.70924  1.0000
  C   C5        1.0  0.15264  0.98353  0.74094  1.0000
  C   C6        1.0  0.34736  0.48351  0.24095  1.0000
  C   C7        1.0  0.84735  0.01647  0.25905  1.0000
  C   C8        1.0  0.65265  0.51647  0.75906  1.0000
  C   C9        1.0  0.33550  0.88563  0.76238  1.0000
  C   C10       1.0  0.16449  0.38560  0.26240  1.0000
  C   C11       1.0  0.66447  0.11438  0.23761  1.0000
  C   C12       1.0  0.83550  0.61437  0.73761  1.0000
  C   C13       1.0  0.34204  0.82551  0.83359  1.0000
  C   C14       1.0  0.15795  0.32549  0.33361  1.0000
  C   C15       1.0  0.65797  0.17450  0.16639  1.0000
  C   C16       1.0  0.84204  0.67449  0.66639  1.0000
  C   C17       1.0  0.16161  0.86649  0.87953  1.0000
  C   C18       1.0  0.33842  0.36648  0.37953  1.0000
  C   C19       1.0  0.83843  0.13352  0.12046  1.0000
  C   C20       1.0  0.66158  0.63351  0.62046  1.0000
  C   C21       1.0  0.34232  0.27405  0.93934  1.0000
  C   C22       1.0  0.15769  0.77404  0.43934  1.0000
  C   C23       1.0  0.65769  0.72597  0.06066  1.0000
  C   C24       1.0  0.84232  0.22596  0.56067  1.0000
  C   C25       1.0  0.16470  0.39026  0.97052  1.0000
  C   C26       1.0  0.33530  0.89025  0.47053  1.0000
  C   C27       1.0  0.83532  0.60974  0.02948  1.0000
  C   C28       1.0  0.66470  0.10975  0.52949  1.0000
  C   C29       1.0  0.19374  0.45568  0.04052  1.0000
  C   C30       1.0  0.30625  0.95569  0.54052  1.0000
  C   C31       1.0  0.80628  0.54432  0.95948  1.0000
  C   C32       1.0  0.69373  0.04432  0.45949  1.0000
  C   C33       1.0  0.96921  0.43550  0.93017  1.0000
  C   C34       1.0  0.53078  0.93551  0.43018  1.0000
  C   C35       1.0  0.03080  0.56449  0.06982  1.0000
  C   C36       1.0  0.46919  0.06451  0.56983  1.0000
  N   N1        1.0  0.98080  0.96261  0.85942  1.0000
  N   N2        1.0  0.51921  0.46258  0.35943  1.0000
  N   N3        1.0  0.01922  0.03741  0.14058  1.0000
  N   N4        1.0  0.48078  0.53740  0.64057  1.0000
  N   N5        1.0  0.79516  0.12056  0.77111  1.0000
  N   N6        1.0  0.70486  0.62055  0.27112  1.0000
  N   N7        1.0  0.20483  0.87943  0.22889  1.0000
  N   N8        1.0  0.29514  0.37945  0.72888  1.0000
  O   O1        1.0  0.45725  0.18765  0.98592  1.0000
  O   O2        1.0  0.04276  0.68765  0.48592  1.0000
  O   O3        1.0  0.54278  0.81237  0.01408  1.0000
  O   O4        1.0  0.95723  0.31236  0.51408  1.0000
  O   O5        1.0  0.37372  0.26605  0.87199  1.0000
  O   O6        1.0  0.12628  0.76605  0.37200  1.0000
  O   O7        1.0  0.62629  0.73396  0.12801  1.0000
  O   O8        1.0  0.87372  0.23396  0.62801  1.0000
