data_image0
_chemical_formula_structural       Mn2H14C14N2O12
_chemical_formula_sum              "Mn2 H14 C14 N2 O12"
_cell_length_a       6.9219
_cell_length_b       7.68918
_cell_length_c       9.32289
_cell_angle_alpha    69.8877
_cell_angle_beta     69.2396
_cell_angle_gamma    77.6281

_space_group_name_H-M_alt    "P 1"
_space_group_IT_number       1

loop_
  _space_group_symop_operation_xyz
  'x, y, z'

loop_
  _atom_site_type_symbol
  _atom_site_label
  _atom_site_symmetry_multiplicity
  _atom_site_fract_x
  _atom_site_fract_y
  _atom_site_fract_z
  _atom_site_occupancy
  Mn  Mn1       1.0  0.96700  0.23179  0.75186  1.0000
  Mn  Mn2       1.0  0.03300  0.76820  0.24815  1.0000
  H   H1        1.0  0.24994  0.46284  0.73425  1.0000
  H   H2        1.0  0.75005  0.53716  0.26577  1.0000
  H   H3        1.0  0.13210  0.54619  0.60281  1.0000
  H   H4        1.0  0.86790  0.45381  0.39720  1.0000
  H   H5        1.0  0.00439  0.29293  0.02206  1.0000
  H   H6        1.0  0.99561  0.70708  0.97793  1.0000
  H   H7        1.0  0.84009  0.44602  0.94793  1.0000
  H   H8        1.0  0.15990  0.55399  0.05207  1.0000
  H   H9        1.0  0.36992  0.10774  0.85184  1.0000
  H   H10       1.0  0.63006  0.89226  0.14816  1.0000
  H   H11       1.0  0.44045  0.69086  0.53495  1.0000
  H   H12       1.0  0.55957  0.30913  0.46505  1.0000
  H   H13       1.0  0.12547  0.91762  0.59207  1.0000
  H   H14       1.0  0.87454  0.08237  0.40793  1.0000
  C   C1        1.0  0.38704  0.01097  0.78500  1.0000
  C   C2        1.0  0.61296  0.98903  0.21500  1.0000
  C   C3        1.0  0.56351  0.88265  0.76573  1.0000
  C   C4        1.0  0.43650  0.11735  0.23427  1.0000
  C   C5        1.0  0.58346  0.76440  0.67451  1.0000
  C   C6        1.0  0.41655  0.23560  0.32548  1.0000
  C   C7        1.0  0.42460  0.77692  0.61076  1.0000
  C   C8        1.0  0.57541  0.22308  0.38924  1.0000
  C   C9        1.0  0.25188  0.90504  0.64012  1.0000
  C   C10       1.0  0.74812  0.09495  0.35987  1.0000
  C   C11       1.0  0.72471  0.87635  0.84124  1.0000
  C   C12       1.0  0.27530  0.12366  0.15876  1.0000
  C   C13       1.0  0.77443  0.63159  0.63884  1.0000
  C   C14       1.0  0.22556  0.36838  0.36118  1.0000
  N   N1        1.0  0.23325  0.02187  0.72517  1.0000
  N   N2        1.0  0.76675  0.97813  0.27482  1.0000
  O   O1        1.0  0.76025  0.03263  0.84058  1.0000
  O   O2        1.0  0.23973  0.96737  0.15942  1.0000
  O   O3        1.0  0.81080  0.71823  0.90334  1.0000
  O   O4        1.0  0.18919  0.28177  0.09666  1.0000
  O   O5        1.0  0.94426  0.70015  0.54771  1.0000
  O   O6        1.0  0.05578  0.29986  0.45227  1.0000
  O   O7        1.0  0.74848  0.46031  0.70215  1.0000
  O   O8        1.0  0.25154  0.53972  0.29783  1.0000
  O   O9        1.0  0.21602  0.43231  0.65344  1.0000
  O   O10       1.0  0.78398  0.56770  0.34656  1.0000
  O   O11       1.0  0.89393  0.31333  0.96874  1.0000
  O   O12       1.0  0.10604  0.68667  0.03127  1.0000
