data_image0
_chemical_formula_structural       Zn3H26C42N4O14
_chemical_formula_sum              "Zn3 H26 C42 N4 O14"
_cell_length_a       7.80941
_cell_length_b       10.6613
_cell_length_c       12.0123
_cell_angle_alpha    88.9108
_cell_angle_beta     78.4634
_cell_angle_gamma    68.7113

_space_group_name_H-M_alt    "P 1"
_space_group_IT_number       1

loop_
  _space_group_symop_operation_xyz
  'x, y, z'

loop_
  _atom_site_type_symbol
  _atom_site_label
  _atom_site_symmetry_multiplicity
  _atom_site_fract_x
  _atom_site_fract_y
  _atom_site_fract_z
  _atom_site_occupancy
  Zn  Zn1       1.0  0.50000  0.50000  0.50000  1.0000
  Zn  Zn2       1.0  0.81172  0.73410  0.71745  1.0000
  Zn  Zn3       1.0  0.18827  0.26590  0.28255  1.0000
  H   H1        1.0  0.48798  0.64980  0.65570  1.0000
  H   H2        1.0  0.51202  0.35020  0.34430  1.0000
  H   H3        1.0  0.27227  0.66865  0.68170  1.0000
  H   H4        1.0  0.72773  0.33135  0.31830  1.0000
  H   H5        1.0  0.70143  0.39341  0.14807  1.0000
  H   H6        1.0  0.29858  0.60659  0.85193  1.0000
  H   H7        1.0  0.43307  0.98697  0.84156  1.0000
  H   H8        1.0  0.56693  0.01304  0.15844  1.0000
  H   H9        1.0  0.24301  0.84398  0.16460  1.0000
  H   H10       1.0  0.75699  0.15602  0.83540  1.0000
  H   H11       1.0  0.19906  0.02721  0.02752  1.0000
  H   H12       1.0  0.80094  0.97279  0.97248  1.0000
  H   H13       1.0  0.43760  0.60705  0.21124  1.0000
  H   H14       1.0  0.56241  0.39295  0.78876  1.0000
  H   H15       1.0  0.19243  0.24227  0.80851  1.0000
  H   H16       1.0  0.80757  0.75773  0.19149  1.0000
  H   H17       1.0  0.98116  0.25543  0.00197  1.0000
  H   H18       1.0  0.01884  0.74457  0.99803  1.0000
  H   H19       1.0  0.12546  0.44498  0.69327  1.0000
  H   H20       1.0  0.87455  0.55502  0.30673  1.0000
  H   H21       1.0  0.34116  0.90350  0.69717  1.0000
  H   H22       1.0  0.65883  0.09650  0.30283  1.0000
  H   H23       1.0  0.80817  0.14286  0.61991  1.0000
  H   H24       1.0  0.19183  0.85714  0.38009  1.0000
  H   H25       1.0  0.47762  0.06713  0.60630  1.0000
  H   H26       1.0  0.52238  0.93287  0.39370  1.0000
  C   C1        1.0  0.61470  0.69252  0.94620  1.0000
  C   C2        1.0  0.38530  0.30748  0.05380  1.0000
  C   C3        1.0  0.67549  0.47689  0.09234  1.0000
  C   C4        1.0  0.32451  0.52311  0.90766  1.0000
  C   C5        1.0  0.44520  0.90863  0.90247  1.0000
  C   C6        1.0  0.55480  0.09137  0.09753  1.0000
  C   C7        1.0  0.33984  0.82971  0.08267  1.0000
  C   C8        1.0  0.66016  0.17029  0.91733  1.0000
  C   C9        1.0  0.31545  0.93075  0.00667  1.0000
  C   C10       1.0  0.68455  0.06925  0.99333  1.0000
  C   C11       1.0  0.52831  0.59568  0.12713  1.0000
  C   C12       1.0  0.47169  0.40432  0.87287  1.0000
  C   C13       1.0  0.07132  0.33276  0.84154  1.0000
  C   C14       1.0  0.92868  0.66724  0.15846  1.0000
  C   C15       1.0  0.49303  0.70597  0.05416  1.0000
  C   C16       1.0  0.50698  0.29404  0.94584  1.0000
  C   C17       1.0  0.95592  0.33968  0.94645  1.0000
  C   C18       1.0  0.04408  0.66032  0.05355  1.0000
  C   C19       1.0  0.03403  0.44603  0.77497  1.0000
  C   C20       1.0  0.96597  0.55397  0.22503  1.0000
  C   C21       1.0  0.80063  0.46019  0.98454  1.0000
  C   C22       1.0  0.19937  0.53981  0.01546  1.0000
  C   C23       1.0  0.77191  0.56840  0.91151  1.0000
  C   C24       1.0  0.22809  0.43160  0.08848  1.0000
  C   C25       1.0  0.90067  0.33188  0.50954  1.0000
  C   C26       1.0  0.09933  0.66811  0.49046  1.0000
  C   C27       1.0  0.22278  0.19280  0.55459  1.0000
  C   C28       1.0  0.77722  0.80720  0.44541  1.0000
  C   C29       1.0  0.98920  0.90832  0.71463  1.0000
  C   C30       1.0  0.01079  0.09168  0.28537  1.0000
  C   C31       1.0  0.25436  0.99228  0.66097  1.0000
  C   C32       1.0  0.74564  0.00772  0.33903  1.0000
  C   C33       1.0  0.95546  0.12528  0.61683  1.0000
  C   C34       1.0  0.04454  0.87473  0.38318  1.0000
  C   C35       1.0  0.33087  0.08290  0.60837  1.0000
  C   C36       1.0  0.66912  0.91710  0.39163  1.0000
  C   C37       1.0  0.32361  0.28038  0.49599  1.0000
  C   C38       1.0  0.67639  0.71962  0.50401  1.0000
  C   C39       1.0  0.03163  0.21550  0.56092  1.0000
  C   C40       1.0  0.96837  0.78450  0.43908  1.0000
  C   C41       1.0  0.06578  0.01198  0.66484  1.0000
  C   C42       1.0  0.93421  0.98802  0.33517  1.0000
  N   N1        1.0  0.58997  0.79287  0.87289  1.0000
  N   N2        1.0  0.41003  0.20714  0.12710  1.0000
  N   N3        1.0  0.88805  0.56034  0.80922  1.0000
  N   N4        1.0  0.11195  0.43966  0.19078  1.0000
  O   O1        1.0  0.82642  0.91904  0.69785  1.0000
  O   O2        1.0  0.17358  0.08096  0.30215  1.0000
  O   O3        1.0  0.08652  0.81330  0.76668  1.0000
  O   O4        1.0  0.91348  0.18670  0.23332  1.0000
  O   O5        1.0  0.73373  0.38400  0.56688  1.0000
  O   O6        1.0  0.26627  0.61600  0.43312  1.0000
  O   O7        1.0  0.95918  0.36886  0.41261  1.0000
  O   O8        1.0  0.04082  0.63114  0.58739  1.0000
  O   O9        1.0  0.35990  0.27713  0.38598  1.0000
  O   O10       1.0  0.64010  0.72287  0.61402  1.0000
  O   O11       1.0  0.38012  0.34430  0.55757  1.0000
  O   O12       1.0  0.61988  0.65570  0.44243  1.0000
  O   O13       1.0  0.40026  0.59968  0.66116  1.0000
  O   O14       1.0  0.59973  0.40032  0.33884  1.0000
