data_image0
_chemical_formula_structural       Gd2H20C16S2O20
_chemical_formula_sum              "Gd2 H20 C16 S2 O20"
_cell_length_a       7.73602
_cell_length_b       8.41497
_cell_length_c       10.6041
_cell_angle_alpha    71.7597
_cell_angle_beta     89.6282
_cell_angle_gamma    69.297

_space_group_name_H-M_alt    "P 1"
_space_group_IT_number       1

loop_
  _space_group_symop_operation_xyz
  'x, y, z'

loop_
  _atom_site_type_symbol
  _atom_site_label
  _atom_site_symmetry_multiplicity
  _atom_site_fract_x
  _atom_site_fract_y
  _atom_site_fract_z
  _atom_site_occupancy
  Gd  Gd1       1.0  0.82122  0.29336  0.37574  1.0000
  Gd  Gd2       1.0  0.17878  0.70664  0.62426  1.0000
  H   H1        1.0  0.40865  0.38409  0.37745  1.0000
  H   H2        1.0  0.59136  0.61590  0.62255  1.0000
  H   H3        1.0  0.41863  0.57177  0.37536  1.0000
  H   H4        1.0  0.58137  0.42822  0.62464  1.0000
  H   H5        1.0  0.53075  0.43587  0.14179  1.0000
  H   H6        1.0  0.46926  0.56412  0.85821  1.0000
  H   H7        1.0  0.70347  0.45534  0.06297  1.0000
  H   H8        1.0  0.29654  0.54466  0.93703  1.0000
  H   H9        1.0  0.55879  0.10332  0.35921  1.0000
  H   H10       1.0  0.44121  0.89668  0.64079  1.0000
  H   H11       1.0  0.76270  0.94482  0.41834  1.0000
  H   H12       1.0  0.23730  0.05518  0.58166  1.0000
  H   H13       1.0  0.26118  0.33044  0.92315  1.0000
  H   H14       1.0  0.73882  0.66956  0.07685  1.0000
  H   H15       1.0  0.27965  0.12482  0.79891  1.0000
  H   H16       1.0  0.72035  0.87519  0.20109  1.0000
  H   H17       1.0  0.25862  0.82602  0.91520  1.0000
  H   H18       1.0  0.74138  0.17398  0.08480  1.0000
  H   H19       1.0  0.22041  0.73725  0.15702  1.0000
  H   H20       1.0  0.77958  0.26276  0.84298  1.0000
  C   C1        1.0  0.17684  0.92760  0.32020  1.0000
  C   C2        1.0  0.82315  0.07241  0.67980  1.0000
  C   C3        1.0  0.21401  0.98549  0.17782  1.0000
  C   C4        1.0  0.78598  0.01451  0.82218  1.0000
  C   C5        1.0  0.22414  0.15502  0.11000  1.0000
  C   C6        1.0  0.77586  0.84498  0.89000  1.0000
  C   C7        1.0  0.25004  0.20196  0.97491  1.0000
  C   C8        1.0  0.74996  0.79805  0.02509  1.0000
  C   C9        1.0  0.26161  0.08428  0.90473  1.0000
  C   C10       1.0  0.73838  0.91573  0.09527  1.0000
  C   C11       1.0  0.25084  0.91727  0.97032  1.0000
  C   C12       1.0  0.74915  0.08273  0.02968  1.0000
  C   C13       1.0  0.22977  0.86766  0.10609  1.0000
  C   C14       1.0  0.77022  0.13235  0.89390  1.0000
  C   C15       1.0  0.08386  0.41166  0.53594  1.0000
  C   C16       1.0  0.91613  0.58833  0.46406  1.0000
  S   S1        1.0  0.21218  0.31433  0.19196  1.0000
  S   S2        1.0  0.78782  0.68566  0.80804  1.0000
  O   O1        1.0  0.05741  0.03980  0.36376  1.0000
  O   O2        1.0  0.94259  0.96020  0.63624  1.0000
  O   O3        1.0  0.26130  0.76431  0.39449  1.0000
  O   O4        1.0  0.73869  0.23568  0.60551  1.0000
  O   O5        1.0  0.01588  0.40044  0.21101  1.0000
  O   O6        1.0  0.98413  0.59956  0.78900  1.0000
  O   O7        1.0  0.33078  0.21503  0.32081  1.0000
  O   O8        1.0  0.66923  0.78495  0.67920  1.0000
  O   O9        1.0  0.28121  0.44743  0.10329  1.0000
  O   O10       1.0  0.71880  0.55256  0.89672  1.0000
  O   O11       1.0  0.07799  0.27029  0.52005  1.0000
  O   O12       1.0  0.92201  0.72971  0.47996  1.0000
  O   O13       1.0  0.21150  0.42210  0.60279  1.0000
  O   O14       1.0  0.78851  0.57789  0.39721  1.0000
  O   O15       1.0  0.49156  0.45093  0.36916  1.0000
  O   O16       1.0  0.50844  0.54907  0.63084  1.0000
  O   O17       1.0  0.66471  0.41260  0.15257  1.0000
  O   O18       1.0  0.33530  0.58740  0.84743  1.0000
  O   O19       1.0  0.69281  0.07691  0.37879  1.0000
  O   O20       1.0  0.30719  0.92309  0.62122  1.0000
