data_image0
_chemical_formula_structural       Cd8H12C8S4N12O20
_chemical_formula_sum              "Cd8 H12 C8 S4 N12 O20"
_cell_length_a       6.85976
_cell_length_b       10.1725
_cell_length_c       12.4024
_cell_angle_alpha    110.454
_cell_angle_beta     90.0031
_cell_angle_gamma    109.708

_space_group_name_H-M_alt    "P 1"
_space_group_IT_number       1

loop_
  _space_group_symop_operation_xyz
  'x, y, z'

loop_
  _atom_site_type_symbol
  _atom_site_label
  _atom_site_symmetry_multiplicity
  _atom_site_fract_x
  _atom_site_fract_y
  _atom_site_fract_z
  _atom_site_occupancy
  Cd  Cd1       1.0  0.80525  0.91868  0.59946  1.0000
  Cd  Cd2       1.0  0.88645  0.08134  0.90058  1.0000
  Cd  Cd3       1.0  0.19475  0.08132  0.40054  1.0000
  Cd  Cd4       1.0  0.11355  0.91866  0.09942  1.0000
  Cd  Cd5       1.0  0.59725  0.21914  0.71711  1.0000
  Cd  Cd6       1.0  0.37809  0.78081  0.78292  1.0000
  Cd  Cd7       1.0  0.40275  0.78086  0.28289  1.0000
  Cd  Cd8       1.0  0.62191  0.21919  0.21708  1.0000
  H   H1        1.0  0.55650  0.49767  0.18023  1.0000
  H   H2        1.0  0.05917  0.50232  0.31972  1.0000
  H   H3        1.0  0.44350  0.50233  0.81978  1.0000
  H   H4        1.0  0.94083  0.49768  0.68027  1.0000
  H   H5        1.0  0.76270  0.54015  0.51304  1.0000
  H   H6        1.0  0.22246  0.46002  0.98688  1.0000
  H   H7        1.0  0.23731  0.45986  0.48697  1.0000
  H   H8        1.0  0.77754  0.53998  0.01312  1.0000
  H   H9        1.0  0.79530  0.78343  0.76483  1.0000
  H   H10       1.0  0.01185  0.21659  0.73526  1.0000
  H   H11       1.0  0.20470  0.21657  0.23517  1.0000
  H   H12       1.0  0.98816  0.78341  0.26474  1.0000
  C   C1        1.0  0.60834  0.54317  0.27271  1.0000
  C   C2        1.0  0.06539  0.45683  0.22722  1.0000
  C   C3        1.0  0.39165  0.45683  0.72729  1.0000
  C   C4        1.0  0.93461  0.54317  0.77278  1.0000
  C   C5        1.0  0.70979  0.56297  0.44142  1.0000
  C   C6        1.0  0.14684  0.43715  0.05850  1.0000
  C   C7        1.0  0.29021  0.43703  0.55858  1.0000
  C   C8        1.0  0.85316  0.56286  0.94150  1.0000
  S   S1        1.0  0.74555  0.13984  0.43836  1.0000
  S   S2        1.0  0.60584  0.86014  0.06162  1.0000
  S   S3        1.0  0.25445  0.86016  0.56164  1.0000
  S   S4        1.0  0.39416  0.13986  0.93838  1.0000
  N   N1        1.0  0.65745  0.46471  0.32990  1.0000
  N   N2        1.0  0.19285  0.53535  0.17004  1.0000
  N   N3        1.0  0.34255  0.53529  0.67010  1.0000
  N   N4        1.0  0.80715  0.46465  0.82996  1.0000
  N   N5        1.0  0.69149  0.69346  0.45232  1.0000
  N   N6        1.0  0.99805  0.30664  0.04760  1.0000
  N   N7        1.0  0.30851  0.30654  0.54768  1.0000
  N   N8        1.0  0.00195  0.69336  0.95240  1.0000
  N   N9        1.0  0.62637  0.68103  0.34336  1.0000
  N   N10       1.0  0.94548  0.31900  0.15656  1.0000
  N   N11       1.0  0.37363  0.31898  0.65664  1.0000
  N   N12       1.0  0.05452  0.68100  0.84344  1.0000
  O   O1        1.0  0.75082  0.25885  0.54977  1.0000
  O   O2        1.0  0.49208  0.74115  0.95019  1.0000
  O   O3        1.0  0.24918  0.74115  0.45023  1.0000
  O   O4        1.0  0.50792  0.25885  0.04981  1.0000
  O   O5        1.0  0.84704  0.20679  0.35433  1.0000
  O   O6        1.0  0.64040  0.79317  0.14562  1.0000
  O   O7        1.0  0.15296  0.79321  0.64567  1.0000
  O   O8        1.0  0.35960  0.20683  0.85438  1.0000
  O   O9        1.0  0.85507  0.04144  0.45434  1.0000
  O   O10       1.0  0.81379  0.95856  0.04564  1.0000
  O   O11       1.0  0.14493  0.95856  0.54566  1.0000
  O   O12       1.0  0.18621  0.04144  0.95436  1.0000
  O   O13       1.0  0.52178  0.04029  0.38815  1.0000
  O   O14       1.0  0.48163  0.95966  0.11182  1.0000
  O   O15       1.0  0.47822  0.95971  0.61185  1.0000
  O   O16       1.0  0.51837  0.04034  0.88818  1.0000
  O   O17       1.0  0.73055  0.85272  0.75843  1.0000
  O   O18       1.0  0.87779  0.14727  0.74162  1.0000
  O   O19       1.0  0.26945  0.14728  0.24157  1.0000
  O   O20       1.0  0.12221  0.85273  0.25838  1.0000
