data_image0
_chemical_formula_structural       Gd2H20C16S2O20
_chemical_formula_sum              "Gd2 H20 C16 S2 O20"
_cell_length_a       7.71496
_cell_length_b       8.51226
_cell_length_c       10.5247
_cell_angle_alpha    71.4911
_cell_angle_beta     87.5869
_cell_angle_gamma    67.8566

_space_group_name_H-M_alt    "P 1"
_space_group_IT_number       1

loop_
  _space_group_symop_operation_xyz
  'x, y, z'

loop_
  _atom_site_type_symbol
  _atom_site_label
  _atom_site_symmetry_multiplicity
  _atom_site_fract_x
  _atom_site_fract_y
  _atom_site_fract_z
  _atom_site_occupancy
  Gd  Gd1       1.0  0.67920  0.20576  0.12236  1.0000
  Gd  Gd2       1.0  0.32081  0.79423  0.87764  1.0000
  H   H1        1.0  0.22329  0.37841  0.71250  1.0000
  H   H2        1.0  0.77670  0.62160  0.28750  1.0000
  H   H3        1.0  0.27680  0.76469  0.34845  1.0000
  H   H4        1.0  0.72318  0.23532  0.65154  1.0000
  H   H5        1.0  0.24542  0.17289  0.58759  1.0000
  H   H6        1.0  0.75458  0.82711  0.41241  1.0000
  H   H7        1.0  0.23784  0.67659  0.59333  1.0000
  H   H8        1.0  0.76212  0.32343  0.40666  1.0000
  H   H9        1.0  0.94465  0.38500  0.14049  1.0000
  H   H10       1.0  0.05536  0.61499  0.85951  1.0000
  H   H11       1.0  0.74243  0.54678  0.07785  1.0000
  H   H12       1.0  0.25758  0.45322  0.92214  1.0000
  H   H13       1.0  0.08417  0.92571  0.13415  1.0000
  H   H14       1.0  0.91584  0.07429  0.86585  1.0000
  H   H15       1.0  0.07225  0.11503  0.04521  1.0000
  H   H16       1.0  0.92776  0.88497  0.95480  1.0000
  H   H17       1.0  0.97207  0.06740  0.35050  1.0000
  H   H18       1.0  0.02793  0.93260  0.64951  1.0000
  H   H19       1.0  0.80507  0.03121  0.43409  1.0000
  H   H20       1.0  0.19493  0.96880  0.56591  1.0000
  C   C1        1.0  0.24108  0.41841  0.60530  1.0000
  C   C2        1.0  0.75891  0.58160  0.39470  1.0000
  C   C3        1.0  0.41342  0.08832  0.96837  1.0000
  C   C4        1.0  0.58659  0.91166  0.03164  1.0000
  C   C5        1.0  0.28688  0.51701  0.32910  1.0000
  C   C6        1.0  0.71312  0.48299  0.67090  1.0000
  C   C7        1.0  0.27911  0.34829  0.39804  1.0000
  C   C8        1.0  0.72089  0.65171  0.60196  1.0000
  C   C9        1.0  0.32296  0.57335  0.18450  1.0000
  C   C10       1.0  0.67704  0.42665  0.81550  1.0000
  C   C11       1.0  0.26903  0.63486  0.40071  1.0000
  C   C12       1.0  0.73096  0.36515  0.59928  1.0000
  C   C13       1.0  0.25489  0.30088  0.53500  1.0000
  C   C14       1.0  0.74511  0.69912  0.46500  1.0000
  C   C15       1.0  0.24808  0.58530  0.53822  1.0000
  C   C16       1.0  0.75190  0.41471  0.46178  1.0000
  S   S1        1.0  0.28118  0.19925  0.30971  1.0000
  S   S2        1.0  0.71882  0.80075  0.69029  1.0000
  O   O1        1.0  0.16412  0.31291  0.18385  1.0000
  O   O2        1.0  0.83589  0.68709  0.81615  1.0000
  O   O3        1.0  0.20540  0.07064  0.39703  1.0000
  O   O4        1.0  0.79460  0.92936  0.60297  1.0000
  O   O5        1.0  0.44651  0.46273  0.13854  1.0000
  O   O6        1.0  0.55350  0.53726  0.86146  1.0000
  O   O7        1.0  0.47866  0.10488  0.28624  1.0000
  O   O8        1.0  0.52134  0.89512  0.71376  1.0000
  O   O9        1.0  0.42042  0.22874  0.98100  1.0000
  O   O10       1.0  0.57959  0.77126  0.01900  1.0000
  O   O11       1.0  0.81009  0.41508  0.11552  1.0000
  O   O12       1.0  0.18992  0.58491  0.88448  1.0000
  O   O13       1.0  0.01593  0.05616  0.12105  1.0000
  O   O14       1.0  0.98408  0.94384  0.87895  1.0000
  O   O15       1.0  0.84156  0.07599  0.34226  1.0000
  O   O16       1.0  0.15844  0.92402  0.65775  1.0000
  O   O17       1.0  0.23336  0.73532  0.11004  1.0000
  O   O18       1.0  0.76665  0.26467  0.88996  1.0000
  O   O19       1.0  0.27919  0.07763  0.91048  1.0000
  O   O20       1.0  0.72083  0.92236  0.08952  1.0000
