data_image0
_chemical_formula_structural       Zn2H36C38N8O14
_chemical_formula_sum              "Zn2 H36 C38 N8 O14"
_cell_length_a       8.80302
_cell_length_b       9.8735
_cell_length_c       11.3361
_cell_angle_alpha    83.378
_cell_angle_beta     71.0731
_cell_angle_gamma    81.9666

_space_group_name_H-M_alt    "P 1"
_space_group_IT_number       1

loop_
  _space_group_symop_operation_xyz
  'x, y, z'

loop_
  _atom_site_type_symbol
  _atom_site_label
  _atom_site_symmetry_multiplicity
  _atom_site_fract_x
  _atom_site_fract_y
  _atom_site_fract_z
  _atom_site_occupancy
  Zn  Zn1       1.0  0.37412  0.25514  0.27596  1.0000
  Zn  Zn2       1.0  0.62588  0.74486  0.72405  1.0000
  H   H1        1.0  0.55982  0.41657  0.09545  1.0000
  H   H2        1.0  0.44018  0.58343  0.90455  1.0000
  H   H3        1.0  0.45260  0.35863  0.02642  1.0000
  H   H4        1.0  0.54740  0.64137  0.97358  1.0000
  H   H5        1.0  0.61693  0.37360  0.31546  1.0000
  H   H6        1.0  0.38308  0.62640  0.68453  1.0000
  H   H7        1.0  0.63190  0.21570  0.38098  1.0000
  H   H8        1.0  0.36810  0.78430  0.61902  1.0000
  H   H9        1.0  0.89338  0.85436  0.38548  1.0000
  H   H10       1.0  0.10662  0.14564  0.61452  1.0000
  H   H11       1.0  0.59965  0.08532  0.04483  1.0000
  H   H12       1.0  0.40035  0.91469  0.95517  1.0000
  H   H13       1.0  0.68470  0.83625  0.00844  1.0000
  H   H14       1.0  0.31530  0.16375  0.99156  1.0000
  H   H15       1.0  0.46012  0.74338  0.40298  1.0000
  H   H16       1.0  0.53988  0.25662  0.59702  1.0000
  H   H17       1.0  0.14663  0.04387  0.28802  1.0000
  H   H18       1.0  0.85337  0.95613  0.71198  1.0000
  H   H19       1.0  0.77654  0.98279  0.25158  1.0000
  H   H20       1.0  0.22346  0.01721  0.74842  1.0000
  H   H21       1.0  0.93458  0.91871  0.12036  1.0000
  H   H22       1.0  0.06542  0.08129  0.87964  1.0000
  H   H23       1.0  0.81863  0.19431  0.07905  1.0000
  H   H24       1.0  0.18138  0.80569  0.92095  1.0000
  H   H25       1.0  0.92697  0.41945  0.04788  1.0000
  H   H26       1.0  0.07303  0.58055  0.95212  1.0000
  H   H27       1.0  0.15418  0.44271  0.12778  1.0000
  H   H28       1.0  0.84583  0.55729  0.87222  1.0000
  H   H29       1.0  0.27427  0.36345  0.53611  1.0000
  H   H30       1.0  0.72573  0.63655  0.46389  1.0000
  H   H31       1.0  0.13299  0.57435  0.64075  1.0000
  H   H32       1.0  0.86701  0.42565  0.35925  1.0000
  H   H33       1.0  0.04097  0.77520  0.51391  1.0000
  H   H34       1.0  0.95902  0.22480  0.48609  1.0000
  H   H35       1.0  0.27807  0.54997  0.18833  1.0000
  H   H36       1.0  0.72193  0.45003  0.81167  1.0000
  C   C1        1.0  0.57772  0.76937  0.20327  1.0000
  C   C2        1.0  0.42228  0.23063  0.79673  1.0000
  C   C3        1.0  0.32357  0.00699  0.45302  1.0000
  C   C4        1.0  0.67643  0.99301  0.54698  1.0000
  C   C5        1.0  0.43571  0.95436  0.33118  1.0000
  C   C6        1.0  0.56429  0.04564  0.66882  1.0000
  C   C7        1.0  0.56614  0.00548  0.12063  1.0000
  C   C8        1.0  0.43386  0.99452  0.87937  1.0000
  C   C9        1.0  0.61599  0.86694  0.10167  1.0000
  C   C10       1.0  0.38401  0.13306  0.89833  1.0000
  C   C11       1.0  0.49009  0.81550  0.32092  1.0000
  C   C12       1.0  0.50991  0.18451  0.67908  1.0000
  C   C13       1.0  0.62134  0.61646  0.19066  1.0000
  C   C14       1.0  0.37866  0.38354  0.80934  1.0000
  C   C15       1.0  0.09756  0.12406  0.23200  1.0000
  C   C16       1.0  0.90244  0.87594  0.76800  1.0000
  C   C17       1.0  0.97577  0.09992  0.18613  1.0000
  C   C18       1.0  0.02423  0.90008  0.81387  1.0000
  C   C19       1.0  0.90770  0.96392  0.21020  1.0000
  C   C20       1.0  0.09230  0.03608  0.78980  1.0000
  C   C21       1.0  0.91418  0.20744  0.11707  1.0000
  C   C22       1.0  0.08582  0.79257  0.88293  1.0000
  C   C23       1.0  0.97642  0.33287  0.09764  1.0000
  C   C24       1.0  0.02358  0.66713  0.90236  1.0000
  C   C25       1.0  0.10036  0.34699  0.14491  1.0000
  C   C26       1.0  0.89964  0.65301  0.85509  1.0000
  C   C27       1.0  0.23675  0.45333  0.48294  1.0000
  C   C28       1.0  0.76325  0.54667  0.51706  1.0000
  C   C29       1.0  0.15636  0.57159  0.54077  1.0000
  C   C30       1.0  0.84364  0.42841  0.45923  1.0000
  C   C31       1.0  0.10737  0.68317  0.46954  1.0000
  C   C32       1.0  0.89263  0.31683  0.53046  1.0000
  C   C33       1.0  0.14914  0.67516  0.34027  1.0000
  C   C34       1.0  0.85086  0.32484  0.65973  1.0000
  C   C35       1.0  0.10694  0.78473  0.24987  1.0000
  C   C36       1.0  0.89306  0.21527  0.75013  1.0000
  C   C37       1.0  0.23648  0.55512  0.28937  1.0000
  C   C38       1.0  0.76352  0.44488  0.71063  1.0000
  N   N1        1.0  0.47401  0.04776  0.23252  1.0000
  N   N2        1.0  0.52599  0.95224  0.76748  1.0000
  N   N3        1.0  0.16117  0.24431  0.21130  1.0000
  N   N4        1.0  0.83883  0.75569  0.78870  1.0000
  N   N5        1.0  0.27397  0.44442  0.35886  1.0000
  N   N6        1.0  0.72603  0.55558  0.64114  1.0000
  N   N7        1.0  0.96659  0.86522  0.29405  1.0000
  N   N8        1.0  0.03340  0.13478  0.70595  1.0000
  O   O1        1.0  0.49913  0.33765  0.09686  1.0000
  O   O2        1.0  0.50087  0.66236  0.90314  1.0000
  O   O3        1.0  0.26854  0.13455  0.45098  1.0000
  O   O4        1.0  0.73146  0.86545  0.54902  1.0000
  O   O5        1.0  0.28622  0.92338  0.54733  1.0000
  O   O6        1.0  0.71377  0.07662  0.45267  1.0000
  O   O7        1.0  0.62625  0.57189  0.08755  1.0000
  O   O8        1.0  0.37375  0.42811  0.91245  1.0000
  O   O9        1.0  0.64484  0.54475  0.28360  1.0000
  O   O10       1.0  0.35516  0.45526  0.71640  1.0000
  O   O11       1.0  0.58072  0.28028  0.32773  1.0000
  O   O12       1.0  0.41928  0.71972  0.67227  1.0000
  O   O13       1.0  0.19555  0.79561  0.13906  1.0000
  O   O14       1.0  0.80445  0.20438  0.86094  1.0000
