data_image0
_chemical_formula_structural       Zn4H46C50N10O26
_chemical_formula_sum              "Zn4 H46 C50 N10 O26"
_cell_length_a       7.43531
_cell_length_b       14.1961
_cell_length_c       16.1802
_cell_angle_alpha    73.9358
_cell_angle_beta     76.7082
_cell_angle_gamma    74.8195

_space_group_name_H-M_alt    "P 1"
_space_group_IT_number       1

loop_
  _space_group_symop_operation_xyz
  'x, y, z'

loop_
  _atom_site_type_symbol
  _atom_site_label
  _atom_site_symmetry_multiplicity
  _atom_site_fract_x
  _atom_site_fract_y
  _atom_site_fract_z
  _atom_site_occupancy
  Zn  Zn1       1.0  0.87575  0.98063  0.17560  1.0000
  Zn  Zn2       1.0  0.96765  0.48058  0.67553  1.0000
  Zn  Zn3       1.0  0.61722  0.18486  0.67260  1.0000
  Zn  Zn4       1.0  0.52548  0.68480  0.17257  1.0000
  H   H1        1.0  0.56258  0.95787  0.25526  1.0000
  H   H2        1.0  0.22413  0.45765  0.75524  1.0000
  H   H3        1.0  0.50949  0.02695  0.16121  1.0000
  H   H4        1.0  0.30204  0.52688  0.66120  1.0000
  H   H5        1.0  0.03431  0.85888  0.06910  1.0000
  H   H6        1.0  0.03800  0.35873  0.56906  1.0000
  H   H7        1.0  0.86945  0.81117  0.13444  1.0000
  H   H8        1.0  0.18482  0.31112  0.63460  1.0000
  H   H9        1.0  0.98374  0.14054  0.68954  1.0000
  H   H10       1.0  0.18630  0.64066  0.18949  1.0000
  H   H11       1.0  0.92955  0.21199  0.59629  1.0000
  H   H12       1.0  0.26235  0.71210  0.09623  1.0000
  H   H13       1.0  0.45573  0.31123  0.77570  1.0000
  H   H14       1.0  0.45726  0.81129  0.27566  1.0000
  H   H15       1.0  0.61972  0.35917  0.70864  1.0000
  H   H16       1.0  0.31237  0.85908  0.20862  1.0000
  H   H17       1.0  0.23022  0.14200  0.44782  1.0000
  H   H18       1.0  0.18004  0.64215  0.94790  1.0000
  H   H19       1.0  0.72909  0.26550  0.89379  1.0000
  H   H20       1.0  0.11109  0.76538  0.39361  1.0000
  H   H21       1.0  0.64577  0.13607  0.02998  1.0000
  H   H22       1.0  0.18771  0.63598  0.52981  1.0000
  H   H23       1.0  0.29022  0.19937  0.95516  1.0000
  H   H24       1.0  0.55438  0.69955  0.45527  1.0000
  H   H25       1.0  0.75402  0.90967  0.96191  1.0000
  H   H26       1.0  0.37453  0.40938  0.46200  1.0000
  H   H27       1.0  0.83734  0.04240  0.82691  1.0000
  H   H28       1.0  0.29328  0.54215  0.32704  1.0000
  H   H29       1.0  0.20339  0.96670  0.89205  1.0000
  H   H30       1.0  0.93775  0.46680  0.39205  1.0000
  H   H31       1.0  0.84004  0.97303  0.63698  1.0000
  H   H32       1.0  0.55021  0.47276  0.13690  1.0000
  H   H33       1.0  0.79276  0.84210  0.57075  1.0000
  H   H34       1.0  0.79499  0.34196  0.07066  1.0000
  H   H35       1.0  0.51963  0.88340  0.48997  1.0000
  H   H36       1.0  0.10764  0.38341  0.98997  1.0000
  H   H37       1.0  0.38185  0.17785  0.54366  1.0000
  H   H38       1.0  0.89659  0.67782  0.04371  1.0000
  H   H39       1.0  0.92822  0.19487  0.44570  1.0000
  H   H40       1.0  0.43217  0.69504  0.94566  1.0000
  H   H41       1.0  0.68610  0.27316  0.34813  1.0000
  H   H42       1.0  0.69398  0.77308  0.84792  1.0000
  H   H43       1.0  0.66676  0.18327  0.23729  1.0000
  H   H44       1.0  0.91336  0.68301  0.73699  1.0000
  H   H45       1.0  0.10458  0.94994  0.31567  1.0000
  H   H46       1.0  0.62984  0.44989  0.81593  1.0000
  C   C1        1.0  0.07134  0.32257  0.83589  1.0000
  C   C2        1.0  0.76976  0.82270  0.33592  1.0000
  C   C3        1.0  0.01605  0.24272  0.91472  1.0000
  C   C4        1.0  0.82587  0.74275  0.41471  1.0000
  C   C5        1.0  0.83340  0.22405  0.93550  1.0000
  C   C6        1.0  0.00648  0.72396  0.43540  1.0000
  C   C7        1.0  0.78763  0.15152  0.01023  1.0000
  C   C8        1.0  0.05010  0.65145  0.51011  1.0000
  C   C9        1.0  0.09351  0.11197  0.03984  1.0000
  C   C10       1.0  0.75400  0.61204  0.53982  1.0000
  C   C11       1.0  0.14722  0.18648  0.96870  1.0000
  C   C12       1.0  0.69682  0.68661  0.46873  1.0000
  C   C13       1.0  0.23551  0.04244  0.09510  1.0000
  C   C14       1.0  0.62623  0.54254  0.59510  1.0000
  C   C15       1.0  0.42462  0.84163  0.01014  1.0000
  C   C16       1.0  0.72372  0.34151  0.51016  1.0000
  C   C17       1.0  0.47500  0.92581  0.93469  1.0000
  C   C18       1.0  0.66456  0.42568  0.43473  1.0000
  C   C19       1.0  0.65376  0.94885  0.91751  1.0000
  C   C20       1.0  0.47992  0.44863  0.41759  1.0000
  C   C21       1.0  0.69840  0.02326  0.84424  1.0000
  C   C22       1.0  0.43401  0.52309  0.34436  1.0000
  C   C23       1.0  0.39739  0.05723  0.81023  1.0000
  C   C24       1.0  0.73495  0.55724  0.31031  1.0000
  C   C25       1.0  0.34476  0.98121  0.88016  1.0000
  C   C26       1.0  0.79374  0.48122  0.38022  1.0000
  C   C27       1.0  0.25676  0.12468  0.75322  1.0000
  C   C28       1.0  0.86525  0.62472  0.25328  1.0000
  C   C29       1.0  0.72440  0.98726  0.60115  1.0000
  C   C30       1.0  0.68746  0.48707  0.10113  1.0000
  C   C31       1.0  0.69642  0.91524  0.56457  1.0000
  C   C32       1.0  0.82425  0.41512  0.06453  1.0000
  C   C33       1.0  0.54664  0.93748  0.51924  1.0000
  C   C34       1.0  0.99715  0.43745  0.01925  1.0000
  C   C35       1.0  0.43015  0.03383  0.51046  1.0000
  C   C36       1.0  0.02578  0.53385  0.01052  1.0000
  C   C37       1.0  0.46918  0.10219  0.54846  1.0000
  C   C38       1.0  0.88018  0.60213  0.04852  1.0000
  C   C39       1.0  0.18321  0.00798  0.44313  1.0000
  C   C40       1.0  0.36597  0.50818  0.94329  1.0000
  C   C41       1.0  0.03612  0.06566  0.38788  1.0000
  C   C42       1.0  0.51082  0.56580  0.88799  1.0000
  C   C43       1.0  0.91839  0.15824  0.39636  1.0000
  C   C44       1.0  0.52792  0.65835  0.89635  1.0000
  C   C45       1.0  0.78280  0.20207  0.34219  1.0000
  C   C46       1.0  0.67398  0.70202  0.84206  1.0000
  C   C47       1.0  0.77188  0.15311  0.28040  1.0000
  C   C48       1.0  0.79527  0.65296  0.78021  1.0000
  C   C49       1.0  0.01547  0.02203  0.32402  1.0000
  C   C50       1.0  0.63875  0.52200  0.82416  1.0000
  N   N1        1.0  0.91589  0.09603  0.06091  1.0000
  N   N2        1.0  0.92654  0.59603  0.56085  1.0000
  N   N3        1.0  0.57253  0.07588  0.79156  1.0000
  N   N4        1.0  0.55988  0.57578  0.29165  1.0000
  N   N5        1.0  0.61081  0.07895  0.59358  1.0000
  N   N6        1.0  0.71666  0.57883  0.09360  1.0000
  N   N7        1.0  0.27961  0.06659  0.46395  1.0000
  N   N8        1.0  0.19005  0.56674  0.96406  1.0000
  N   N9        1.0  0.88809  0.06527  0.27081  1.0000
  N   N10       1.0  0.77613  0.56512  0.77078  1.0000
  O   O1        1.0  0.18188  0.96652  0.15002  1.0000
  O   O2        1.0  0.70078  0.46668  0.65008  1.0000
  O   O3        1.0  0.39553  0.06321  0.08183  1.0000
  O   O4        1.0  0.45879  0.56326  0.58177  1.0000
  O   O5        1.0  0.22511  0.34915  0.83075  1.0000
  O   O6        1.0  0.59460  0.84940  0.33070  1.0000
  O   O7        1.0  0.95650  0.35746  0.78237  1.0000
  O   O8        1.0  0.90336  0.85762  0.28251  1.0000
  O   O9        1.0  0.58352  0.01924  0.20866  1.0000
  O   O10       1.0  0.18833  0.51905  0.70868  1.0000
  O   O11       1.0  0.90035  0.87532  0.09690  1.0000
  O   O12       1.0  0.12735  0.37524  0.59700  1.0000
  O   O13       1.0  0.31051  0.19910  0.69634  1.0000
  O   O14       1.0  0.79402  0.69907  0.19631  1.0000
  O   O15       1.0  0.09729  0.10284  0.76732  1.0000
  O   O16       1.0  0.03237  0.60298  0.26743  1.0000
  O   O17       1.0  0.26662  0.81782  0.01696  1.0000
  O   O18       1.0  0.89874  0.31768  0.51695  1.0000
  O   O19       1.0  0.54814  0.79874  0.05850  1.0000
  O   O20       1.0  0.59471  0.29864  0.55858  1.0000
  O   O21       1.0  0.91024  0.14953  0.64133  1.0000
  O   O22       1.0  0.29900  0.64961  0.14126  1.0000
  O   O23       1.0  0.58741  0.29469  0.74499  1.0000
  O   O24       1.0  0.37298  0.79464  0.24495  1.0000
  O   O25       1.0  0.21572  0.91559  0.46523  1.0000
  O   O26       1.0  0.40378  0.41580  0.96546  1.0000
