data_image0
_chemical_formula_structural       Mn4P4H40C24N4O20
_chemical_formula_sum              "Mn4 P4 H40 C24 N4 O20"
_cell_length_a       7.62666
_cell_length_b       10.0439
_cell_length_c       12.7459
_cell_angle_alpha    104.262
_cell_angle_beta     90.0007
_cell_angle_gamma    90.0002

_space_group_name_H-M_alt    "P 1"
_space_group_IT_number       1

loop_
  _space_group_symop_operation_xyz
  'x, y, z'

loop_
  _atom_site_type_symbol
  _atom_site_label
  _atom_site_symmetry_multiplicity
  _atom_site_fract_x
  _atom_site_fract_y
  _atom_site_fract_z
  _atom_site_occupancy
  Mn  Mn1       1.0  0.75078  0.90596  0.11287  1.0000
  Mn  Mn2       1.0  0.25078  0.09404  0.38712  1.0000
  Mn  Mn3       1.0  0.24923  0.09405  0.88712  1.0000
  Mn  Mn4       1.0  0.74923  0.90595  0.61287  1.0000
  P   P1        1.0  0.86184  0.90235  0.86432  1.0000
  P   P2        1.0  0.36185  0.09765  0.63568  1.0000
  P   P3        1.0  0.13817  0.09766  0.13568  1.0000
  P   P4        1.0  0.63816  0.90234  0.36432  1.0000
  H   H1        1.0  0.38823  0.92178  0.07248  1.0000
  H   H2        1.0  0.88822  0.07822  0.42752  1.0000
  H   H3        1.0  0.61177  0.07823  0.92752  1.0000
  H   H4        1.0  0.11179  0.92177  0.57248  1.0000
  H   H5        1.0  0.42865  0.88676  0.18266  1.0000
  H   H6        1.0  0.92864  0.11325  0.31735  1.0000
  H   H7        1.0  0.57134  0.11324  0.81734  1.0000
  H   H8        1.0  0.07137  0.88674  0.68265  1.0000
  H   H9        1.0  0.58474  0.09626  0.25996  1.0000
  H   H10       1.0  0.08475  0.90374  0.24002  1.0000
  H   H11       1.0  0.41527  0.90374  0.74004  1.0000
  H   H12       1.0  0.91526  0.09627  0.75997  1.0000
  H   H13       1.0  0.53551  0.14905  0.15997  1.0000
  H   H14       1.0  0.03549  0.85095  0.34001  1.0000
  H   H15       1.0  0.46449  0.85095  0.84004  1.0000
  H   H16       1.0  0.96452  0.14904  0.65998  1.0000
  H   H17       1.0  0.65303  0.62276  0.13398  1.0000
  H   H18       1.0  0.15303  0.37726  0.36603  1.0000
  H   H19       1.0  0.34695  0.37727  0.86602  1.0000
  H   H20       1.0  0.84697  0.62274  0.63397  1.0000
  H   H21       1.0  0.63711  0.37706  0.02299  1.0000
  H   H22       1.0  0.13713  0.62296  0.47703  1.0000
  H   H23       1.0  0.36283  0.62298  0.97702  1.0000
  H   H24       1.0  0.86287  0.37703  0.52298  1.0000
  H   H25       1.0  0.79317  0.31573  0.84434  1.0000
  H   H26       1.0  0.29320  0.68428  0.65567  1.0000
  H   H27       1.0  0.20678  0.68429  0.15567  1.0000
  H   H28       1.0  0.70680  0.31570  0.34433  1.0000
  H   H29       1.0  0.96154  0.49801  0.78557  1.0000
  H   H30       1.0  0.46156  0.50198  0.71445  1.0000
  H   H31       1.0  0.03844  0.50198  0.21444  1.0000
  H   H32       1.0  0.53845  0.49800  0.28556  1.0000
  H   H33       1.0  0.08180  0.72669  0.82829  1.0000
  H   H34       1.0  0.58180  0.27331  0.67171  1.0000
  H   H35       1.0  0.91821  0.27332  0.17171  1.0000
  H   H36       1.0  0.41821  0.72668  0.32828  1.0000
  H   H37       1.0  0.08001  0.82004  0.96565  1.0000
  H   H38       1.0  0.58001  0.17996  0.53435  1.0000
  H   H39       1.0  0.91999  0.17996  0.03435  1.0000
  H   H40       1.0  0.42000  0.82002  0.46564  1.0000
  C   C1        1.0  0.71805  0.58958  0.05565  1.0000
  C   C2        1.0  0.21805  0.41043  0.44436  1.0000
  C   C3        1.0  0.28193  0.41044  0.94435  1.0000
  C   C4        1.0  0.78196  0.58956  0.55564  1.0000
  C   C5        1.0  0.71022  0.45444  0.99463  1.0000
  C   C6        1.0  0.21024  0.54557  0.50538  1.0000
  C   C7        1.0  0.28974  0.54559  0.00538  1.0000
  C   C8        1.0  0.78976  0.45442  0.49462  1.0000
  C   C9        1.0  0.79607  0.42041  0.89494  1.0000
  C   C10       1.0  0.29608  0.57959  0.60506  1.0000
  C   C11       1.0  0.20390  0.57960  0.10505  1.0000
  C   C12       1.0  0.70392  0.42039  0.39494  1.0000
  C   C13       1.0  0.88843  0.52225  0.86146  1.0000
  C   C14       1.0  0.38844  0.47775  0.63855  1.0000
  C   C15       1.0  0.11155  0.47776  0.13855  1.0000
  C   C16       1.0  0.61156  0.52224  0.36145  1.0000
  C   C17       1.0  0.89292  0.65591  0.92773  1.0000
  C   C18       1.0  0.39293  0.34409  0.57228  1.0000
  C   C19       1.0  0.10707  0.34410  0.07227  1.0000
  C   C20       1.0  0.60709  0.65589  0.42772  1.0000
  C   C21       1.0  0.99595  0.76765  0.89781  1.0000
  C   C22       1.0  0.49595  0.23236  0.60219  1.0000
  C   C23       1.0  0.00406  0.23235  0.10219  1.0000
  C   C24       1.0  0.50407  0.76763  0.39780  1.0000
  N   N1        1.0  0.80554  0.68866  0.02311  1.0000
  N   N2        1.0  0.30555  0.31134  0.47690  1.0000
  N   N3        1.0  0.19444  0.31135  0.97690  1.0000
  N   N4        1.0  0.69446  0.68864  0.52309  1.0000
  O   O1        1.0  0.73876  0.95926  0.96181  1.0000
  O   O2        1.0  0.23879  0.04072  0.53818  1.0000
  O   O3        1.0  0.26124  0.04074  0.03818  1.0000
  O   O4        1.0  0.76122  0.95927  0.46182  1.0000
  O   O5        1.0  0.75628  0.84294  0.76113  1.0000
  O   O6        1.0  0.25626  0.15706  0.73886  1.0000
  O   O7        1.0  0.24374  0.15706  0.23886  1.0000
  O   O8        1.0  0.74375  0.84294  0.26114  1.0000
  O   O9        1.0  0.99308  0.01266  0.84633  1.0000
  O   O10       1.0  0.49310  0.98736  0.65369  1.0000
  O   O11       1.0  0.00692  0.98735  0.15367  1.0000
  O   O12       1.0  0.50691  0.01264  0.34632  1.0000
  O   O13       1.0  0.45810  0.85751  0.10552  1.0000
  O   O14       1.0  0.95810  0.14249  0.39448  1.0000
  O   O15       1.0  0.54190  0.14249  0.89447  1.0000
  O   O16       1.0  0.04191  0.85751  0.60552  1.0000
  O   O17       1.0  0.63883  0.12535  0.19704  1.0000
  O   O18       1.0  0.13882  0.87465  0.30296  1.0000
  O   O19       1.0  0.36118  0.87465  0.80296  1.0000
  O   O20       1.0  0.86119  0.12535  0.69704  1.0000
