data_image0
_chemical_formula_structural       Ag8H16C24S8O16
_chemical_formula_sum              "Ag8 H16 C24 S8 O16"
_cell_length_a       5.473
_cell_length_b       12.3519
_cell_length_c       12.6528
_cell_angle_alpha    94.8319
_cell_angle_beta     90.0003
_cell_angle_gamma    89.9999

_space_group_name_H-M_alt    "P 1"
_space_group_IT_number       1

loop_
  _space_group_symop_operation_xyz
  'x, y, z'

loop_
  _atom_site_type_symbol
  _atom_site_label
  _atom_site_symmetry_multiplicity
  _atom_site_fract_x
  _atom_site_fract_y
  _atom_site_fract_z
  _atom_site_occupancy
  Ag  Ag1       1.0  0.14598  0.12108  0.97975  1.0000
  Ag  Ag2       1.0  0.64599  0.37893  0.02024  1.0000
  Ag  Ag3       1.0  0.85402  0.87892  0.02024  1.0000
  Ag  Ag4       1.0  0.35402  0.62108  0.97976  1.0000
  Ag  Ag5       1.0  0.78558  0.90946  0.49444  1.0000
  Ag  Ag6       1.0  0.28558  0.59055  0.50557  1.0000
  Ag  Ag7       1.0  0.21441  0.09054  0.50556  1.0000
  Ag  Ag8       1.0  0.71442  0.40945  0.49443  1.0000
  H   H1        1.0  0.85700  0.58120  0.66183  1.0000
  H   H2        1.0  0.35700  0.91880  0.33817  1.0000
  H   H3        1.0  0.14300  0.41880  0.33817  1.0000
  H   H4        1.0  0.64299  0.08120  0.66183  1.0000
  H   H5        1.0  0.58439  0.56805  0.73786  1.0000
  H   H6        1.0  0.08439  0.93194  0.26214  1.0000
  H   H7        1.0  0.41561  0.43194  0.26214  1.0000
  H   H8        1.0  0.91561  0.06806  0.73786  1.0000
  H   H9        1.0  0.94582  0.64403  0.84861  1.0000
  H   H10       1.0  0.44581  0.85597  0.15139  1.0000
  H   H11       1.0  0.05417  0.35597  0.15139  1.0000
  H   H12       1.0  0.55418  0.14404  0.84861  1.0000
  H   H13       1.0  0.95332  0.75830  0.76976  1.0000
  H   H14       1.0  0.45333  0.74169  0.23025  1.0000
  H   H15       1.0  0.04668  0.24170  0.23024  1.0000
  H   H16       1.0  0.54668  0.25831  0.76976  1.0000
  C   C1        1.0  0.26355  0.87958  0.63056  1.0000
  C   C2        1.0  0.76351  0.62043  0.36943  1.0000
  C   C3        1.0  0.73648  0.12043  0.36943  1.0000
  C   C4        1.0  0.23649  0.37957  0.63057  1.0000
  C   C5        1.0  0.42336  0.81215  0.69780  1.0000
  C   C6        1.0  0.92336  0.68785  0.30221  1.0000
  C   C7        1.0  0.57663  0.18785  0.30220  1.0000
  C   C8        1.0  0.07663  0.31215  0.69780  1.0000
  C   C9        1.0  0.71687  0.62597  0.71014  1.0000
  C   C10       1.0  0.21687  0.87402  0.28986  1.0000
  C   C11       1.0  0.28313  0.37403  0.28986  1.0000
  C   C12       1.0  0.78313  0.12598  0.71014  1.0000
  C   C13       1.0  0.83703  0.69534  0.79974  1.0000
  C   C14       1.0  0.33704  0.80466  0.20027  1.0000
  C   C15       1.0  0.16295  0.30465  0.20025  1.0000
  C   C16       1.0  0.66295  0.19535  0.79974  1.0000
  C   C17       1.0  0.44365  0.83631  0.80397  1.0000
  C   C18       1.0  0.94364  0.66369  0.19603  1.0000
  C   C19       1.0  0.55635  0.16369  0.19603  1.0000
  C   C20       1.0  0.05636  0.33631  0.80397  1.0000
  C   C21       1.0  0.31785  0.93086  0.86267  1.0000
  C   C22       1.0  0.81784  0.56913  0.13734  1.0000
  C   C23       1.0  0.68217  0.06912  0.13735  1.0000
  C   C24       1.0  0.18217  0.43086  0.86266  1.0000
  S   S1        1.0  0.56616  0.70878  0.61745  1.0000
  S   S2        1.0  0.06616  0.79122  0.38256  1.0000
  S   S3        1.0  0.43383  0.29122  0.38255  1.0000
  S   S4        1.0  0.93384  0.20878  0.61744  1.0000
  S   S5        1.0  0.61762  0.76181  0.89009  1.0000
  S   S6        1.0  0.11762  0.73819  0.10992  1.0000
  S   S7        1.0  0.38239  0.23819  0.10991  1.0000
  S   S8        1.0  0.88239  0.26181  0.89008  1.0000
  O   O1        1.0  0.37437  0.92720  0.55796  1.0000
  O   O2        1.0  0.87438  0.57280  0.44205  1.0000
  O   O3        1.0  0.62562  0.07281  0.44204  1.0000
  O   O4        1.0  0.12562  0.42719  0.55796  1.0000
  O   O5        1.0  0.03732  0.87887  0.64633  1.0000
  O   O6        1.0  0.53736  0.62112  0.35366  1.0000
  O   O7        1.0  0.96265  0.12113  0.35367  1.0000
  O   O8        1.0  0.46264  0.37887  0.64633  1.0000
  O   O9        1.0  0.26976  0.01469  0.81565  1.0000
  O   O10       1.0  0.76976  0.48532  0.18436  1.0000
  O   O11       1.0  0.73024  0.98532  0.18435  1.0000
  O   O12       1.0  0.23024  0.51469  0.81564  1.0000
  O   O13       1.0  0.27459  0.92116  0.96111  1.0000
  O   O14       1.0  0.77457  0.57883  0.03889  1.0000
  O   O15       1.0  0.72544  0.07883  0.03889  1.0000
  O   O16       1.0  0.22543  0.42117  0.96110  1.0000
