data_image0
_chemical_formula_structural       Ag2H40C56S4N34O14
_chemical_formula_sum              "Ag2 H40 C56 S4 N34 O14"
_cell_length_a       7.29289
_cell_length_b       15.1113
_cell_length_c       15.1112
_cell_angle_alpha    80.61
_cell_angle_beta     79.8555
_cell_angle_gamma    79.8561

_space_group_name_H-M_alt    "P 1"
_space_group_IT_number       1

loop_
  _space_group_symop_operation_xyz
  'x, y, z'

loop_
  _atom_site_type_symbol
  _atom_site_label
  _atom_site_symmetry_multiplicity
  _atom_site_fract_x
  _atom_site_fract_y
  _atom_site_fract_z
  _atom_site_occupancy
  Ag  Ag1       1.0  0.24999  0.72260  0.27739  1.0000
  Ag  Ag2       1.0  0.75000  0.27740  0.72260  1.0000
  H   H1        1.0  0.98461  0.96352  0.71494  1.0000
  H   H2        1.0  0.51539  0.28506  0.03646  1.0000
  H   H3        1.0  0.01537  0.03647  0.28506  1.0000
  H   H4        1.0  0.48460  0.71494  0.96353  1.0000
  H   H5        1.0  0.02133  0.96166  0.87539  1.0000
  H   H6        1.0  0.47865  0.12462  0.03834  1.0000
  H   H7        1.0  0.97864  0.03835  0.12461  1.0000
  H   H8        1.0  0.52135  0.87538  0.96166  1.0000
  H   H9        1.0  0.95871  0.67786  0.93180  1.0000
  H   H10       1.0  0.54129  0.06822  0.32214  1.0000
  H   H11       1.0  0.04131  0.32214  0.06821  1.0000
  H   H12       1.0  0.45872  0.93179  0.67786  1.0000
  H   H13       1.0  0.93212  0.67835  0.76924  1.0000
  H   H14       1.0  0.56788  0.23077  0.32163  1.0000
  H   H15       1.0  0.06789  0.32163  0.23078  1.0000
  H   H16       1.0  0.43212  0.76924  0.67836  1.0000
  H   H17       1.0  0.15192  0.68148  0.04514  1.0000
  H   H18       1.0  0.34810  0.95487  0.31853  1.0000
  H   H19       1.0  0.84810  0.31854  0.95486  1.0000
  H   H20       1.0  0.65193  0.04513  0.68147  1.0000
  H   H21       1.0  0.21751  0.66950  0.56666  1.0000
  H   H22       1.0  0.28249  0.43334  0.33049  1.0000
  H   H23       1.0  0.78251  0.33049  0.43335  1.0000
  H   H24       1.0  0.71751  0.56666  0.66950  1.0000
  H   H25       1.0  0.54007  0.66816  0.48637  1.0000
  H   H26       1.0  0.95993  0.51362  0.33184  1.0000
  H   H27       1.0  0.45995  0.33184  0.51363  1.0000
  H   H28       1.0  0.04006  0.48637  0.66816  1.0000
  H   H29       1.0  0.46484  0.96156  0.45785  1.0000
  H   H30       1.0  0.03517  0.54215  0.03844  1.0000
  H   H31       1.0  0.53516  0.03844  0.54216  1.0000
  H   H32       1.0  0.96482  0.45786  0.96156  1.0000
  H   H33       1.0  0.13920  0.96412  0.53896  1.0000
  H   H34       1.0  0.36080  0.46104  0.03588  1.0000
  H   H35       1.0  0.86079  0.03587  0.46104  1.0000
  H   H36       1.0  0.63921  0.53898  0.96412  1.0000
  H   H37       1.0  0.85103  0.67637  0.43740  1.0000
  H   H38       1.0  0.64896  0.56259  0.32362  1.0000
  H   H39       1.0  0.14899  0.32362  0.56260  1.0000
  H   H40       1.0  0.35103  0.43741  0.67638  1.0000
  C   C1        1.0  0.95488  0.82058  0.73386  1.0000
  C   C2        1.0  0.54512  0.26614  0.17941  1.0000
  C   C3        1.0  0.04512  0.17941  0.26614  1.0000
  C   C4        1.0  0.45488  0.73386  0.82059  1.0000
  C   C5        1.0  0.97989  0.90080  0.76213  1.0000
  C   C6        1.0  0.52010  0.23788  0.09918  1.0000
  C   C7        1.0  0.02011  0.09919  0.23788  1.0000
  C   C8        1.0  0.47987  0.76212  0.90081  1.0000
  C   C9        1.0  0.00095  0.90018  0.85193  1.0000
  C   C10       1.0  0.49906  0.14808  0.09981  1.0000
  C   C11       1.0  0.99904  0.09982  0.14807  1.0000
  C   C12       1.0  0.50094  0.85192  0.90019  1.0000
  C   C13       1.0  0.99514  0.81914  0.91152  1.0000
  C   C14       1.0  0.50485  0.08849  0.18085  1.0000
  C   C15       1.0  0.00485  0.18086  0.08848  1.0000
  C   C16       1.0  0.49515  0.91151  0.81915  1.0000
  C   C17       1.0  0.96803  0.73936  0.88359  1.0000
  C   C18       1.0  0.53197  0.11641  0.26063  1.0000
  C   C19       1.0  0.03197  0.26064  0.11641  1.0000
  C   C20       1.0  0.46802  0.88359  0.73937  1.0000
  C   C21       1.0  0.95061  0.73975  0.79333  1.0000
  C   C22       1.0  0.54940  0.20668  0.26024  1.0000
  C   C23       1.0  0.04940  0.26024  0.20668  1.0000
  C   C24       1.0  0.45061  0.79332  0.73975  1.0000
  C   C25       1.0  0.09078  0.74852  0.06191  1.0000
  C   C26       1.0  0.40923  0.93810  0.25149  1.0000
  C   C27       1.0  0.90923  0.25150  0.93809  1.0000
  C   C28       1.0  0.59079  0.06190  0.74851  1.0000
  C   C29       1.0  0.15936  0.81727  0.55916  1.0000
  C   C30       1.0  0.34064  0.44085  0.18272  1.0000
  C   C31       1.0  0.84064  0.18272  0.44085  1.0000
  C   C32       1.0  0.65935  0.55915  0.81728  1.0000
  C   C33       1.0  0.26946  0.73408  0.54400  1.0000
  C   C34       1.0  0.23053  0.45599  0.26592  1.0000
  C   C35       1.0  0.73055  0.26592  0.45599  1.0000
  C   C36       1.0  0.76945  0.54400  0.73408  1.0000
  C   C37       1.0  0.45268  0.73300  0.49737  1.0000
  C   C38       1.0  0.04731  0.50263  0.26700  1.0000
  C   C39       1.0  0.54733  0.26700  0.50263  1.0000
  C   C40       1.0  0.95267  0.49737  0.73300  1.0000
  C   C41       1.0  0.52139  0.81516  0.46781  1.0000
  C   C42       1.0  0.97861  0.53219  0.18483  1.0000
  C   C43       1.0  0.47862  0.18484  0.53220  1.0000
  C   C44       1.0  0.02139  0.46781  0.81516  1.0000
  C   C45       1.0  0.40977  0.89840  0.48261  1.0000
  C   C46       1.0  0.09023  0.51739  0.10159  1.0000
  C   C47       1.0  0.59022  0.10159  0.51739  1.0000
  C   C48       1.0  0.90978  0.48262  0.89840  1.0000
  C   C49       1.0  0.22723  0.89959  0.52844  1.0000
  C   C50       1.0  0.27276  0.47156  0.10040  1.0000
  C   C51       1.0  0.77276  0.10040  0.47156  1.0000
  C   C52       1.0  0.72724  0.52845  0.89959  1.0000
  C   C53       1.0  0.85434  0.74794  0.40986  1.0000
  C   C54       1.0  0.64566  0.59013  0.25205  1.0000
  C   C55       1.0  0.14567  0.25206  0.59014  1.0000
  C   C56       1.0  0.35433  0.40986  0.74794  1.0000
  S   S1        1.0  0.92680  0.82103  0.61923  1.0000
  S   S2        1.0  0.57320  0.38077  0.17896  1.0000
  S   S3        1.0  0.07321  0.17895  0.38077  1.0000
  S   S4        1.0  0.42678  0.61924  0.82103  1.0000
  N   N1        1.0  0.01835  0.81762  0.00290  1.0000
  N   N2        1.0  0.48165  0.99711  0.18238  1.0000
  N   N3        1.0  0.98165  0.18240  0.99711  1.0000
  N   N4        1.0  0.51836  0.00289  0.81762  1.0000
  N   N5        1.0  0.96411  0.89242  0.04617  1.0000
  N   N6        1.0  0.53589  0.95383  0.10759  1.0000
  N   N7        1.0  0.03589  0.10760  0.95383  1.0000
  N   N8        1.0  0.46412  0.04617  0.89241  1.0000
  N   N9        1.0  0.00134  0.86802  0.12806  1.0000
  N   N10       1.0  0.49867  0.87195  0.13200  1.0000
  N   N11       1.0  0.99866  0.13200  0.87194  1.0000
  N   N12       1.0  0.50135  0.12805  0.86801  1.0000
  N   N13       1.0  0.08057  0.77862  0.14025  1.0000
  N   N14       1.0  0.41944  0.85976  0.22139  1.0000
  N   N15       1.0  0.91944  0.22140  0.85975  1.0000
  N   N16       1.0  0.58058  0.14024  0.77861  1.0000
  N   N17       1.0  0.70809  0.81611  0.42081  1.0000
  N   N18       1.0  0.79191  0.57918  0.18388  1.0000
  N   N19       1.0  0.29192  0.18389  0.57919  1.0000
  N   N20       1.0  0.20808  0.42082  0.81611  1.0000
  N   N21       1.0  0.76787  0.89589  0.38037  1.0000
  N   N22       1.0  0.73214  0.61963  0.10410  1.0000
  N   N23       1.0  0.23213  0.10411  0.61964  1.0000
  N   N24       1.0  0.26786  0.38038  0.89589  1.0000
  N   N25       1.0  0.94272  0.87626  0.34622  1.0000
  N   N26       1.0  0.55729  0.65378  0.12373  1.0000
  N   N27       1.0  0.05728  0.12374  0.65378  1.0000
  N   N28       1.0  0.44271  0.34622  0.87626  1.0000
  N   N29       1.0  0.00082  0.78474  0.36320  1.0000
  N   N30       1.0  0.49919  0.63680  0.21525  1.0000
  N   N31       1.0  0.99919  0.21526  0.63680  1.0000
  N   N32       1.0  0.50080  0.36320  0.78474  1.0000
  N   N33       1.0  0.24999  0.50944  0.49056  1.0000
  N   N34       1.0  0.74999  0.49056  0.50943  1.0000
  O   O1        1.0  0.85684  0.73857  0.61315  1.0000
  O   O2        1.0  0.64316  0.38685  0.26142  1.0000
  O   O3        1.0  0.14318  0.26141  0.38685  1.0000
  O   O4        1.0  0.35683  0.61315  0.73858  1.0000
  O   O5        1.0  0.82154  0.90907  0.58967  1.0000
  O   O6        1.0  0.67846  0.41033  0.09092  1.0000
  O   O7        1.0  0.17846  0.09091  0.41032  1.0000
  O   O8        1.0  0.32152  0.58968  0.90907  1.0000
  O   O9        1.0  0.24997  0.57387  0.42613  1.0000
  O   O10       1.0  0.74999  0.42613  0.57386  1.0000
  O   O11       1.0  0.20890  0.43363  0.48023  1.0000
  O   O12       1.0  0.29109  0.51977  0.56637  1.0000
  O   O13       1.0  0.79108  0.56637  0.51977  1.0000
  O   O14       1.0  0.70890  0.48023  0.43363  1.0000
