data_image0
_chemical_formula_structural       Pr2H42C26O14
_chemical_formula_sum              "Pr2 H42 C26 O14"
_cell_length_a       6.88717
_cell_length_b       10.3971
_cell_length_c       12.1921
_cell_angle_alpha    72.2621
_cell_angle_beta     87.0909
_cell_angle_gamma    76.3517

_space_group_name_H-M_alt    "P 1"
_space_group_IT_number       1

loop_
  _space_group_symop_operation_xyz
  'x, y, z'

loop_
  _atom_site_type_symbol
  _atom_site_label
  _atom_site_symmetry_multiplicity
  _atom_site_fract_x
  _atom_site_fract_y
  _atom_site_fract_z
  _atom_site_occupancy
  Pr  Pr1       1.0  0.24415  0.03656  0.38352  1.0000
  Pr  Pr2       1.0  0.75584  0.96344  0.61648  1.0000
  H   H1        1.0  0.15828  0.75590  0.54246  1.0000
  H   H2        1.0  0.84172  0.24410  0.45754  1.0000
  H   H3        1.0  0.88651  0.34824  0.01088  1.0000
  H   H4        1.0  0.11349  0.65176  0.98912  1.0000
  H   H5        1.0  0.06092  0.28898  0.91234  1.0000
  H   H6        1.0  0.93908  0.71102  0.08766  1.0000
  H   H7        1.0  0.12967  0.37697  0.00389  1.0000
  H   H8        1.0  0.87032  0.62303  0.99611  1.0000
  H   H9        1.0  0.23206  0.05837  0.97242  1.0000
  H   H10       1.0  0.76795  0.94163  0.02758  1.0000
  H   H11       1.0  0.54469  0.74545  0.14000  1.0000
  H   H12       1.0  0.45531  0.25455  0.86000  1.0000
  H   H13       1.0  0.41205  0.82975  0.00501  1.0000
  H   H14       1.0  0.58795  0.17025  0.99499  1.0000
  H   H15       1.0  0.30005  0.72607  0.12427  1.0000
  H   H16       1.0  0.69995  0.27393  0.87573  1.0000
  H   H17       1.0  0.78240  0.51844  0.30078  1.0000
  H   H18       1.0  0.21760  0.48156  0.69922  1.0000
  H   H19       1.0  0.95576  0.61558  0.31584  1.0000
  H   H20       1.0  0.04423  0.38442  0.68416  1.0000
  H   H21       1.0  0.87121  0.49985  0.43945  1.0000
  H   H22       1.0  0.12879  0.50015  0.56055  1.0000
  H   H23       1.0  0.24187  0.53609  0.23314  1.0000
  H   H24       1.0  0.75814  0.46390  0.76686  1.0000
  H   H25       1.0  0.71758  0.32758  0.20234  1.0000
  H   H26       1.0  0.28242  0.67242  0.79767  1.0000
  H   H27       1.0  0.55321  0.49752  0.14983  1.0000
  H   H28       1.0  0.44679  0.50248  0.85017  1.0000
  H   H29       1.0  0.55341  0.36686  0.08360  1.0000
  H   H30       1.0  0.44659  0.63314  0.91640  1.0000
  H   H31       1.0  0.70988  0.86088  0.24013  1.0000
  H   H32       1.0  0.29011  0.13913  0.75986  1.0000
  H   H33       1.0  0.93818  0.92274  0.22053  1.0000
  H   H34       1.0  0.06181  0.07726  0.77946  1.0000
  H   H35       1.0  0.70024  0.04127  0.19032  1.0000
  H   H36       1.0  0.29975  0.95873  0.80968  1.0000
  H   H37       1.0  0.34615  0.63437  0.41687  1.0000
  H   H38       1.0  0.65384  0.36563  0.58313  1.0000
  H   H39       1.0  0.45554  0.58233  0.55954  1.0000
  H   H40       1.0  0.54446  0.41767  0.44046  1.0000
  H   H41       1.0  0.54800  0.70226  0.44335  1.0000
  H   H42       1.0  0.45200  0.29774  0.55665  1.0000
  C   C1        1.0  0.04349  0.30239  0.99834  1.0000
  C   C2        1.0  0.95651  0.69761  0.00166  1.0000
  C   C3        1.0  0.11621  0.16828  0.09359  1.0000
  C   C4        1.0  0.88380  0.83172  0.90641  1.0000
  C   C5        1.0  0.22215  0.05033  0.06340  1.0000
  C   C6        1.0  0.77786  0.94967  0.93660  1.0000
  C   C7        1.0  0.30948  0.92192  0.14250  1.0000
  C   C8        1.0  0.69053  0.07808  0.85750  1.0000
  C   C9        1.0  0.39751  0.79972  0.09878  1.0000
  C   C10       1.0  0.60250  0.20028  0.90122  1.0000
  C   C11       1.0  0.91477  0.51532  0.34935  1.0000
  C   C12       1.0  0.08523  0.48468  0.65065  1.0000
  C   C13       1.0  0.08081  0.39540  0.33901  1.0000
  C   C14       1.0  0.91919  0.60461  0.66099  1.0000
  C   C15       1.0  0.24419  0.42646  0.27092  1.0000
  C   C16       1.0  0.75580  0.57354  0.72908  1.0000
  C   C17       1.0  0.41022  0.33123  0.24563  1.0000
  C   C18       1.0  0.58978  0.66877  0.75437  1.0000
  C   C19       1.0  0.56798  0.38587  0.16656  1.0000
  C   C20       1.0  0.43202  0.61413  0.83344  1.0000
  C   C21       1.0  0.76699  0.95176  0.36716  1.0000
  C   C22       1.0  0.23301  0.04824  0.63284  1.0000
  C   C23       1.0  0.78268  0.94105  0.24710  1.0000
  C   C24       1.0  0.21732  0.05895  0.75290  1.0000
  C   C25       1.0  0.41329  0.66865  0.47995  1.0000
  C   C26       1.0  0.58671  0.33135  0.52005  1.0000
  O   O1        1.0  0.07766  0.17156  0.19616  1.0000
  O   O2        1.0  0.92234  0.82844  0.80384  1.0000
  O   O3        1.0  0.31906  0.89797  0.25189  1.0000
  O   O4        1.0  0.68094  0.10203  0.74811  1.0000
  O   O5        1.0  0.05807  0.27275  0.39305  1.0000
  O   O6        1.0  0.94193  0.72725  0.60695  1.0000
  O   O7        1.0  0.43779  0.19982  0.28286  1.0000
  O   O8        1.0  0.56221  0.80018  0.71714  1.0000
  O   O9        1.0  0.61373  0.92979  0.42687  1.0000
  O   O10       1.0  0.38627  0.07021  0.57312  1.0000
  O   O11       1.0  0.90751  0.98304  0.41072  1.0000
  O   O12       1.0  0.09249  0.01696  0.58928  1.0000
  O   O13       1.0  0.28064  0.78415  0.50434  1.0000
  O   O14       1.0  0.71936  0.21585  0.49566  1.0000
