data_image0
_chemical_formula_structural       Zn2H32C52N12O24
_chemical_formula_sum              "Zn2 H32 C52 N12 O24"
_cell_length_a       5.90251
_cell_length_b       11.728
_cell_length_c       19.9057
_cell_angle_alpha    98.4429
_cell_angle_beta     90.0041
_cell_angle_gamma    104.589

_space_group_name_H-M_alt    "P 1"
_space_group_IT_number       1

loop_
  _space_group_symop_operation_xyz
  'x, y, z'

loop_
  _atom_site_type_symbol
  _atom_site_label
  _atom_site_symmetry_multiplicity
  _atom_site_fract_x
  _atom_site_fract_y
  _atom_site_fract_z
  _atom_site_occupancy
  Zn  Zn1       1.0  0.76368  0.99971  0.75006  1.0000
  Zn  Zn2       1.0  0.23633  0.00029  0.24994  1.0000
  H   H1        1.0  0.74135  0.50400  0.79042  1.0000
  H   H2        1.0  0.23673  0.49534  0.70951  1.0000
  H   H3        1.0  0.25863  0.49601  0.20958  1.0000
  H   H4        1.0  0.76326  0.50467  0.29049  1.0000
  H   H5        1.0  0.66188  0.85455  0.86302  1.0000
  H   H6        1.0  0.80719  0.14474  0.63725  1.0000
  H   H7        1.0  0.33814  0.14545  0.13699  1.0000
  H   H8        1.0  0.19283  0.85525  0.36275  1.0000
  H   H9        1.0  0.38200  0.83274  0.95708  1.0000
  H   H10       1.0  0.54984  0.16707  0.54322  1.0000
  H   H11       1.0  0.61801  0.16725  0.04293  1.0000
  H   H12       1.0  0.45020  0.83292  0.45677  1.0000
  H   H13       1.0  0.28592  0.55563  0.95531  1.0000
  H   H14       1.0  0.72958  0.44432  0.54471  1.0000
  H   H15       1.0  0.71408  0.44436  0.04469  1.0000
  H   H16       1.0  0.27042  0.55568  0.45529  1.0000
  H   H17       1.0  0.43826  0.13743  0.80882  1.0000
  H   H18       1.0  0.29969  0.86179  0.69107  1.0000
  H   H19       1.0  0.56171  0.86254  0.19117  1.0000
  H   H20       1.0  0.70030  0.13822  0.30893  1.0000
  H   H21       1.0  0.15058  0.12835  0.89917  1.0000
  H   H22       1.0  0.02177  0.87124  0.60064  1.0000
  H   H23       1.0  0.84940  0.87163  0.10082  1.0000
  H   H24       1.0  0.97824  0.12877  0.39936  1.0000
  H   H25       1.0  0.43890  0.32585  0.73615  1.0000
  H   H26       1.0  0.11325  0.67369  0.76387  1.0000
  H   H27       1.0  0.56108  0.67416  0.26385  1.0000
  H   H28       1.0  0.88674  0.32632  0.23614  1.0000
  H   H29       1.0  0.06757  0.88819  0.01688  1.0000
  H   H30       1.0  0.17948  0.11202  0.48338  1.0000
  H   H31       1.0  0.93242  0.11180  0.98312  1.0000
  H   H32       1.0  0.82056  0.88798  0.51662  1.0000
  C   C1        1.0  0.15341  0.40589  0.87580  1.0000
  C   C2        1.0  0.74731  0.59392  0.62429  1.0000
  C   C3        1.0  0.84658  0.59411  0.12419  1.0000
  C   C4        1.0  0.25270  0.40609  0.37571  1.0000
  C   C5        1.0  0.18896  0.34011  0.81362  1.0000
  C   C6        1.0  0.84898  0.65967  0.68646  1.0000
  C   C7        1.0  0.81104  0.65989  0.18638  1.0000
  C   C8        1.0  0.15102  0.34034  0.31354  1.0000
  C   C9        1.0  0.07195  0.96417  0.99071  1.0000
  C   C10       1.0  0.10780  0.03582  0.50935  1.0000
  C   C11       1.0  0.92804  0.03582  0.00929  1.0000
  C   C12       1.0  0.89222  0.96418  0.49064  1.0000
  C   C13       1.0  0.57294  0.47719  0.81325  1.0000
  C   C14       1.0  0.09520  0.52230  0.68674  1.0000
  C   C15       1.0  0.42704  0.52281  0.18675  1.0000
  C   C16       1.0  0.90480  0.47771  0.31326  1.0000
  C   C17       1.0  0.99469  0.24015  0.77765  1.0000
  C   C18       1.0  0.75487  0.75960  0.72250  1.0000
  C   C19       1.0  0.00530  0.75985  0.22235  1.0000
  C   C20       1.0  0.24513  0.24040  0.27750  1.0000
  C   C21       1.0  0.31653  0.50739  0.90652  1.0000
  C   C22       1.0  0.80847  0.49237  0.59352  1.0000
  C   C23       1.0  0.68346  0.49261  0.09348  1.0000
  C   C24       1.0  0.19153  0.50763  0.40648  1.0000
  C   C25       1.0  0.40378  0.37692  0.78336  1.0000
  C   C26       1.0  0.02685  0.62269  0.71666  1.0000
  C   C27       1.0  0.59620  0.62308  0.21664  1.0000
  C   C28       1.0  0.97315  0.37732  0.28334  1.0000
  C   C29       1.0  0.38796  0.90140  0.92520  1.0000
  C   C30       1.0  0.48664  0.09823  0.57497  1.0000
  C   C31       1.0  0.61205  0.09860  0.07480  1.0000
  C   C32       1.0  0.51339  0.90176  0.42503  1.0000
  C   C33       1.0  0.23837  0.97840  0.93661  1.0000
  C   C34       1.0  0.25987  0.02131  0.56342  1.0000
  C   C35       1.0  0.76163  0.02159  0.06339  1.0000
  C   C36       1.0  0.74015  0.97869  0.43658  1.0000
  C   C37       1.0  0.54495  0.91295  0.87333  1.0000
  C   C38       1.0  0.63179  0.08643  0.62685  1.0000
  C   C39       1.0  0.45507  0.08705  0.12668  1.0000
  C   C40       1.0  0.36823  0.91357  0.37315  1.0000
  C   C41       1.0  0.42074  0.07178  0.84307  1.0000
  C   C42       1.0  0.34831  0.92754  0.65688  1.0000
  C   C43       1.0  0.57925  0.92821  0.15693  1.0000
  C   C44       1.0  0.65168  0.07247  0.34312  1.0000
  C   C45       1.0  0.25996  0.06576  0.89393  1.0000
  C   C46       1.0  0.19386  0.93378  0.60598  1.0000
  C   C47       1.0  0.74004  0.93423  0.10607  1.0000
  C   C48       1.0  0.80615  0.06623  0.39402  1.0000
  C   C49       1.0  0.52600  0.54157  0.87393  1.0000
  C   C50       1.0  0.98364  0.45805  0.62607  1.0000
  C   C51       1.0  0.47399  0.45843  0.12607  1.0000
  C   C52       1.0  0.01637  0.54197  0.37393  1.0000
  N   N1        1.0  0.56077  0.99631  0.83220  1.0000
  N   N2        1.0  0.56395  0.00297  0.66789  1.0000
  N   N3        1.0  0.43923  0.00369  0.16780  1.0000
  N   N4        1.0  0.43605  0.99704  0.33212  1.0000
  N   N5        1.0  0.70600  0.64534  0.90682  1.0000
  N   N6        1.0  0.06022  0.35446  0.59309  1.0000
  N   N7        1.0  0.29399  0.35466  0.09318  1.0000
  N   N8        1.0  0.93977  0.64554  0.40692  1.0000
  N   N9        1.0  0.94170  0.36335  0.91294  1.0000
  N   N10       1.0  0.57825  0.63651  0.58713  1.0000
  N   N11       1.0  0.05828  0.63665  0.08706  1.0000
  N   N12       1.0  0.42175  0.36350  0.41287  1.0000
  O   O1        1.0  0.04199  0.13783  0.76481  1.0000
  O   O2        1.0  0.90463  0.86191  0.73551  1.0000
  O   O3        1.0  0.95801  0.86218  0.23519  1.0000
  O   O4        1.0  0.09538  0.13809  0.26450  1.0000
  O   O5        1.0  0.80932  0.26488  0.76294  1.0000
  O   O6        1.0  0.54465  0.73486  0.73712  1.0000
  O   O7        1.0  0.19068  0.73512  0.23705  1.0000
  O   O8        1.0  0.45534  0.26515  0.26287  1.0000
  O   O9        1.0  0.88636  0.68006  0.87555  1.0000
  O   O10       1.0  0.20609  0.31984  0.62433  1.0000
  O   O11       1.0  0.11364  0.31994  0.12446  1.0000
  O   O12       1.0  0.79390  0.68016  0.37568  1.0000
  O   O13       1.0  0.87178  0.25444  0.91325  1.0000
  O   O14       1.0  0.61727  0.74542  0.58683  1.0000
  O   O15       1.0  0.12821  0.74556  0.08675  1.0000
  O   O16       1.0  0.38276  0.25459  0.41316  1.0000
  O   O17       1.0  0.66807  0.69290  0.96428  1.0000
  O   O18       1.0  0.97495  0.30703  0.53558  1.0000
  O   O19       1.0  0.33193  0.30708  0.03572  1.0000
  O   O20       1.0  0.02505  0.69298  0.46443  1.0000
  O   O21       1.0  0.84819  0.43879  0.94299  1.0000
  O   O22       1.0  0.40931  0.56105  0.55705  1.0000
  O   O23       1.0  0.15179  0.56121  0.05701  1.0000
  O   O24       1.0  0.59067  0.43897  0.44297  1.0000
