data_image0
_chemical_formula_structural       Ag4H36C28N8O8
_chemical_formula_sum              "Ag4 H36 C28 N8 O8"
_cell_length_a       5.75997
_cell_length_b       10.3827
_cell_length_c       13.9239
_cell_angle_alpha    104.717
_cell_angle_beta     89.9999
_cell_angle_gamma    89.9996

_space_group_name_H-M_alt    "P 1"
_space_group_IT_number       1

loop_
  _space_group_symop_operation_xyz
  'x, y, z'

loop_
  _atom_site_type_symbol
  _atom_site_label
  _atom_site_symmetry_multiplicity
  _atom_site_fract_x
  _atom_site_fract_y
  _atom_site_fract_z
  _atom_site_occupancy
  Ag  Ag1       1.0  0.07995  0.30191  0.45775  1.0000
  Ag  Ag2       1.0  0.57996  0.19809  0.54224  1.0000
  Ag  Ag3       1.0  0.92006  0.69810  0.54224  1.0000
  Ag  Ag4       1.0  0.42004  0.80191  0.45776  1.0000
  H   H1        1.0  0.28710  0.15420  0.09132  1.0000
  H   H2        1.0  0.78708  0.34580  0.90869  1.0000
  H   H3        1.0  0.71290  0.84580  0.90869  1.0000
  H   H4        1.0  0.21291  0.65420  0.09132  1.0000
  H   H5        1.0  0.27136  0.40543  0.10745  1.0000
  H   H6        1.0  0.77136  0.09456  0.89255  1.0000
  H   H7        1.0  0.72864  0.59457  0.89255  1.0000
  H   H8        1.0  0.22864  0.90543  0.10745  1.0000
  H   H9        1.0  0.86212  0.40771  0.22676  1.0000
  H   H10       1.0  0.36211  0.09229  0.77324  1.0000
  H   H11       1.0  0.13789  0.59229  0.77323  1.0000
  H   H12       1.0  0.63787  0.90771  0.22676  1.0000
  H   H13       1.0  0.55970  0.15111  0.03005  1.0000
  H   H14       1.0  0.05970  0.34889  0.96995  1.0000
  H   H15       1.0  0.44029  0.84889  0.96995  1.0000
  H   H16       1.0  0.94029  0.65111  0.03006  1.0000
  H   H17       1.0  0.54878  0.39953  0.04983  1.0000
  H   H18       1.0  0.04879  0.10047  0.95017  1.0000
  H   H19       1.0  0.45121  0.60046  0.95016  1.0000
  H   H20       1.0  0.95121  0.89953  0.04984  1.0000
  H   H21       1.0  0.88938  0.28405  0.11306  1.0000
  H   H22       1.0  0.38936  0.21595  0.88694  1.0000
  H   H23       1.0  0.11062  0.71595  0.88693  1.0000
  H   H24       1.0  0.61062  0.78405  0.11306  1.0000
  H   H25       1.0  0.53258  0.08344  0.13487  1.0000
  H   H26       1.0  0.03257  0.41656  0.86514  1.0000
  H   H27       1.0  0.46741  0.91656  0.86514  1.0000
  H   H28       1.0  0.96741  0.58344  0.13487  1.0000
  H   H29       1.0  0.49692  0.51120  0.16767  1.0000
  H   H30       1.0  0.99694  0.98880  0.83233  1.0000
  H   H31       1.0  0.50308  0.48880  0.83232  1.0000
  H   H32       1.0  0.00307  0.01120  0.16768  1.0000
  H   H33       1.0  0.86282  0.23713  0.22690  1.0000
  H   H34       1.0  0.36282  0.26288  0.77311  1.0000
  H   H35       1.0  0.13718  0.76286  0.77310  1.0000
  H   H36       1.0  0.63717  0.73713  0.22690  1.0000
  C   C1        1.0  0.43602  0.44713  0.34439  1.0000
  C   C2        1.0  0.93602  0.05287  0.65561  1.0000
  C   C3        1.0  0.56401  0.55288  0.65561  1.0000
  C   C4        1.0  0.06399  0.94713  0.34439  1.0000
  C   C5        1.0  0.60984  0.54329  0.35019  1.0000
  C   C6        1.0  0.10982  0.95671  0.64981  1.0000
  C   C7        1.0  0.39019  0.45670  0.64981  1.0000
  C   C8        1.0  0.89018  0.04330  0.35019  1.0000
  C   C9        1.0  0.41332  0.31895  0.26951  1.0000
  C   C10       1.0  0.91330  0.18106  0.73049  1.0000
  C   C11       1.0  0.58671  0.68107  0.73050  1.0000
  C   C12       1.0  0.08669  0.81894  0.26951  1.0000
  C   C13       1.0  0.53903  0.30059  0.16975  1.0000
  C   C14       1.0  0.03901  0.19941  0.83024  1.0000
  C   C15       1.0  0.46098  0.69941  0.83024  1.0000
  C   C16       1.0  0.96098  0.80059  0.16976  1.0000
  C   C17       1.0  0.47542  0.16412  0.10260  1.0000
  C   C18       1.0  0.97541  0.33588  0.89740  1.0000
  C   C19       1.0  0.52457  0.83588  0.89740  1.0000
  C   C20       1.0  0.02458  0.66412  0.10260  1.0000
  C   C21       1.0  0.45921  0.41104  0.12126  1.0000
  C   C22       1.0  0.95922  0.08896  0.87874  1.0000
  C   C23       1.0  0.54078  0.58896  0.87874  1.0000
  C   C24       1.0  0.04078  0.91104  0.12126  1.0000
  C   C25       1.0  0.80361  0.30824  0.18598  1.0000
  C   C26       1.0  0.30360  0.19177  0.81402  1.0000
  C   C27       1.0  0.19639  0.69176  0.81402  1.0000
  C   C28       1.0  0.69638  0.80824  0.18598  1.0000
  N   N1        1.0  0.27483  0.47515  0.41733  1.0000
  N   N2        1.0  0.77481  0.02485  0.58266  1.0000
  N   N3        1.0  0.72520  0.52486  0.58266  1.0000
  N   N4        1.0  0.22520  0.97515  0.41734  1.0000
  N   N5        1.0  0.72660  0.63875  0.37963  1.0000
  N   N6        1.0  0.22659  0.86125  0.62038  1.0000
  N   N7        1.0  0.27342  0.36126  0.62038  1.0000
  N   N8        1.0  0.77341  0.13874  0.37961  1.0000
  O   O1        1.0  0.27951  0.58777  0.48197  1.0000
  O   O2        1.0  0.77951  0.91223  0.51803  1.0000
  O   O3        1.0  0.72050  0.41224  0.51802  1.0000
  O   O4        1.0  0.22049  0.08778  0.48198  1.0000
  O   O5        1.0  0.28710  0.23032  0.28601  1.0000
  O   O6        1.0  0.78710  0.26968  0.71400  1.0000
  O   O7        1.0  0.71288  0.76968  0.71400  1.0000
  O   O8        1.0  0.21288  0.73032  0.28601  1.0000
