data_image0
_chemical_formula_structural       Ni2H24C20N8O12
_chemical_formula_sum              "Ni2 H24 C20 N8 O12"
_cell_length_a       7.38234
_cell_length_b       8.47469
_cell_length_c       11.0593
_cell_angle_alpha    90
_cell_angle_beta     90.0001
_cell_angle_gamma    110.455

_space_group_name_H-M_alt    "P 1"
_space_group_IT_number       1

loop_
  _space_group_symop_operation_xyz
  'x, y, z'

loop_
  _atom_site_type_symbol
  _atom_site_label
  _atom_site_symmetry_multiplicity
  _atom_site_fract_x
  _atom_site_fract_y
  _atom_site_fract_z
  _atom_site_occupancy
  Ni  Ni1       1.0  0.00000  0.50000  0.00000  1.0000
  Ni  Ni2       1.0  0.00000  0.00000  0.50000  1.0000
  H   H1        1.0  0.51478  0.45215  0.30034  1.0000
  H   H2        1.0  0.48522  0.04784  0.80035  1.0000
  H   H3        1.0  0.48522  0.54784  0.69966  1.0000
  H   H4        1.0  0.51478  0.95217  0.19965  1.0000
  H   H5        1.0  0.12655  0.35379  0.24199  1.0000
  H   H6        1.0  0.87345  0.14620  0.74199  1.0000
  H   H7        1.0  0.87345  0.64620  0.75801  1.0000
  H   H8        1.0  0.12655  0.85380  0.25801  1.0000
  H   H9        1.0  0.45079  0.71524  0.98783  1.0000
  H   H10       1.0  0.54920  0.78476  0.48782  1.0000
  H   H11       1.0  0.54921  0.28476  0.01218  1.0000
  H   H12       1.0  0.45080  0.21524  0.51218  1.0000
  H   H13       1.0  0.69040  0.66276  0.13588  1.0000
  H   H14       1.0  0.30961  0.83724  0.63588  1.0000
  H   H15       1.0  0.30961  0.33725  0.86412  1.0000
  H   H16       1.0  0.69039  0.16276  0.36412  1.0000
  H   H17       1.0  0.15463  0.55601  0.78978  1.0000
  H   H18       1.0  0.84537  0.94399  0.28978  1.0000
  H   H19       1.0  0.84537  0.44399  0.21023  1.0000
  H   H20       1.0  0.15463  0.05601  0.71022  1.0000
  H   H21       1.0  0.15576  0.73630  0.84491  1.0000
  H   H22       1.0  0.84424  0.76370  0.34492  1.0000
  H   H23       1.0  0.84424  0.26370  0.15509  1.0000
  H   H24       1.0  0.15576  0.23630  0.65509  1.0000
  C   C1        1.0  0.44131  0.49304  0.22898  1.0000
  C   C2        1.0  0.55870  0.00695  0.72899  1.0000
  C   C3        1.0  0.55869  0.50696  0.77102  1.0000
  C   C4        1.0  0.44131  0.99305  0.27101  1.0000
  C   C5        1.0  0.24944  0.44625  0.19844  1.0000
  C   C6        1.0  0.75056  0.05375  0.69844  1.0000
  C   C7        1.0  0.75056  0.55375  0.80156  1.0000
  C   C8        1.0  0.24944  0.94625  0.30156  1.0000
  C   C9        1.0  0.41237  0.63431  0.06651  1.0000
  C   C10       1.0  0.58762  0.86569  0.56652  1.0000
  C   C11       1.0  0.58763  0.36569  0.93349  1.0000
  C   C12       1.0  0.41237  0.13431  0.43349  1.0000
  C   C13       1.0  0.93545  0.03424  0.07424  1.0000
  C   C14       1.0  0.06455  0.46575  0.57425  1.0000
  C   C15       1.0  0.06455  0.96575  0.92575  1.0000
  C   C16       1.0  0.93545  0.53425  0.42575  1.0000
  C   C17       1.0  0.97120  0.88041  0.03753  1.0000
  C   C18       1.0  0.02880  0.61959  0.53753  1.0000
  C   C19       1.0  0.02880  0.11958  0.96247  1.0000
  C   C20       1.0  0.97120  0.38041  0.46247  1.0000
  N   N1        1.0  0.23279  0.53545  0.09646  1.0000
  N   N2        1.0  0.76721  0.96455  0.59645  1.0000
  N   N3        1.0  0.76721  0.46455  0.90355  1.0000
  N   N4        1.0  0.23279  0.03545  0.40355  1.0000
  N   N5        1.0  0.54109  0.61172  0.14532  1.0000
  N   N6        1.0  0.45891  0.88827  0.64532  1.0000
  N   N7        1.0  0.45891  0.38828  0.85468  1.0000
  N   N8        1.0  0.54109  0.11173  0.35468  1.0000
  O   O1        1.0  0.85646  0.07223  0.16595  1.0000
  O   O2        1.0  0.14354  0.42777  0.66595  1.0000
  O   O3        1.0  0.14354  0.92777  0.83405  1.0000
  O   O4        1.0  0.85646  0.57223  0.33405  1.0000
  O   O5        1.0  0.93290  0.73774  0.08548  1.0000
  O   O6        1.0  0.06710  0.76226  0.58549  1.0000
  O   O7        1.0  0.06709  0.26226  0.91451  1.0000
  O   O8        1.0  0.93290  0.23774  0.41451  1.0000
  O   O9        1.0  0.17037  0.62540  0.86489  1.0000
  O   O10       1.0  0.82963  0.87460  0.36489  1.0000
  O   O11       1.0  0.82963  0.37460  0.13511  1.0000
  O   O12       1.0  0.17037  0.12540  0.63511  1.0000
