data_image0
_chemical_formula_structural       Co2H20C24N16
_chemical_formula_sum              "Co2 H20 C24 N16"
_cell_length_a       8.19448
_cell_length_b       8.15914
_cell_length_c       10.1954
_cell_angle_alpha    86.0318
_cell_angle_beta     67.1845
_cell_angle_gamma    78.5112

_space_group_name_H-M_alt    "P 1"
_space_group_IT_number       1

loop_
  _space_group_symop_operation_xyz
  'x, y, z'

loop_
  _atom_site_type_symbol
  _atom_site_label
  _atom_site_symmetry_multiplicity
  _atom_site_fract_x
  _atom_site_fract_y
  _atom_site_fract_z
  _atom_site_occupancy
  Co  Co1       1.0  0.30311  0.51103  0.48153  1.0000
  Co  Co2       1.0  0.69255  0.48245  0.52193  1.0000
  H   H1        1.0  0.12856  0.53219  0.78264  1.0000
  H   H2        1.0  0.86608  0.47721  0.21306  1.0000
  H   H3        1.0  0.91546  0.39486  0.98152  1.0000
  H   H4        1.0  0.09155  0.60874  0.01669  1.0000
  H   H5        1.0  0.85684  0.11886  0.93737  1.0000
  H   H6        1.0  0.15060  0.88356  0.06149  1.0000
  H   H7        1.0  0.04166  0.97844  0.70217  1.0000
  H   H8        1.0  0.96566  0.02546  0.29658  1.0000
  H   H9        1.0  0.41680  0.15003  0.41684  1.0000
  H   H10       1.0  0.58481  0.84965  0.57881  1.0000
  H   H11       1.0  0.18208  0.87700  0.51837  1.0000
  H   H12       1.0  0.81834  0.12342  0.48668  1.0000
  H   H13       1.0  0.51715  0.05756  0.20629  1.0000
  H   H14       1.0  0.47782  0.93926  0.79658  1.0000
  H   H15       1.0  0.69257  0.90399  0.97772  1.0000
  H   H16       1.0  0.30149  0.09402  0.02507  1.0000
  H   H17       1.0  0.65863  0.60555  0.96156  1.0000
  H   H18       1.0  0.33650  0.39137  0.04197  1.0000
  H   H19       1.0  0.46860  0.47472  0.17954  1.0000
  H   H20       1.0  0.53150  0.52111  0.82448  1.0000
  C   C1        1.0  0.10927  0.40797  0.76800  1.0000
  C   C2        1.0  0.88932  0.59995  0.22793  1.0000
  C   C3        1.0  0.98717  0.33284  0.87843  1.0000
  C   C4        1.0  0.01725  0.67153  0.11920  1.0000
  C   C5        1.0  0.95577  0.17835  0.85364  1.0000
  C   C6        1.0  0.04951  0.82556  0.14470  1.0000
  C   C7        1.0  0.05738  0.10217  0.72269  1.0000
  C   C8        1.0  0.94724  0.90298  0.27528  1.0000
  C   C9        1.0  0.18683  0.17951  0.61589  1.0000
  C   C10       1.0  0.81421  0.82674  0.37978  1.0000
  C   C11       1.0  0.30666  0.08989  0.48441  1.0000
  C   C12       1.0  0.69432  0.91203  0.51343  1.0000
  C   C13       1.0  0.29036  0.93868  0.44885  1.0000
  C   C14       1.0  0.71057  0.06016  0.55457  1.0000
  C   C15       1.0  0.40438  0.84648  0.31776  1.0000
  C   C16       1.0  0.59597  0.14918  0.68707  1.0000
  C   C17       1.0  0.51173  0.92677  0.19792  1.0000
  C   C18       1.0  0.48533  0.06941  0.80554  1.0000
  C   C19       1.0  0.60835  0.84174  0.06982  1.0000
  C   C20       1.0  0.38778  0.15524  0.93332  1.0000
  C   C21       1.0  0.59061  0.67701  0.06061  1.0000
  C   C22       1.0  0.40622  0.31991  0.94303  1.0000
  C   C23       1.0  0.48471  0.60317  0.18269  1.0000
  C   C24       1.0  0.51513  0.39253  0.82180  1.0000
  N   N1        1.0  0.20398  0.33870  0.63708  1.0000
  N   N2        1.0  0.79118  0.67114  0.35709  1.0000
  N   N3        1.0  0.39747  0.68135  0.30988  1.0000
  N   N4        1.0  0.60524  0.31346  0.69513  1.0000
  N   N5        1.0  0.57578  0.37368  0.41064  1.0000
  N   N6        1.0  0.42309  0.61516  0.59195  1.0000
  N   N7        1.0  0.65224  0.30026  0.29828  1.0000
  N   N8        1.0  0.34257  0.69584  0.70042  1.0000
  N   N9        1.0  0.72572  0.22774  0.18976  1.0000
  N   N10       1.0  0.26887  0.77445  0.80582  1.0000
  N   N11       1.0  0.07723  0.37488  0.39180  1.0000
  N   N12       1.0  0.92550  0.62366  0.60487  1.0000
  N   N13       1.0  0.22476  0.40683  0.35504  1.0000
  N   N14       1.0  0.77915  0.59105  0.64188  1.0000
  N   N15       1.0  0.93341  0.33878  0.42469  1.0000
  N   N16       1.0  0.06937  0.66277  0.57044  1.0000
