data_image0
_chemical_formula_structural       Cu6H30C30S6I6N6
_chemical_formula_sum              "Cu6 H30 C30 S6 I6 N6"
_cell_length_a       7.79383
_cell_length_b       13.1944
_cell_length_c       13.271
_cell_angle_alpha    65.7489
_cell_angle_beta     82.6067
_cell_angle_gamma    83.1074

_space_group_name_H-M_alt    "P 1"
_space_group_IT_number       1

loop_
  _space_group_symop_operation_xyz
  'x, y, z'

loop_
  _atom_site_type_symbol
  _atom_site_label
  _atom_site_symmetry_multiplicity
  _atom_site_fract_x
  _atom_site_fract_y
  _atom_site_fract_z
  _atom_site_occupancy
  Cu  Cu1       1.0  0.45723  0.09166  0.62249  1.0000
  Cu  Cu2       1.0  0.54278  0.90834  0.37751  1.0000
  Cu  Cu3       1.0  0.21747  0.10447  0.48894  1.0000
  Cu  Cu4       1.0  0.78253  0.89553  0.51106  1.0000
  Cu  Cu5       1.0  0.70008  0.21637  0.33237  1.0000
  Cu  Cu6       1.0  0.29993  0.78363  0.66763  1.0000
  H   H1        1.0  0.57541  0.41764  0.30092  1.0000
  H   H2        1.0  0.42459  0.58237  0.69908  1.0000
  H   H3        1.0  0.97821  0.11643  0.65477  1.0000
  H   H4        1.0  0.02182  0.88357  0.34523  1.0000
  H   H5        1.0  0.48267  0.95694  0.82247  1.0000
  H   H6        1.0  0.51732  0.04306  0.17753  1.0000
  H   H7        1.0  0.19843  0.31458  0.57199  1.0000
  H   H8        1.0  0.80158  0.68541  0.42801  1.0000
  H   H9        1.0  0.13478  0.51378  0.54785  1.0000
  H   H10       1.0  0.86521  0.48621  0.45215  1.0000
  H   H11       1.0  0.30554  0.66235  0.39917  1.0000
  H   H12       1.0  0.69444  0.33765  0.60084  1.0000
  H   H13       1.0  0.53347  0.60515  0.27515  1.0000
  H   H14       1.0  0.46652  0.39485  0.72486  1.0000
  H   H15       1.0  0.16357  0.80920  0.88836  1.0000
  H   H16       1.0  0.83642  0.19079  0.11164  1.0000
  H   H17       1.0  0.94146  0.83587  0.03188  1.0000
  H   H18       1.0  0.05854  0.16413  0.96812  1.0000
  H   H19       1.0  0.73740  0.00658  0.97915  1.0000
  H   H20       1.0  0.26261  0.99343  0.02085  1.0000
  H   H21       1.0  0.76643  0.15008  0.77981  1.0000
  H   H22       1.0  0.23358  0.84993  0.22018  1.0000
  H   H23       1.0  0.86114  0.74456  0.73783  1.0000
  H   H24       1.0  0.13886  0.25544  0.26217  1.0000
  H   H25       1.0  0.82131  0.60144  0.93093  1.0000
  H   H26       1.0  0.17869  0.39856  0.06907  1.0000
  H   H27       1.0  0.60433  0.64084  0.06930  1.0000
  H   H28       1.0  0.39566  0.35917  0.93069  1.0000
  H   H29       1.0  0.43359  0.82956  0.00593  1.0000
  H   H30       1.0  0.56640  0.17045  0.99408  1.0000
  C   C1        1.0  0.39727  0.35279  0.43632  1.0000
  C   C2        1.0  0.60274  0.64721  0.56368  1.0000
  C   C3        1.0  0.26720  0.38119  0.50646  1.0000
  C   C4        1.0  0.73281  0.61881  0.49354  1.0000
  C   C5        1.0  0.23351  0.49138  0.49279  1.0000
  C   C6        1.0  0.76648  0.50861  0.50721  1.0000
  C   C7        1.0  0.32747  0.57582  0.40894  1.0000
  C   C8        1.0  0.67252  0.42418  0.59106  1.0000
  C   C9        1.0  0.45244  0.54583  0.34089  1.0000
  C   C10       1.0  0.54755  0.45417  0.65911  1.0000
  C   C11       1.0  0.08952  0.96704  0.75990  1.0000
  C   C12       1.0  0.91049  0.03296  0.24010  1.0000
  C   C13       1.0  0.07695  0.88477  0.86904  1.0000
  C   C14       1.0  0.92305  0.11523  0.13096  1.0000
  C   C15       1.0  0.95265  0.89942  0.94731  1.0000
  C   C16       1.0  0.04736  0.10058  0.05269  1.0000
  C   C17       1.0  0.83794  0.99604  0.91855  1.0000
  C   C18       1.0  0.16207  0.00396  0.08145  1.0000
  C   C19       1.0  0.85333  0.07505  0.81144  1.0000
  C   C20       1.0  0.14667  0.92495  0.18856  1.0000
  C   C21       1.0  0.66821  0.86328  0.76631  1.0000
  C   C22       1.0  0.33179  0.13671  0.23369  1.0000
  C   C23       1.0  0.76586  0.75973  0.79869  1.0000
  C   C24       1.0  0.23413  0.24026  0.20131  1.0000
  C   C25       1.0  0.74340  0.68078  0.90630  1.0000
  C   C26       1.0  0.25659  0.31922  0.09370  1.0000
  C   C27       1.0  0.62301  0.70278  0.98470  1.0000
  C   C28       1.0  0.37697  0.29722  0.01530  1.0000
  C   C29       1.0  0.52822  0.80410  0.95138  1.0000
  C   C30       1.0  0.47178  0.19590  0.04862  1.0000
  S   S1        1.0  0.45448  0.21940  0.44396  1.0000
  S   S2        1.0  0.54552  0.78060  0.55603  1.0000
  S   S3        1.0  0.24118  0.95860  0.65640  1.0000
  S   S4        1.0  0.75883  0.04139  0.34361  1.0000
  S   S5        1.0  0.69592  0.97107  0.63762  1.0000
  S   S6        1.0  0.30408  0.02892  0.36239  1.0000
  I   I1        1.0  0.37624  0.16206  0.78120  1.0000
  I   I2        1.0  0.62377  0.83794  0.21879  1.0000
  I   I3        1.0  0.74568  0.38671  0.14738  1.0000
  I   I4        1.0  0.25431  0.61328  0.85262  1.0000
  I   I5        1.0  0.93729  0.23855  0.46011  1.0000
  I   I6        1.0  0.06271  0.76145  0.53989  1.0000
  N   N1        1.0  0.48306  0.43785  0.35565  1.0000
  N   N2        1.0  0.51694  0.56216  0.64435  1.0000
  N   N3        1.0  0.97686  0.05925  0.73691  1.0000
  N   N4        1.0  0.02315  0.94075  0.26309  1.0000
  N   N5        1.0  0.55122  0.87960  0.84529  1.0000
  N   N6        1.0  0.44877  0.12040  0.15471  1.0000
