data_image0
_chemical_formula_structural       ZnH26C28S2N2O10
_chemical_formula_sum              "Zn1 H26 C28 S2 N2 O10"
_cell_length_a       5.57651
_cell_length_b       11.2846
_cell_length_c       10.9629
_cell_angle_alpha    88.5364
_cell_angle_beta     93.6179
_cell_angle_gamma    100.715

_space_group_name_H-M_alt    "P 1"
_space_group_IT_number       1

loop_
  _space_group_symop_operation_xyz
  'x, y, z'

loop_
  _atom_site_type_symbol
  _atom_site_label
  _atom_site_symmetry_multiplicity
  _atom_site_fract_x
  _atom_site_fract_y
  _atom_site_fract_z
  _atom_site_occupancy
  Zn  Zn1       1.0  0.50000  0.49999  0.50000  1.0000
  H   H1        1.0  0.38302  0.72916  0.08662  1.0000
  H   H2        1.0  0.61699  0.27085  0.91339  1.0000
  H   H3        1.0  0.08343  0.50353  0.63215  1.0000
  H   H4        1.0  0.91657  0.49645  0.36786  1.0000
  H   H5        1.0  0.32134  0.46630  0.70559  1.0000
  H   H6        1.0  0.67865  0.53368  0.29443  1.0000
  H   H7        1.0  0.75301  0.85488  0.24352  1.0000
  H   H8        1.0  0.24701  0.14514  0.75648  1.0000
  H   H9        1.0  0.62937  0.05129  0.27335  1.0000
  H   H10       1.0  0.37062  0.94872  0.72664  1.0000
  H   H11       1.0  0.27576  0.23261  0.10057  1.0000
  H   H12       1.0  0.72424  0.76741  0.89943  1.0000
  H   H13       1.0  0.39287  0.03780  0.06973  1.0000
  H   H14       1.0  0.60713  0.96222  0.93026  1.0000
  H   H15       1.0  0.09627  0.38655  0.05862  1.0000
  H   H16       1.0  0.90372  0.61346  0.94138  1.0000
  H   H17       1.0  0.92470  0.48097  0.12808  1.0000
  H   H18       1.0  0.07530  0.51904  0.87193  1.0000
  H   H19       1.0  0.14520  0.66744  0.41003  1.0000
  H   H20       1.0  0.85479  0.33254  0.58996  1.0000
  H   H21       1.0  0.13511  0.88401  0.40887  1.0000
  H   H22       1.0  0.86490  0.11598  0.59111  1.0000
  H   H23       1.0  0.86305  0.94176  0.58671  1.0000
  H   H24       1.0  0.13693  0.05822  0.41330  1.0000
  H   H25       1.0  0.84359  0.72180  0.57748  1.0000
  H   H26       1.0  0.15640  0.27818  0.42253  1.0000
  C   C1        1.0  0.08165  0.93196  0.15499  1.0000
  C   C2        1.0  0.91835  0.06805  0.84501  1.0000
  C   C3        1.0  0.86677  0.93822  0.21323  1.0000
  C   C4        1.0  0.13324  0.06179  0.78676  1.0000
  C   C5        1.0  0.79793  0.04817  0.22965  1.0000
  C   C6        1.0  0.20206  0.95183  0.77034  1.0000
  C   C7        1.0  0.94049  0.15654  0.18739  1.0000
  C   C8        1.0  0.05950  0.84347  0.81260  1.0000
  C   C9        1.0  0.15874  0.15096  0.13230  1.0000
  C   C10       1.0  0.84126  0.84905  0.86769  1.0000
  C   C11       1.0  0.22689  0.03985  0.11604  1.0000
  C   C12       1.0  0.77311  0.96016  0.88395  1.0000
  C   C13       1.0  0.13724  0.81107  0.13483  1.0000
  C   C14       1.0  0.86276  0.18897  0.86516  1.0000
  C   C15       1.0  0.03455  0.41004  0.14633  1.0000
  C   C16       1.0  0.96545  0.58998  0.85367  1.0000
  C   C17       1.0  0.25305  0.46330  0.23316  1.0000
  C   C18       1.0  0.74694  0.53669  0.76685  1.0000
  C   C19       1.0  0.30142  0.73116  0.44819  1.0000
  C   C20       1.0  0.69859  0.26882  0.55181  1.0000
  C   C21       1.0  0.29753  0.85376  0.44811  1.0000
  C   C22       1.0  0.70247  0.14623  0.55189  1.0000
  C   C23       1.0  0.49936  0.93464  0.49808  1.0000
  C   C24       1.0  0.50067  0.06535  0.50193  1.0000
  C   C25       1.0  0.70008  0.88580  0.54497  1.0000
  C   C26       1.0  0.29993  0.11418  0.45504  1.0000
  C   C27       1.0  0.69116  0.76238  0.54100  1.0000
  C   C28       1.0  0.30884  0.23760  0.45901  1.0000
  S   S1        1.0  0.81760  0.28625  0.20598  1.0000
  S   S2        1.0  0.18238  0.71376  0.79401  1.0000
  N   N1        1.0  0.49485  0.68588  0.49442  1.0000
  N   N2        1.0  0.50514  0.31410  0.50559  1.0000
  O   O1        1.0  0.21272  0.46787  0.34700  1.0000
  O   O2        1.0  0.78727  0.53211  0.65300  1.0000
  O   O3        1.0  0.45340  0.50179  0.18611  1.0000
  O   O4        1.0  0.54659  0.49820  0.81390  1.0000
  O   O5        1.0  0.99515  0.71570  0.15199  1.0000
  O   O6        1.0  0.00486  0.28431  0.84801  1.0000
  O   O7        1.0  0.36463  0.81346  0.09523  1.0000
  O   O8        1.0  0.63537  0.18655  0.90477  1.0000
  O   O9        1.0  0.22059  0.45944  0.62549  1.0000
  O   O10       1.0  0.77940  0.54055  0.37452  1.0000
