data_image0
_chemical_formula_structural       NiH26C28S2N2O10
_chemical_formula_sum              "Ni1 H26 C28 S2 N2 O10"
_cell_length_a       4.76545
_cell_length_b       10.9345
_cell_length_c       12.9924
_cell_angle_alpha    86.0674
_cell_angle_beta     89.2115
_cell_angle_gamma    98.6794

_space_group_name_H-M_alt    "P 1"
_space_group_IT_number       1

loop_
  _space_group_symop_operation_xyz
  'x, y, z'

loop_
  _atom_site_type_symbol
  _atom_site_label
  _atom_site_symmetry_multiplicity
  _atom_site_fract_x
  _atom_site_fract_y
  _atom_site_fract_z
  _atom_site_occupancy
  Ni  Ni1       1.0  0.50000  0.50000  0.50000  1.0000
  H   H1        1.0  0.36649  0.69708  0.10003  1.0000
  H   H2        1.0  0.63351  0.30292  0.89996  1.0000
  H   H3        1.0  0.20348  0.50696  0.66029  1.0000
  H   H4        1.0  0.79651  0.49304  0.33971  1.0000
  H   H5        1.0  0.54766  0.49307  0.68568  1.0000
  H   H6        1.0  0.45232  0.50692  0.31432  1.0000
  H   H7        1.0  0.72715  0.85378  0.27615  1.0000
  H   H8        1.0  0.27286  0.14622  0.72385  1.0000
  H   H9        1.0  0.55849  0.05714  0.29014  1.0000
  H   H10       1.0  0.44152  0.94286  0.70987  1.0000
  H   H11       1.0  0.19887  0.22577  0.06429  1.0000
  H   H12       1.0  0.80113  0.77423  0.93570  1.0000
  H   H13       1.0  0.35617  0.02503  0.04958  1.0000
  H   H14       1.0  0.64382  0.97496  0.95042  1.0000
  H   H15       1.0  0.99057  0.38468  0.04635  1.0000
  H   H16       1.0  0.00943  0.61532  0.95364  1.0000
  H   H17       1.0  0.78557  0.48212  0.10630  1.0000
  H   H18       1.0  0.21443  0.51787  0.89369  1.0000
  H   H19       1.0  0.18964  0.67338  0.38844  1.0000
  H   H20       1.0  0.81037  0.32662  0.61157  1.0000
  H   H21       1.0  0.17190  0.89429  0.38543  1.0000
  H   H22       1.0  0.82810  0.10572  0.61458  1.0000
  H   H23       1.0  0.83645  0.92116  0.61256  1.0000
  H   H24       1.0  0.16355  0.07884  0.38746  1.0000
  H   H25       1.0  0.80298  0.69509  0.61578  1.0000
  H   H26       1.0  0.19701  0.30491  0.38423  1.0000
  C   C1        1.0  0.05485  0.92570  0.16357  1.0000
  C   C2        1.0  0.94515  0.07430  0.83642  1.0000
  C   C3        1.0  0.83008  0.93697  0.23168  1.0000
  C   C4        1.0  0.16993  0.06303  0.76832  1.0000
  C   C5        1.0  0.73788  0.04996  0.23955  1.0000
  C   C6        1.0  0.26213  0.95004  0.76046  1.0000
  C   C7        1.0  0.86843  0.15658  0.17986  1.0000
  C   C8        1.0  0.13156  0.84342  0.82014  1.0000
  C   C9        1.0  0.09256  0.14572  0.11141  1.0000
  C   C10       1.0  0.90743  0.85428  0.88858  1.0000
  C   C11       1.0  0.18241  0.03110  0.10318  1.0000
  C   C12       1.0  0.81759  0.96890  0.89682  1.0000
  C   C13       1.0  0.13999  0.80110  0.16298  1.0000
  C   C14       1.0  0.86003  0.19890  0.83702  1.0000
  C   C15       1.0  0.93153  0.41392  0.12156  1.0000
  C   C16       1.0  0.06847  0.58608  0.87843  1.0000
  C   C17       1.0  0.18990  0.47930  0.17421  1.0000
  C   C18       1.0  0.81010  0.52071  0.82579  1.0000
  C   C19       1.0  0.32326  0.73000  0.44013  1.0000
  C   C20       1.0  0.67675  0.27001  0.55987  1.0000
  C   C21       1.0  0.31895  0.85698  0.43789  1.0000
  C   C22       1.0  0.68105  0.14303  0.56212  1.0000
  C   C23       1.0  0.50119  0.93201  0.49992  1.0000
  C   C24       1.0  0.49882  0.06800  0.50008  1.0000
  C   C25       1.0  0.68435  0.87172  0.56227  1.0000
  C   C26       1.0  0.31565  0.12829  0.43774  1.0000
  C   C27       1.0  0.67198  0.74376  0.56387  1.0000
  C   C28       1.0  0.32801  0.25624  0.43614  1.0000
  S   S1        1.0  0.71463  0.28940  0.19575  1.0000
  S   S2        1.0  0.28537  0.71059  0.80425  1.0000
  N   N1        1.0  0.49411  0.67396  0.50365  1.0000
  N   N2        1.0  0.50590  0.32604  0.49636  1.0000
  O   O1        1.0  0.19599  0.46371  0.27338  1.0000
  O   O2        1.0  0.80401  0.53629  0.72662  1.0000
  O   O3        1.0  0.37647  0.54639  0.11775  1.0000
  O   O4        1.0  0.62353  0.45361  0.88225  1.0000
  O   O5        1.0  0.04135  0.71651  0.22720  1.0000
  O   O6        1.0  0.95869  0.28350  0.77280  1.0000
  O   O7        1.0  0.32962  0.78596  0.08910  1.0000
  O   O8        1.0  0.67038  0.21405  0.91089  1.0000
  O   O9        1.0  0.36305  0.46660  0.63784  1.0000
  O   O10       1.0  0.63694  0.53339  0.36216  1.0000
