data_image0
_chemical_formula_structural       Ag2H20C22N6O6
_chemical_formula_sum              "Ag2 H20 C22 N6 O6"
_cell_length_a       5.39959
_cell_length_b       8.18498
_cell_length_c       12.8053
_cell_angle_alpha    90.0006
_cell_angle_beta     94.5492
_cell_angle_gamma    90.0006

_space_group_name_H-M_alt    "P 1"
_space_group_IT_number       1

loop_
  _space_group_symop_operation_xyz
  'x, y, z'

loop_
  _atom_site_type_symbol
  _atom_site_label
  _atom_site_symmetry_multiplicity
  _atom_site_fract_x
  _atom_site_fract_y
  _atom_site_fract_z
  _atom_site_occupancy
  Ag  Ag1       1.0  1.00000  0.24604  0.25000  1.0000
  Ag  Ag2       1.0  0.00000  0.75396  0.75000  1.0000
  H   H1        1.0  0.33526  0.55769  0.24741  1.0000
  H   H2        1.0  0.33526  0.44231  0.74741  1.0000
  H   H3        1.0  0.66477  0.44233  0.75259  1.0000
  H   H4        1.0  0.66478  0.55767  0.25259  1.0000
  H   H5        1.0  0.13693  0.47431  0.09086  1.0000
  H   H6        1.0  0.13693  0.52568  0.59087  1.0000
  H   H7        1.0  0.86306  0.52570  0.90914  1.0000
  H   H8        1.0  0.86307  0.47431  0.40914  1.0000
  H   H9        1.0  0.13491  0.31435  0.92172  1.0000
  H   H10       1.0  0.13492  0.68566  0.42172  1.0000
  H   H11       1.0  0.86507  0.68567  0.07828  1.0000
  H   H12       1.0  0.86508  0.31434  0.57828  1.0000
  H   H13       1.0  0.50637  0.13776  0.89383  1.0000
  H   H14       1.0  0.50639  0.86224  0.39384  1.0000
  H   H15       1.0  0.49360  0.86225  0.10616  1.0000
  H   H16       1.0  0.49361  0.13775  0.60616  1.0000
  H   H17       1.0  0.84477  0.11828  0.03563  1.0000
  H   H18       1.0  0.84480  0.88172  0.53564  1.0000
  H   H19       1.0  0.15519  0.88172  0.96437  1.0000
  H   H20       1.0  0.15521  0.11828  0.46436  1.0000
  C   C1        1.0  0.50001  0.47813  0.25000  1.0000
  C   C2        1.0  0.50001  0.52187  0.75000  1.0000
  C   C3        1.0  0.48948  0.37862  0.15098  1.0000
  C   C4        1.0  0.48948  0.62138  0.65098  1.0000
  C   C5        1.0  0.51053  0.62138  0.84902  1.0000
  C   C6        1.0  0.51054  0.37861  0.34902  1.0000
  C   C7        1.0  0.28824  0.39189  0.07571  1.0000
  C   C8        1.0  0.28825  0.60811  0.57571  1.0000
  C   C9        1.0  0.71173  0.60812  0.92428  1.0000
  C   C10       1.0  0.71175  0.39189  0.42428  1.0000
  C   C11       1.0  0.28842  0.30499  0.98213  1.0000
  C   C12       1.0  0.28843  0.69501  0.48214  1.0000
  C   C13       1.0  0.71157  0.69502  0.01787  1.0000
  C   C14       1.0  0.71158  0.30499  0.51787  1.0000
  C   C15       1.0  0.49178  0.20601  0.96601  1.0000
  C   C16       1.0  0.49179  0.79399  0.46602  1.0000
  C   C17       1.0  0.50818  0.79401  0.03398  1.0000
  C   C18       1.0  0.50820  0.20601  0.53398  1.0000
  C   C19       1.0  0.68420  0.19596  0.04456  1.0000
  C   C20       1.0  0.68421  0.80404  0.54456  1.0000
  C   C21       1.0  0.31579  0.80404  0.95544  1.0000
  C   C22       1.0  0.31580  0.19597  0.45544  1.0000
  N   N1        1.0  0.68414  0.27992  0.13527  1.0000
  N   N2        1.0  0.68415  0.72007  0.63527  1.0000
  N   N3        1.0  0.31584  0.72008  0.86473  1.0000
  N   N4        1.0  0.31585  0.27993  0.36472  1.0000
  N   N5        1.0  0.00001  0.87116  0.25000  1.0000
  N   N6        1.0  0.00001  0.12884  0.75000  1.0000
  O   O1        1.0  0.91441  0.94875  0.32528  1.0000
  O   O2        1.0  0.91441  0.05126  0.82528  1.0000
  O   O3        1.0  0.08561  0.05125  0.67472  1.0000
  O   O4        1.0  0.08560  0.94874  0.17472  1.0000
  O   O5        1.0  0.00002  0.71583  0.25001  1.0000
  O   O6        1.0  0.00001  0.28417  0.75000  1.0000
