data_image0
_chemical_formula_structural       Cu2H22C18N12Cl2
_chemical_formula_sum              "Cu2 H22 C18 N12 Cl2"
_cell_length_a       6.07795
_cell_length_b       7.12044
_cell_length_c       13.6496
_cell_angle_alpha    90.0003
_cell_angle_beta     90.0006
_cell_angle_gamma    89.9995

_space_group_name_H-M_alt    "P 1"
_space_group_IT_number       1

loop_
  _space_group_symop_operation_xyz
  'x, y, z'

loop_
  _atom_site_type_symbol
  _atom_site_label
  _atom_site_symmetry_multiplicity
  _atom_site_fract_x
  _atom_site_fract_y
  _atom_site_fract_z
  _atom_site_occupancy
  Cu  Cu1       1.0  0.32648  0.91691  0.50000  1.0000
  Cu  Cu2       1.0  0.67352  0.41689  0.00001  1.0000
  H   H1        1.0  0.50456  0.77913  0.13654  1.0000
  H   H2        1.0  0.49542  0.27913  0.36346  1.0000
  H   H3        1.0  0.49543  0.27913  0.63655  1.0000
  H   H4        1.0  0.50456  0.77913  0.86345  1.0000
  H   H5        1.0  0.99313  0.98132  0.31901  1.0000
  H   H6        1.0  0.00687  0.48131  0.18099  1.0000
  H   H7        1.0  0.00687  0.48131  0.81902  1.0000
  H   H8        1.0  0.99313  0.98131  0.68098  1.0000
  H   H9        1.0  0.10208  0.88884  0.12813  1.0000
  H   H10       1.0  0.89790  0.38885  0.37188  1.0000
  H   H11       1.0  0.89791  0.38885  0.62814  1.0000
  H   H12       1.0  0.10209  0.88885  0.87186  1.0000
  H   H13       1.0  0.64306  0.77196  0.31415  1.0000
  H   H14       1.0  0.35694  0.27195  0.18585  1.0000
  H   H15       1.0  0.35693  0.27195  0.81416  1.0000
  H   H16       1.0  0.64307  0.77195  0.68584  1.0000
  H   H17       1.0  0.05827  0.56655  0.50000  1.0000
  H   H18       1.0  0.94173  0.06652  0.00000  1.0000
  H   H19       1.0  0.59719  0.56389  0.50000  1.0000
  H   H20       1.0  0.40282  0.06386  1.00000  1.0000
  H   H21       1.0  0.82522  0.12385  0.49999  1.0000
  H   H22       1.0  0.17479  0.62382  0.00001  1.0000
  C   C1        1.0  0.14423  0.92356  0.28995  1.0000
  C   C2        1.0  0.85578  0.42355  0.21006  1.0000
  C   C3        1.0  0.85577  0.42355  0.78996  1.0000
  C   C4        1.0  0.14423  0.92355  0.71005  1.0000
  C   C5        1.0  0.19697  0.87883  0.19495  1.0000
  C   C6        1.0  0.80302  0.37883  0.30505  1.0000
  C   C7        1.0  0.80304  0.37882  0.69497  1.0000
  C   C8        1.0  0.19695  0.87883  0.80504  1.0000
  C   C9        1.0  0.48133  0.81855  0.29118  1.0000
  C   C10       1.0  0.51868  0.31855  0.20882  1.0000
  C   C11       1.0  0.51868  0.31855  0.79119  1.0000
  C   C12       1.0  0.48132  0.81855  0.70881  1.0000
  C   C13       1.0  0.94037  0.68144  0.49999  1.0000
  C   C14       1.0  0.05964  0.18143  0.00000  1.0000
  C   C15       1.0  0.71327  0.68016  0.50000  1.0000
  C   C16       1.0  0.28673  0.18012  0.00000  1.0000
  C   C17       1.0  0.82523  0.97166  0.50000  1.0000
  C   C18       1.0  0.17478  0.47165  0.00000  1.0000
  N   N1        1.0  0.32267  0.88479  0.34952  1.0000
  N   N2        1.0  0.67733  0.38478  0.15049  1.0000
  N   N3        1.0  0.67733  0.38478  0.84952  1.0000
  N   N4        1.0  0.32265  0.88479  0.65048  1.0000
  N   N5        1.0  0.40998  0.81274  0.19731  1.0000
  N   N6        1.0  0.59001  0.31274  0.30269  1.0000
  N   N7        1.0  0.59000  0.31274  0.69732  1.0000
  N   N8        1.0  0.40999  0.81274  0.80269  1.0000
  N   N9        1.0  0.00858  0.86550  0.49999  1.0000
  N   N10       1.0  0.99141  0.36547  0.00001  1.0000
  N   N11       1.0  0.64276  0.86412  0.50000  1.0000
  N   N12       1.0  0.35726  0.36407  0.00000  1.0000
  Cl  Cl1       1.0  0.31421  0.27879  0.50001  1.0000
  Cl  Cl2       1.0  0.68580  0.77877  1.00000  1.0000
