data_image0
_chemical_formula_structural       Ni2H32C30N12O8
_chemical_formula_sum              "Ni2 H32 C30 N12 O8"
_cell_length_a       7.14105
_cell_length_b       11.155
_cell_length_c       11.155
_cell_angle_alpha    65.2106
_cell_angle_beta     80.3458
_cell_angle_gamma    80.3457

_space_group_name_H-M_alt    "P 1"
_space_group_IT_number       1

loop_
  _space_group_symop_operation_xyz
  'x, y, z'

loop_
  _atom_site_type_symbol
  _atom_site_label
  _atom_site_symmetry_multiplicity
  _atom_site_fract_x
  _atom_site_fract_y
  _atom_site_fract_z
  _atom_site_occupancy
  Ni  Ni1       1.0  0.18310  0.59755  0.91218  1.0000
  Ni  Ni2       1.0  0.68310  0.91218  0.59755  1.0000
  H   H1        1.0  0.43532  0.65007  0.05486  1.0000
  H   H2        1.0  0.93532  0.05486  0.65007  1.0000
  H   H3        1.0  0.51369  0.68327  0.90276  1.0000
  H   H4        1.0  0.01369  0.90276  0.68327  1.0000
  H   H5        1.0  0.08023  0.27129  0.51970  1.0000
  H   H6        1.0  0.58023  0.51970  0.27129  1.0000
  H   H7        1.0  0.17466  0.52697  0.19739  1.0000
  H   H8        1.0  0.67466  0.19739  0.52697  1.0000
  H   H9        1.0  0.08943  0.11410  0.41270  1.0000
  H   H10       1.0  0.58943  0.41269  0.11410  1.0000
  H   H11       1.0  0.10441  0.10019  0.19197  1.0000
  H   H12       1.0  0.60442  0.19196  0.10019  1.0000
  H   H13       1.0  0.13762  0.30841  0.98247  1.0000
  H   H14       1.0  0.63763  0.98246  0.30842  1.0000
  H   H15       1.0  0.88055  0.24270  0.76631  1.0000
  H   H16       1.0  0.38055  0.76631  0.24270  1.0000
  H   H17       1.0  0.55762  0.41677  0.94297  1.0000
  H   H18       1.0  0.05763  0.94297  0.41678  1.0000
  H   H19       1.0  0.69130  0.33163  0.59366  1.0000
  H   H20       1.0  0.19130  0.59366  0.33162  1.0000
  H   H21       1.0  0.38774  0.46784  0.51486  1.0000
  H   H22       1.0  0.88774  0.51487  0.46783  1.0000
  H   H23       1.0  0.17887  0.57351  0.65707  1.0000
  H   H24       1.0  0.67887  0.65707  0.57351  1.0000
  H   H25       1.0  0.80879  0.56125  0.07249  1.0000
  H   H26       1.0  0.30879  0.07249  0.56124  1.0000
  H   H27       1.0  0.61806  0.90085  0.16917  1.0000
  H   H28       1.0  0.11806  0.16917  0.90085  1.0000
  H   H29       1.0  0.93297  0.98621  0.05756  1.0000
  H   H30       1.0  0.43297  0.05756  0.98621  1.0000
  H   H31       1.0  0.17009  0.85422  0.95397  1.0000
  H   H32       1.0  0.67009  0.95398  0.85422  1.0000
  C   C1        1.0  0.15810  0.43082  0.19995  1.0000
  C   C2        1.0  0.65811  0.19995  0.43082  1.0000
  C   C3        1.0  0.13092  0.32238  0.32230  1.0000
  C   C4        1.0  0.63093  0.32229  0.32238  1.0000
  C   C5        1.0  0.11150  0.20052  0.31966  1.0000
  C   C6        1.0  0.61149  0.31965  0.20053  1.0000
  C   C7        1.0  0.11757  0.19387  0.19702  1.0000
  C   C8        1.0  0.61757  0.19701  0.19387  1.0000
  C   C9        1.0  0.13923  0.30746  0.08023  1.0000
  C   C10       1.0  0.63923  0.08023  0.30746  1.0000
  C   C11       1.0  0.52253  0.42369  0.84910  1.0000
  C   C12       1.0  0.02254  0.84910  0.42369  1.0000
  C   C13       1.0  0.64485  0.35738  0.77829  1.0000
  C   C14       1.0  0.14485  0.77829  0.35738  1.0000
  C   C15       1.0  0.59645  0.37625  0.65439  1.0000
  C   C16       1.0  0.09645  0.65439  0.37625  1.0000
  C   C17       1.0  0.42833  0.45377  0.60995  1.0000
  C   C18       1.0  0.92833  0.60995  0.45376  1.0000
  C   C19       1.0  0.31257  0.51332  0.68758  1.0000
  C   C20       1.0  0.81257  0.68759  0.51332  1.0000
  C   C21       1.0  0.83055  0.65631  0.07091  1.0000
  C   C22       1.0  0.33056  0.07090  0.65631  1.0000
  C   C23       1.0  0.68466  0.72410  0.12857  1.0000
  C   C24       1.0  0.18465  0.12857  0.72410  1.0000
  C   C25       1.0  0.72516  0.84527  0.12462  1.0000
  C   C26       1.0  0.22515  0.12462  0.84527  1.0000
  C   C27       1.0  0.89998  0.89207  0.06284  1.0000
  C   C28       1.0  0.39998  0.06284  0.89207  1.0000
  C   C29       1.0  0.03349  0.81963  0.00528  1.0000
  C   C30       1.0  0.53349  0.00528  0.81962  1.0000
  N   N1        1.0  0.94990  0.56876  0.83922  1.0000
  N   N2        1.0  0.44990  0.83922  0.56876  1.0000
  N   N3        1.0  0.82748  0.65747  0.80570  1.0000
  N   N4        1.0  0.32749  0.80570  0.65747  1.0000
  N   N5        1.0  0.70029  0.74515  0.77712  1.0000
  N   N6        1.0  0.20030  0.77712  0.74515  1.0000
  N   N7        1.0  0.15968  0.42419  0.08273  1.0000
  N   N8        1.0  0.65969  0.08272  0.42419  1.0000
  N   N9        1.0  0.36081  0.49929  0.80488  1.0000
  N   N10       1.0  0.86080  0.80488  0.49929  1.0000
  N   N11       1.0  0.99779  0.70282  0.01009  1.0000
  N   N12       1.0  0.49779  0.01009  0.70282  1.0000
  O   O1        1.0  0.42654  0.62761  0.97830  1.0000
  O   O2        1.0  0.92654  0.97830  0.62761  1.0000
  O   O3        1.0  0.12696  0.34439  0.43234  1.0000
  O   O4        1.0  0.62696  0.43234  0.34438  1.0000
  O   O5        1.0  0.80065  0.27950  0.83153  1.0000
  O   O6        1.0  0.30066  0.83153  0.27950  1.0000
  O   O7        1.0  0.51842  0.67350  0.18194  1.0000
  O   O8        1.0  0.01843  0.18194  0.67350  1.0000
