data_image0
_chemical_formula_structural       Zn4H16C20N16O4
_chemical_formula_sum              "Zn4 H16 C20 N16 O4"
_cell_length_a       5.84094
_cell_length_b       10.5017
_cell_length_c       11.2895
_cell_angle_alpha    102.95
_cell_angle_beta     89.9991
_cell_angle_gamma    89.9999

_space_group_name_H-M_alt    "P 1"
_space_group_IT_number       1

loop_
  _space_group_symop_operation_xyz
  'x, y, z'

loop_
  _atom_site_type_symbol
  _atom_site_label
  _atom_site_symmetry_multiplicity
  _atom_site_fract_x
  _atom_site_fract_y
  _atom_site_fract_z
  _atom_site_occupancy
  Zn  Zn1       1.0  0.75440  0.48449  0.43816  1.0000
  Zn  Zn2       1.0  0.25437  0.01551  0.06185  1.0000
  Zn  Zn3       1.0  0.24562  0.51552  0.56184  1.0000
  Zn  Zn4       1.0  0.74560  0.98448  0.93815  1.0000
  H   H1        1.0  0.88139  0.23521  0.27685  1.0000
  H   H2        1.0  0.38139  0.26479  0.22315  1.0000
  H   H3        1.0  0.11863  0.76478  0.72315  1.0000
  H   H4        1.0  0.61861  0.73521  0.77684  1.0000
  H   H5        1.0  0.84271  0.29133  0.90975  1.0000
  H   H6        1.0  0.34275  0.20866  0.59025  1.0000
  H   H7        1.0  0.15725  0.70865  0.09025  1.0000
  H   H8        1.0  0.65728  0.79135  0.40974  1.0000
  H   H9        1.0  0.72351  0.52132  0.99654  1.0000
  H   H10       1.0  0.22352  0.97868  0.50346  1.0000
  H   H11       1.0  0.27647  0.47867  0.00346  1.0000
  H   H12       1.0  0.77649  0.02132  0.49654  1.0000
  H   H13       1.0  0.68893  0.59991  0.22212  1.0000
  H   H14       1.0  0.18892  0.90010  0.27788  1.0000
  H   H15       1.0  0.31108  0.40009  0.77788  1.0000
  H   H16       1.0  0.81108  0.09991  0.72212  1.0000
  C   C1        1.0  0.85079  0.29597  0.21182  1.0000
  C   C2        1.0  0.35078  0.20403  0.28818  1.0000
  C   C3        1.0  0.14922  0.70402  0.78817  1.0000
  C   C4        1.0  0.64922  0.79597  0.71183  1.0000
  C   C5        1.0  0.87506  0.24367  0.08625  1.0000
  C   C6        1.0  0.37508  0.25634  0.41375  1.0000
  C   C7        1.0  0.12493  0.75632  0.91375  1.0000
  C   C8        1.0  0.62493  0.74368  0.58623  1.0000
  C   C9        1.0  0.82697  0.32727  0.00777  1.0000
  C   C10       1.0  0.32698  0.17272  0.49224  1.0000
  C   C11       1.0  0.17301  0.67272  0.99223  1.0000
  C   C12       1.0  0.67302  0.82728  0.50777  1.0000
  C   C13       1.0  0.75994  0.45530  0.05602  1.0000
  C   C14       1.0  0.25994  0.04471  0.44398  1.0000
  C   C15       1.0  0.24007  0.54469  0.94398  1.0000
  C   C16       1.0  0.74009  0.95531  0.55601  1.0000
  C   C17       1.0  0.74066  0.50013  0.18135  1.0000
  C   C18       1.0  0.24066  0.99987  0.31865  1.0000
  C   C19       1.0  0.25935  0.49986  0.81864  1.0000
  C   C20       1.0  0.75935  0.00013  0.68137  1.0000
  N   N1        1.0  0.93754  0.38847  0.54541  1.0000
  N   N2        1.0  0.43752  0.11153  0.95459  1.0000
  N   N3        1.0  0.06248  0.61154  0.45459  1.0000
  N   N4        1.0  0.56245  0.88846  0.04541  1.0000
  N   N5        1.0  0.84107  0.36116  0.63162  1.0000
  N   N6        1.0  0.34106  0.13884  0.86838  1.0000
  N   N7        1.0  0.15894  0.63885  0.36838  1.0000
  N   N8        1.0  0.65892  0.86115  0.13162  1.0000
  N   N9        1.0  0.75085  0.33367  0.71402  1.0000
  N   N10       1.0  0.25084  0.16633  0.78598  1.0000
  N   N11       1.0  0.24916  0.66634  0.28598  1.0000
  N   N12       1.0  0.74915  0.83366  0.21402  1.0000
  N   N13       1.0  0.78532  0.42047  0.25705  1.0000
  N   N14       1.0  0.28531  0.07954  0.24295  1.0000
  N   N15       1.0  0.21468  0.57953  0.74295  1.0000
  N   N16       1.0  0.71467  0.92048  0.75704  1.0000
  O   O1        1.0  0.93734  0.11933  0.04511  1.0000
  O   O2        1.0  0.43737  0.38066  0.45490  1.0000
  O   O3        1.0  0.06263  0.88066  0.95490  1.0000
  O   O4        1.0  0.56264  0.61935  0.54510  1.0000
