data_image0
_chemical_formula_structural       Ag2H24C24N6O4
_chemical_formula_sum              "Ag2 H24 C24 N6 O4"
_cell_length_a       6.76157
_cell_length_b       6.76174
_cell_length_c       14.3416
_cell_angle_alpha    76.0922
_cell_angle_beta     76.0918
_cell_angle_gamma    80.8562

_space_group_name_H-M_alt    "P 1"
_space_group_IT_number       1

loop_
  _space_group_symop_operation_xyz
  'x, y, z'

loop_
  _atom_site_type_symbol
  _atom_site_label
  _atom_site_symmetry_multiplicity
  _atom_site_fract_x
  _atom_site_fract_y
  _atom_site_fract_z
  _atom_site_occupancy
  Ag  Ag1       1.0  0.07217  0.48927  0.89423  1.0000
  Ag  Ag2       1.0  0.48926  0.07217  0.39424  1.0000
  H   H1        1.0  0.71822  0.25231  0.86344  1.0000
  H   H2        1.0  0.25232  0.71821  0.36343  1.0000
  H   H3        1.0  0.89597  0.02825  0.59463  1.0000
  H   H4        1.0  0.02824  0.89593  0.09463  1.0000
  H   H5        1.0  0.99737  0.68831  0.69346  1.0000
  H   H6        1.0  0.68830  0.99737  0.19346  1.0000
  H   H7        1.0  0.68161  0.48937  0.71126  1.0000
  H   H8        1.0  0.48937  0.68158  0.21126  1.0000
  H   H9        1.0  0.63059  0.37444  0.62153  1.0000
  H   H10       1.0  0.37444  0.63055  0.12153  1.0000
  H   H11       1.0  0.87989  0.43716  0.61091  1.0000
  H   H12       1.0  0.43719  0.87985  0.11090  1.0000
  H   H13       1.0  0.24542  0.33405  0.69715  1.0000
  H   H14       1.0  0.33404  0.24540  0.19714  1.0000
  H   H15       1.0  0.46419  0.69748  0.76564  1.0000
  H   H16       1.0  0.69746  0.46420  0.26565  1.0000
  H   H17       1.0  0.40185  0.72193  0.94409  1.0000
  H   H18       1.0  0.72193  0.40186  0.44408  1.0000
  H   H19       1.0  0.26449  0.06589  0.98715  1.0000
  H   H20       1.0  0.06589  0.26450  0.48715  1.0000
  H   H21       1.0  0.74235  0.00078  0.01012  1.0000
  H   H22       1.0  0.00079  0.74235  0.51012  1.0000
  H   H23       1.0  0.82507  0.73995  0.01246  1.0000
  H   H24       1.0  0.73995  0.82510  0.51246  1.0000
  C   C1        1.0  0.83517  0.93176  0.87485  1.0000
  C   C2        1.0  0.93176  0.83517  0.37484  1.0000
  C   C3        1.0  0.77918  0.13095  0.82276  1.0000
  C   C4        1.0  0.13096  0.77917  0.32275  1.0000
  C   C5        1.0  0.80095  0.17051  0.72182  1.0000
  C   C6        1.0  0.17051  0.80094  0.22181  1.0000
  C   C7        1.0  0.87917  0.00685  0.67363  1.0000
  C   C8        1.0  0.00685  0.87915  0.17363  1.0000
  C   C9        1.0  0.93328  0.81745  0.72838  1.0000
  C   C10       1.0  0.81745  0.93328  0.22838  1.0000
  C   C11       1.0  0.74440  0.37895  0.66416  1.0000
  C   C12       1.0  0.37896  0.74437  0.16416  1.0000
  C   C13       1.0  0.28110  0.19613  0.75049  1.0000
  C   C14       1.0  0.19613  0.28111  0.25048  1.0000
  C   C15       1.0  0.36355  0.01535  0.71846  1.0000
  C   C16       1.0  0.01534  0.36357  0.21845  1.0000
  C   C17       1.0  0.40414  0.84072  0.78933  1.0000
  C   C18       1.0  0.84071  0.40415  0.28933  1.0000
  C   C19       1.0  0.36947  0.85463  0.88736  1.0000
  C   C20       1.0  0.85463  0.36949  0.38736  1.0000
  C   C21       1.0  0.29150  0.04299  0.91223  1.0000
  C   C22       1.0  0.04298  0.29151  0.41222  1.0000
  C   C23       1.0  0.41074  0.01222  0.61032  1.0000
  C   C24       1.0  0.01219  0.41074  0.11032  1.0000
  N   N1        1.0  0.91415  0.77686  0.82713  1.0000
  N   N2        1.0  0.77687  0.91416  0.32713  1.0000
  N   N3        1.0  0.81550  0.89013  0.97375  1.0000
  N   N4        1.0  0.89014  0.81551  0.47374  1.0000
  N   N5        1.0  0.24440  0.21061  0.84530  1.0000
  N   N6        1.0  0.21061  0.24440  0.34529  1.0000
  O   O1        1.0  0.38556  0.18338  0.55094  1.0000
  O   O2        1.0  0.18335  0.38555  0.05093  1.0000
  O   O3        1.0  0.47523  0.84079  0.58599  1.0000
  O   O4        1.0  0.84073  0.47519  0.08599  1.0000
