data_image0
_chemical_formula_structural       Zn2H24C24S2N4O12
_chemical_formula_sum              "Zn2 H24 C24 S2 N4 O12"
_cell_length_a       6.81294
_cell_length_b       10.2585
_cell_length_c       10.2586
_cell_angle_alpha    86.4269
_cell_angle_beta     78.7836
_cell_angle_gamma    78.7832

_space_group_name_H-M_alt    "P 1"
_space_group_IT_number       1

loop_
  _space_group_symop_operation_xyz
  'x, y, z'

loop_
  _atom_site_type_symbol
  _atom_site_label
  _atom_site_symmetry_multiplicity
  _atom_site_fract_x
  _atom_site_fract_y
  _atom_site_fract_z
  _atom_site_occupancy
  Zn  Zn1       1.0  0.25000  0.19612  0.80388  1.0000
  Zn  Zn2       1.0  0.75000  0.80388  0.19612  1.0000
  H   H1        1.0  0.29234  0.02510  0.54795  1.0000
  H   H2        1.0  0.20766  0.45205  0.97490  1.0000
  H   H3        1.0  0.70766  0.97490  0.45205  1.0000
  H   H4        1.0  0.79235  0.54795  0.02510  1.0000
  H   H5        1.0  0.30814  0.07580  0.30383  1.0000
  H   H6        1.0  0.19186  0.69618  0.92420  1.0000
  H   H7        1.0  0.69186  0.92420  0.69617  1.0000
  H   H8        1.0  0.80815  0.30383  0.07580  1.0000
  H   H9        1.0  0.29384  0.31183  0.22098  1.0000
  H   H10       1.0  0.20616  0.77902  0.68817  1.0000
  H   H11       1.0  0.70617  0.68817  0.77902  1.0000
  H   H12       1.0  0.79384  0.22098  0.31183  1.0000
  H   H13       1.0  0.26360  0.55694  0.27717  1.0000
  H   H14       1.0  0.23639  0.72283  0.44307  1.0000
  H   H15       1.0  0.73640  0.44306  0.72283  1.0000
  H   H16       1.0  0.76360  0.27717  0.55693  1.0000
  H   H17       1.0  0.10359  0.99061  0.81234  1.0000
  H   H18       1.0  0.39640  0.18766  0.00939  1.0000
  H   H19       1.0  0.89641  0.00939  0.18766  1.0000
  H   H20       1.0  0.60360  0.81234  0.99061  1.0000
  H   H21       1.0  0.30090  0.94091  0.87526  1.0000
  H   H22       1.0  0.19909  0.12474  0.05909  1.0000
  H   H23       1.0  0.69910  0.05909  0.12474  1.0000
  H   H24       1.0  0.80090  0.87526  0.94091  1.0000
  C   C1        1.0  0.28584  0.12650  0.50780  1.0000
  C   C2        1.0  0.21415  0.49220  0.87350  1.0000
  C   C3        1.0  0.71416  0.87350  0.49220  1.0000
  C   C4        1.0  0.78585  0.50780  0.12650  1.0000
  C   C5        1.0  0.29583  0.15585  0.37138  1.0000
  C   C6        1.0  0.20417  0.62862  0.84415  1.0000
  C   C7        1.0  0.70417  0.84415  0.62862  1.0000
  C   C8        1.0  0.79583  0.37138  0.15584  1.0000
  C   C9        1.0  0.28756  0.28653  0.32643  1.0000
  C   C10       1.0  0.21244  0.67358  0.71346  1.0000
  C   C11       1.0  0.71244  0.71346  0.67358  1.0000
  C   C12       1.0  0.78757  0.32642  0.28654  1.0000
  C   C13       1.0  0.26894  0.38770  0.41779  1.0000
  C   C14       1.0  0.23105  0.58221  0.61231  1.0000
  C   C15       1.0  0.73106  0.61230  0.58221  1.0000
  C   C16       1.0  0.76894  0.41778  0.38769  1.0000
  C   C17       1.0  0.26011  0.34815  0.55346  1.0000
  C   C18       1.0  0.23988  0.44654  0.65185  1.0000
  C   C19       1.0  0.73989  0.65185  0.44654  1.0000
  C   C20       1.0  0.76011  0.55346  0.34815  1.0000
  C   C21       1.0  0.25857  0.52559  0.38118  1.0000
  C   C22       1.0  0.24143  0.61882  0.47441  1.0000
  C   C23       1.0  0.74143  0.47441  0.61882  1.0000
  C   C24       1.0  0.75857  0.38118  0.52559  1.0000
  S   S1        1.0  0.75000  0.14236  0.85764  1.0000
  S   S2        1.0  0.25000  0.85764  0.14236  1.0000
  N   N1        1.0  0.26923  0.21989  0.59583  1.0000
  N   N2        1.0  0.23076  0.40417  0.78011  1.0000
  N   N3        1.0  0.73077  0.78011  0.40416  1.0000
  N   N4        1.0  0.76924  0.59583  0.21989  1.0000
  O   O1        1.0  0.25330  0.99402  0.79829  1.0000
  O   O2        1.0  0.24670  0.20171  0.00598  1.0000
  O   O3        1.0  0.74670  0.00597  0.20171  1.0000
  O   O4        1.0  0.75331  0.79829  0.99402  1.0000
  O   O5        1.0  0.60142  0.17056  0.76679  1.0000
  O   O6        1.0  0.89857  0.23321  0.82945  1.0000
  O   O7        1.0  0.39858  0.82945  0.23321  1.0000
  O   O8        1.0  0.10143  0.76679  0.17056  1.0000
  O   O9        1.0  0.86292  0.00074  0.84186  1.0000
  O   O10       1.0  0.63707  0.15814  0.99927  1.0000
  O   O11       1.0  0.13708  0.99926  0.15814  1.0000
  O   O12       1.0  0.36293  0.84186  0.00073  1.0000
