data_image0
_chemical_formula_structural       Cd2H24C20S2N4O12
_chemical_formula_sum              "Cd2 H24 C20 S2 N4 O12"
_cell_length_a       7.02613
_cell_length_b       10.1425
_cell_length_c       10.1425
_cell_angle_alpha    79.7088
_cell_angle_beta     76.0854
_cell_angle_gamma    76.0856

_space_group_name_H-M_alt    "P 1"
_space_group_IT_number       1

loop_
  _space_group_symop_operation_xyz
  'x, y, z'

loop_
  _atom_site_type_symbol
  _atom_site_label
  _atom_site_symmetry_multiplicity
  _atom_site_fract_x
  _atom_site_fract_y
  _atom_site_fract_z
  _atom_site_occupancy
  Cd  Cd1       1.0  0.25000  0.78248  0.21752  1.0000
  Cd  Cd2       1.0  0.75000  0.21752  0.78248  1.0000
  H   H1        1.0  0.39197  0.00746  0.19601  1.0000
  H   H2        1.0  0.89197  0.19600  0.00746  1.0000
  H   H3        1.0  0.60803  0.99254  0.80399  1.0000
  H   H4        1.0  0.10803  0.80399  0.99254  1.0000
  H   H5        1.0  0.20023  0.06461  0.12977  1.0000
  H   H6        1.0  0.70023  0.12977  0.06461  1.0000
  H   H7        1.0  0.79977  0.93539  0.87023  1.0000
  H   H8        1.0  0.29977  0.87023  0.93539  1.0000
  H   H9        1.0  0.18716  0.92867  0.48601  1.0000
  H   H10       1.0  0.68716  0.48601  0.92868  1.0000
  H   H11       1.0  0.81284  0.07133  0.51399  1.0000
  H   H12       1.0  0.31283  0.51400  0.07132  1.0000
  H   H13       1.0  0.18057  0.86893  0.73686  1.0000
  H   H14       1.0  0.68057  0.73685  0.86894  1.0000
  H   H15       1.0  0.81942  0.13108  0.26314  1.0000
  H   H16       1.0  0.31942  0.26315  0.13106  1.0000
  H   H17       1.0  0.21016  0.62085  0.83783  1.0000
  H   H18       1.0  0.71015  0.83783  0.62086  1.0000
  H   H19       1.0  0.78985  0.37915  0.16218  1.0000
  H   H20       1.0  0.28986  0.16218  0.37913  1.0000
  H   H21       1.0  0.25248  0.44513  0.68550  1.0000
  H   H22       1.0  0.75247  0.68551  0.44514  1.0000
  H   H23       1.0  0.74753  0.55487  0.31450  1.0000
  H   H24       1.0  0.24754  0.31449  0.55486  1.0000
  C   C1        1.0  0.19993  0.82281  0.53492  1.0000
  C   C2        1.0  0.69993  0.53492  0.82281  1.0000
  C   C3        1.0  0.80006  0.17719  0.46508  1.0000
  C   C4        1.0  0.30006  0.46508  0.17719  1.0000
  C   C5        1.0  0.19483  0.78884  0.67458  1.0000
  C   C6        1.0  0.69483  0.67459  0.78884  1.0000
  C   C7        1.0  0.80515  0.21117  0.32542  1.0000
  C   C8        1.0  0.30515  0.32542  0.21116  1.0000
  C   C9        1.0  0.21204  0.65118  0.72901  1.0000
  C   C10       1.0  0.71203  0.72902  0.65119  1.0000
  C   C11       1.0  0.78795  0.34883  0.27098  1.0000
  C   C12       1.0  0.28796  0.27099  0.34881  1.0000
  C   C13       1.0  0.23441  0.55294  0.64331  1.0000
  C   C14       1.0  0.73440  0.64332  0.55295  1.0000
  C   C15       1.0  0.76559  0.44706  0.35669  1.0000
  C   C16       1.0  0.26560  0.35668  0.44705  1.0000
  C   C17       1.0  0.23812  0.59503  0.50344  1.0000
  C   C18       1.0  0.73811  0.50344  0.59504  1.0000
  C   C19       1.0  0.76188  0.40497  0.49656  1.0000
  C   C20       1.0  0.26189  0.49656  0.40497  1.0000
  S   S1        1.0  0.75000  0.84639  0.15361  1.0000
  S   S2        1.0  0.25000  0.15361  0.84639  1.0000
  N   N1        1.0  0.22070  0.72877  0.45229  1.0000
  N   N2        1.0  0.72070  0.45229  0.72878  1.0000
  N   N3        1.0  0.77929  0.27123  0.54771  1.0000
  N   N4        1.0  0.27930  0.54771  0.27122  1.0000
  O   O1        1.0  0.89115  0.81012  0.24853  1.0000
  O   O2        1.0  0.39115  0.24852  0.81013  1.0000
  O   O3        1.0  0.10886  0.18987  0.75147  1.0000
  O   O4        1.0  0.60885  0.75147  0.18987  1.0000
  O   O5        1.0  0.63400  0.99109  0.16347  1.0000
  O   O6        1.0  0.13400  0.16346  0.99109  1.0000
  O   O7        1.0  0.36601  0.00891  0.83654  1.0000
  O   O8        1.0  0.86601  0.83653  0.00891  1.0000
  O   O9        1.0  0.24438  0.00908  0.21322  1.0000
  O   O10       1.0  0.74438  0.21321  0.00909  1.0000
  O   O11       1.0  0.75563  0.99091  0.78678  1.0000
  O   O12       1.0  0.25562  0.78678  0.99091  1.0000
