data_image0
_chemical_formula_structural       Nd8H32C24O64
_chemical_formula_sum              "Nd8 H32 C24 O64"
_cell_length_a       8.60399
_cell_length_b       9.56478
_cell_length_c       16.6907
_cell_angle_alpha    90.0002
_cell_angle_beta     90
_cell_angle_gamma    89.9999

_space_group_name_H-M_alt    "P 1"
_space_group_IT_number       1

loop_
  _space_group_symop_operation_xyz
  'x, y, z'

loop_
  _atom_site_type_symbol
  _atom_site_label
  _atom_site_symmetry_multiplicity
  _atom_site_fract_x
  _atom_site_fract_y
  _atom_site_fract_z
  _atom_site_occupancy
  Nd  Nd1       1.0  0.62537  0.74632  0.14093  1.0000
  Nd  Nd2       1.0  0.87463  0.25368  0.64093  1.0000
  Nd  Nd3       1.0  0.12537  0.75368  0.85907  1.0000
  Nd  Nd4       1.0  0.37463  0.24632  0.35907  1.0000
  Nd  Nd5       1.0  0.86811  0.73622  0.36437  1.0000
  Nd  Nd6       1.0  0.63190  0.26378  0.86437  1.0000
  Nd  Nd7       1.0  0.36811  0.76378  0.63563  1.0000
  Nd  Nd8       1.0  0.13189  0.23622  0.13563  1.0000
  H   H1        1.0  0.64110  0.90854  0.98126  1.0000
  H   H2        1.0  0.85890  0.09146  0.48126  1.0000
  H   H3        1.0  0.14110  0.59146  0.01874  1.0000
  H   H4        1.0  0.35890  0.40854  0.51874  1.0000
  H   H5        1.0  0.38233  0.92367  0.21232  1.0000
  H   H6        1.0  0.11766  0.07633  0.71232  1.0000
  H   H7        1.0  0.88233  0.57633  0.78768  1.0000
  H   H8        1.0  0.61766  0.42367  0.28768  1.0000
  H   H9        1.0  0.51544  0.60225  0.37585  1.0000
  H   H10       1.0  0.98456  0.39776  0.87585  1.0000
  H   H11       1.0  0.01544  0.89775  0.62415  1.0000
  H   H12       1.0  0.48456  0.10224  0.12415  1.0000
  H   H13       1.0  0.59221  0.61998  0.46068  1.0000
  H   H14       1.0  0.90780  0.38002  0.96068  1.0000
  H   H15       1.0  0.09221  0.88002  0.53932  1.0000
  H   H16       1.0  0.40779  0.11998  0.03932  1.0000
  H   H17       1.0  0.84144  0.58947  0.52474  1.0000
  H   H18       1.0  0.65856  0.41053  0.02474  1.0000
  H   H19       1.0  0.34144  0.91053  0.47526  1.0000
  H   H20       1.0  0.15856  0.08948  0.97526  1.0000
  H   H21       1.0  0.81546  0.74738  0.54600  1.0000
  H   H22       1.0  0.68454  0.25262  0.04600  1.0000
  H   H23       1.0  0.31546  0.75262  0.45400  1.0000
  H   H24       1.0  0.18454  0.24738  0.95400  1.0000
  H   H25       1.0  0.27776  0.87191  0.14049  1.0000
  H   H26       1.0  0.22224  0.12809  0.64050  1.0000
  H   H27       1.0  0.77776  0.62809  0.85951  1.0000
  H   H28       1.0  0.72224  0.37191  0.35950  1.0000
  H   H29       1.0  0.52687  0.77805  0.96247  1.0000
  H   H30       1.0  0.97313  0.22195  0.46247  1.0000
  H   H31       1.0  0.02687  0.72195  0.03753  1.0000
  H   H32       1.0  0.47313  0.27805  0.53753  1.0000
  C   C1        1.0  0.36041  0.50713  0.10278  1.0000
  C   C2        1.0  0.13958  0.49286  0.60278  1.0000
  C   C3        1.0  0.86041  0.99287  0.89722  1.0000
  C   C4        1.0  0.63958  0.00714  0.39722  1.0000
  C   C5        1.0  0.41610  0.45858  0.18670  1.0000
  C   C6        1.0  0.08390  0.54142  0.68670  1.0000
  C   C7        1.0  0.91610  0.04142  0.81330  1.0000
  C   C8        1.0  0.58390  0.95858  0.31330  1.0000
  C   C9        1.0  0.86566  0.48511  0.10432  1.0000
  C   C10       1.0  0.63435  0.51488  0.60432  1.0000
  C   C11       1.0  0.36566  0.01489  0.89568  1.0000
  C   C12       1.0  0.13435  0.98512  0.39568  1.0000
  C   C13       1.0  0.91659  0.51628  0.19177  1.0000
  C   C14       1.0  0.58341  0.48372  0.69177  1.0000
  C   C15       1.0  0.41659  0.98373  0.80824  1.0000
  C   C16       1.0  0.08341  0.01628  0.30823  1.0000
  C   C17       1.0  0.94600  0.93602  0.11538  1.0000
  C   C18       1.0  0.55400  0.06398  0.61538  1.0000
  C   C19       1.0  0.44599  0.56398  0.88462  1.0000
  C   C20       1.0  0.05400  0.43602  0.38462  1.0000
  C   C21       1.0  0.81575  0.04436  0.13312  1.0000
  C   C22       1.0  0.68425  0.95564  0.63311  1.0000
  C   C23       1.0  0.31575  0.45564  0.86689  1.0000
  C   C24       1.0  0.18425  0.54436  0.36688  1.0000
  O   O1        1.0  0.42574  0.61269  0.07342  1.0000
  O   O2        1.0  0.07427  0.38731  0.57343  1.0000
  O   O3        1.0  0.92574  0.88731  0.92658  1.0000
  O   O4        1.0  0.57427  0.11269  0.42657  1.0000
  O   O5        1.0  0.52248  0.53061  0.21844  1.0000
  O   O6        1.0  0.97752  0.46940  0.71844  1.0000
  O   O7        1.0  0.02248  0.96939  0.78156  1.0000
  O   O8        1.0  0.47752  0.03060  0.28156  1.0000
  O   O9        1.0  0.74538  0.54555  0.07719  1.0000
  O   O10       1.0  0.75461  0.45445  0.57719  1.0000
  O   O11       1.0  0.24538  0.95445  0.92282  1.0000
  O   O12       1.0  0.25462  0.04555  0.42281  1.0000
  O   O13       1.0  0.84444  0.61494  0.22811  1.0000
  O   O14       1.0  0.65556  0.38506  0.72811  1.0000
  O   O15       1.0  0.34444  0.88505  0.77189  1.0000
  O   O16       1.0  0.15556  0.11494  0.27189  1.0000
  O   O17       1.0  0.90312  0.81029  0.10579  1.0000
  O   O18       1.0  0.59688  0.18971  0.60578  1.0000
  O   O19       1.0  0.40311  0.68972  0.89421  1.0000
  O   O20       1.0  0.09688  0.31029  0.39421  1.0000
  O   O21       1.0  0.67660  0.00047  0.13334  1.0000
  O   O22       1.0  0.82340  0.99953  0.63334  1.0000
  O   O23       1.0  0.17660  0.49953  0.86666  1.0000
  O   O24       1.0  0.32340  0.50047  0.36666  1.0000
  O   O25       1.0  0.58835  0.82674  0.00445  1.0000
  O   O26       1.0  0.91166  0.17326  0.50445  1.0000
  O   O27       1.0  0.08835  0.67326  0.99555  1.0000
  O   O28       1.0  0.41166  0.32674  0.49555  1.0000
  O   O29       1.0  0.36405  0.84368  0.17564  1.0000
  O   O30       1.0  0.13595  0.15632  0.67565  1.0000
  O   O31       1.0  0.86405  0.65632  0.82435  1.0000
  O   O32       1.0  0.63595  0.34368  0.32435  1.0000
  O   O33       1.0  0.25179  0.43899  0.06943  1.0000
  O   O34       1.0  0.24821  0.56101  0.56944  1.0000
  O   O35       1.0  0.75178  0.06100  0.93056  1.0000
  O   O36       1.0  0.74821  0.93899  0.43056  1.0000
  O   O37       1.0  0.35233  0.35005  0.21709  1.0000
  O   O38       1.0  0.14767  0.64995  0.71709  1.0000
  O   O39       1.0  0.85233  0.14995  0.78291  1.0000
  O   O40       1.0  0.64767  0.85005  0.28291  1.0000
  O   O41       1.0  0.61193  0.63235  0.40251  1.0000
  O   O42       1.0  0.88807  0.36764  0.90251  1.0000
  O   O43       1.0  0.11193  0.86765  0.59750  1.0000
  O   O44       1.0  0.38807  0.13236  0.09749  1.0000
  O   O45       1.0  0.87241  0.68618  0.50938  1.0000
  O   O46       1.0  0.62759  0.31382  0.00938  1.0000
  O   O47       1.0  0.37241  0.81382  0.49062  1.0000
  O   O48       1.0  0.12759  0.18618  0.99062  1.0000
  O   O49       1.0  0.94501  0.39744  0.06548  1.0000
  O   O50       1.0  0.55499  0.60256  0.56548  1.0000
  O   O51       1.0  0.44501  0.10256  0.93452  1.0000
  O   O52       1.0  0.05499  0.89744  0.43452  1.0000
  O   O53       1.0  0.02344  0.44022  0.21887  1.0000
  O   O54       1.0  0.47656  0.55978  0.71887  1.0000
  O   O55       1.0  0.52344  0.05979  0.78113  1.0000
  O   O56       1.0  0.97655  0.94021  0.28113  1.0000
  O   O57       1.0  0.08374  0.98145  0.10997  1.0000
  O   O58       1.0  0.41625  0.01855  0.60996  1.0000
  O   O59       1.0  0.58374  0.51855  0.89004  1.0000
  O   O60       1.0  0.91625  0.48145  0.39004  1.0000
  O   O61       1.0  0.85609  0.16986  0.14396  1.0000
  O   O62       1.0  0.64391  0.83014  0.64396  1.0000
  O   O63       1.0  0.35608  0.33014  0.85603  1.0000
  O   O64       1.0  0.14391  0.66986  0.35604  1.0000
