data_image0
_chemical_formula_structural       Cd3H28C26S2N10O20
_chemical_formula_sum              "Cd3 H28 C26 S2 N10 O20"
_cell_length_a       7.7548
_cell_length_b       10.137
_cell_length_c       11.7113
_cell_angle_alpha    93.717
_cell_angle_beta     89.1072
_cell_angle_gamma    100.582

_space_group_name_H-M_alt    "P 1"
_space_group_IT_number       1

loop_
  _space_group_symop_operation_xyz
  'x, y, z'

loop_
  _atom_site_type_symbol
  _atom_site_label
  _atom_site_symmetry_multiplicity
  _atom_site_fract_x
  _atom_site_fract_y
  _atom_site_fract_z
  _atom_site_occupancy
  Cd  Cd1       1.0  0.73602  0.97321  0.34296  1.0000
  Cd  Cd2       1.0  0.26398  0.02679  0.65704  1.0000
  Cd  Cd3       1.0  0.50000  0.50000  1.00000  1.0000
  H   H1        1.0  0.42072  0.07562  0.41466  1.0000
  H   H2        1.0  0.57928  0.92438  0.58533  1.0000
  H   H3        1.0  0.35236  0.92567  0.39451  1.0000
  H   H4        1.0  0.64765  0.07434  0.60549  1.0000
  H   H5        1.0  0.10851  0.06391  0.37962  1.0000
  H   H6        1.0  0.89150  0.93608  0.62038  1.0000
  H   H7        1.0  0.10677  0.98728  0.25296  1.0000
  H   H8        1.0  0.89324  0.01271  0.74704  1.0000
  H   H9        1.0  0.37227  0.43339  0.76203  1.0000
  H   H10       1.0  0.62773  0.56661  0.23797  1.0000
  H   H11       1.0  0.23279  0.49541  0.83448  1.0000
  H   H12       1.0  0.76721  0.50459  0.16553  1.0000
  H   H13       1.0  0.89207  0.18630  0.13086  1.0000
  H   H14       1.0  0.10793  0.81370  0.86914  1.0000
  H   H15       1.0  0.47738  0.69143  0.80011  1.0000
  H   H16       1.0  0.52262  0.30857  0.19989  1.0000
  H   H17       1.0  0.57400  0.84975  0.75241  1.0000
  H   H18       1.0  0.42600  0.15025  0.24758  1.0000
  H   H19       1.0  0.70881  0.46729  0.36320  1.0000
  H   H20       1.0  0.29120  0.53272  0.63680  1.0000
  H   H21       1.0  0.85341  0.29798  0.66533  1.0000
  H   H22       1.0  0.14660  0.70202  0.33467  1.0000
  H   H23       1.0  0.80871  0.71600  0.67768  1.0000
  H   H24       1.0  0.19130  0.28400  0.32232  1.0000
  H   H25       1.0  0.54457  0.73282  0.18342  1.0000
  H   H26       1.0  0.45542  0.26718  0.81659  1.0000
  H   H27       1.0  0.94724  0.24947  0.92841  1.0000
  H   H28       1.0  0.05276  0.75053  0.07159  1.0000
  C   C1        1.0  0.75006  0.60520  0.51346  1.0000
  C   C2        1.0  0.24995  0.39480  0.48654  1.0000
  C   C3        1.0  0.74175  0.48053  0.45349  1.0000
  C   C4        1.0  0.25826  0.51948  0.54651  1.0000
  C   C5        1.0  0.77868  0.37028  0.50734  1.0000
  C   C6        1.0  0.22134  0.62972  0.49265  1.0000
  C   C7        1.0  0.82258  0.38355  0.62334  1.0000
  C   C8        1.0  0.17743  0.61645  0.37665  1.0000
  C   C9        1.0  0.83033  0.50790  0.68324  1.0000
  C   C10       1.0  0.16968  0.49210  0.31676  1.0000
  C   C11       1.0  0.79643  0.61932  0.62959  1.0000
  C   C12       1.0  0.20357  0.38068  0.37041  1.0000
  C   C13       1.0  0.71625  0.72213  0.45136  1.0000
  C   C14       1.0  0.28376  0.27787  0.54864  1.0000
  C   C15       1.0  0.77090  0.23873  0.44030  1.0000
  C   C16       1.0  0.22911  0.76127  0.55970  1.0000
  C   C17       1.0  0.59714  0.79721  0.11586  1.0000
  C   C18       1.0  0.40285  0.20279  0.88414  1.0000
  C   C19       1.0  0.61444  0.82517  0.91902  1.0000
  C   C20       1.0  0.38555  0.17483  0.08098  1.0000
  C   C21       1.0  0.71665  0.95401  0.94586  1.0000
  C   C22       1.0  0.28335  0.04600  0.05415  1.0000
  C   C23       1.0  0.87173  0.15332  0.95102  1.0000
  C   C24       1.0  0.12826  0.84668  0.04898  1.0000
  C   C25       1.0  0.74448  0.99559  0.06167  1.0000
  C   C26       1.0  0.25552  0.00441  0.93833  1.0000
  S   S1        1.0  0.88076  0.52069  0.83189  1.0000
  S   S2        1.0  0.11923  0.47932  0.16811  1.0000
  N   N1        1.0  0.68339  0.92000  0.14993  1.0000
  N   N2        1.0  0.31661  0.08000  0.85007  1.0000
  N   N3        1.0  0.56580  0.74563  0.00838  1.0000
  N   N4        1.0  0.43419  0.25437  0.99163  1.0000
  N   N5        1.0  0.79822  0.05422  0.87783  1.0000
  N   N6        1.0  0.20177  0.94578  0.12217  1.0000
  N   N7        1.0  0.84124  0.12280  0.06288  1.0000
  N   N8        1.0  0.15876  0.87720  0.93712  1.0000
  N   N9        1.0  0.56168  0.78149  0.81350  1.0000
  N   N10       1.0  0.43831  0.21851  0.18650  1.0000
  O   O1        1.0  0.73787  0.83896  0.50532  1.0000
  O   O2        1.0  0.26213  0.16104  0.49468  1.0000
  O   O3        1.0  0.43792  0.99961  0.36126  1.0000
  O   O4        1.0  0.56208  0.00040  0.63874  1.0000
  O   O5        1.0  0.67117  0.70639  0.34704  1.0000
  O   O6        1.0  0.32883  0.29361  0.65297  1.0000
  O   O7        1.0  0.03371  0.02421  0.31453  1.0000
  O   O8        1.0  0.96629  0.97577  0.68548  1.0000
  O   O9        1.0  0.74995  0.23044  0.33317  1.0000
  O   O10       1.0  0.25007  0.76956  0.66683  1.0000
  O   O11       1.0  0.36335  0.50465  0.82307  1.0000
  O   O12       1.0  0.63665  0.49535  0.17693  1.0000
  O   O13       1.0  0.78403  0.13646  0.49740  1.0000
  O   O14       1.0  0.21598  0.86354  0.50260  1.0000
  O   O15       1.0  0.72148  0.44623  0.88639  1.0000
  O   O16       1.0  0.27850  0.55377  0.11360  1.0000
  O   O17       1.0  0.91834  0.66324  0.86759  1.0000
  O   O18       1.0  0.08165  0.33676  0.13242  1.0000
  O   O19       1.0  0.02630  0.44783  0.84441  1.0000
  O   O20       1.0  0.97369  0.55217  0.15560  1.0000
