data_image0
_chemical_formula_structural       Cu2H40C32N4O12
_chemical_formula_sum              "Cu2 H40 C32 N4 O12"
_cell_length_a       8.60406
_cell_length_b       9.35464
_cell_length_c       10.0561
_cell_angle_alpha    100.363
_cell_angle_beta     90.0001
_cell_angle_gamma    90

_space_group_name_H-M_alt    "P 1"
_space_group_IT_number       1

loop_
  _space_group_symop_operation_xyz
  'x, y, z'

loop_
  _atom_site_type_symbol
  _atom_site_label
  _atom_site_symmetry_multiplicity
  _atom_site_fract_x
  _atom_site_fract_y
  _atom_site_fract_z
  _atom_site_occupancy
  Cu  Cu1       1.0  0.00000  0.50000  0.00000  1.0000
  Cu  Cu2       1.0  0.50000  1.00000  0.50000  1.0000
  H   H1        1.0  0.44053  0.15913  0.27929  1.0000
  H   H2        1.0  0.94053  0.34087  0.22070  1.0000
  H   H3        1.0  0.55947  0.84087  0.72070  1.0000
  H   H4        1.0  0.05947  0.65913  0.77930  1.0000
  H   H5        1.0  0.70976  0.55473  0.36838  1.0000
  H   H6        1.0  0.20976  0.94527  0.13162  1.0000
  H   H7        1.0  0.29024  0.44527  0.63162  1.0000
  H   H8        1.0  0.79024  0.05473  0.86838  1.0000
  H   H9        1.0  0.80655  0.46703  0.57802  1.0000
  H   H10       1.0  0.30656  0.03297  0.92197  1.0000
  H   H11       1.0  0.19344  0.53297  0.42197  1.0000
  H   H12       1.0  0.69344  0.96703  0.07803  1.0000
  H   H13       1.0  0.70848  0.23205  0.62585  1.0000
  H   H14       1.0  0.20848  0.26795  0.87415  1.0000
  H   H15       1.0  0.29152  0.76795  0.37415  1.0000
  H   H16       1.0  0.79152  0.73205  0.12586  1.0000
  H   H17       1.0  0.53193  0.52665  0.18562  1.0000
  H   H18       1.0  0.03193  0.97335  0.31438  1.0000
  H   H19       1.0  0.46807  0.47335  0.81438  1.0000
  H   H20       1.0  0.96807  0.02665  0.68562  1.0000
  H   H21       1.0  0.37047  0.41252  0.19314  1.0000
  H   H22       1.0  0.87047  0.08748  0.30686  1.0000
  H   H23       1.0  0.62953  0.58748  0.80686  1.0000
  H   H24       1.0  0.12953  0.91252  0.69314  1.0000
  H   H25       1.0  0.45165  0.33170  0.97324  1.0000
  H   H26       1.0  0.95165  0.16830  0.52676  1.0000
  H   H27       1.0  0.54836  0.66830  0.02676  1.0000
  H   H28       1.0  0.04835  0.83170  0.47324  1.0000
  H   H29       1.0  0.54206  0.20423  0.05347  1.0000
  H   H30       1.0  0.04206  0.29577  0.44653  1.0000
  H   H31       1.0  0.45794  0.79577  0.94653  1.0000
  H   H32       1.0  0.95794  0.70423  0.55347  1.0000
  H   H33       1.0  0.05800  0.32664  0.71386  1.0000
  H   H34       1.0  0.55801  0.17336  0.78614  1.0000
  H   H35       1.0  0.94199  0.67336  0.28614  1.0000
  H   H36       1.0  0.44199  0.82664  0.21387  1.0000
  H   H37       1.0  0.89030  0.33711  0.78577  1.0000
  H   H38       1.0  0.39030  0.16289  0.71423  1.0000
  H   H39       1.0  0.10970  0.66289  0.21423  1.0000
  H   H40       1.0  0.60970  0.83711  0.28577  1.0000
  C   C1        1.0  0.52097  0.23274  0.34134  1.0000
  C   C2        1.0  0.02098  0.26726  0.15866  1.0000
  C   C3        1.0  0.47902  0.76726  0.65866  1.0000
  C   C4        1.0  0.97902  0.73274  0.84134  1.0000
  C   C5        1.0  0.56643  0.36471  0.30652  1.0000
  C   C6        1.0  0.06643  0.13529  0.19348  1.0000
  C   C7        1.0  0.43357  0.63529  0.69348  1.0000
  C   C8        1.0  0.93357  0.86471  0.80652  1.0000
  C   C9        1.0  0.67148  0.45101  0.39202  1.0000
  C   C10       1.0  0.17149  0.04899  0.10798  1.0000
  C   C11       1.0  0.32852  0.54899  0.60798  1.0000
  C   C12       1.0  0.82852  0.95101  0.89202  1.0000
  C   C13       1.0  0.72418  0.40472  0.50817  1.0000
  C   C14       1.0  0.22419  0.09528  0.99182  1.0000
  C   C15       1.0  0.27581  0.59528  0.49182  1.0000
  C   C16       1.0  0.77582  0.90472  0.00818  1.0000
  C   C17       1.0  0.67145  0.27279  0.53622  1.0000
  C   C18       1.0  0.17145  0.22720  0.96377  1.0000
  C   C19       1.0  0.32855  0.72721  0.46378  1.0000
  C   C20       1.0  0.82855  0.77280  0.03623  1.0000
  C   C21       1.0  0.49801  0.41339  0.18435  1.0000
  C   C22       1.0  0.99801  0.08661  0.31565  1.0000
  C   C23       1.0  0.50199  0.58660  0.81565  1.0000
  C   C24       1.0  0.00199  0.91339  0.68435  1.0000
  C   C25       1.0  0.54181  0.32074  0.04804  1.0000
  C   C26       1.0  0.04181  0.17926  0.45196  1.0000
  C   C27       1.0  0.45819  0.67926  0.95196  1.0000
  C   C28       1.0  0.95819  0.82074  0.54804  1.0000
  C   C29       1.0  0.69543  0.35405  0.98486  1.0000
  C   C30       1.0  0.19543  0.14596  0.51514  1.0000
  C   C31       1.0  0.30457  0.64596  0.01514  1.0000
  C   C32       1.0  0.80457  0.85404  0.48486  1.0000
  N   N1        1.0  0.57226  0.18816  0.45354  1.0000
  N   N2        1.0  0.07226  0.31183  0.04646  1.0000
  N   N3        1.0  0.42774  0.81184  0.54646  1.0000
  N   N4        1.0  0.92774  0.68817  0.95354  1.0000
  O   O1        1.0  0.78032  0.45397  0.05169  1.0000
  O   O2        1.0  0.28032  0.04603  0.44831  1.0000
  O   O3        1.0  0.21968  0.54603  0.94831  1.0000
  O   O4        1.0  0.71968  0.95397  0.55169  1.0000
  O   O5        1.0  0.72710  0.28105  0.86883  1.0000
  O   O6        1.0  0.22710  0.21895  0.63116  1.0000
  O   O7        1.0  0.27290  0.71895  0.13116  1.0000
  O   O8        1.0  0.77290  0.78105  0.36884  1.0000
  O   O9        1.0  0.97413  0.39398  0.75162  1.0000
  O   O10       1.0  0.47413  0.10602  0.74838  1.0000
  O   O11       1.0  0.02587  0.60602  0.24838  1.0000
  O   O12       1.0  0.52587  0.89398  0.25162  1.0000
