data_image0
_chemical_formula_structural       CdH38C30N4O6
_chemical_formula_sum              "Cd1 H38 C30 N4 O6"
_cell_length_a       8.80996
_cell_length_b       9.3843
_cell_length_c       10.8469
_cell_angle_alpha    98.4235
_cell_angle_beta     114.009
_cell_angle_gamma    89.9979

_space_group_name_H-M_alt    "P 1"
_space_group_IT_number       1

loop_
  _space_group_symop_operation_xyz
  'x, y, z'

loop_
  _atom_site_type_symbol
  _atom_site_label
  _atom_site_symmetry_multiplicity
  _atom_site_fract_x
  _atom_site_fract_y
  _atom_site_fract_z
  _atom_site_occupancy
  Cd  Cd1       1.0  0.86680  0.00010  0.00008  1.0000
  H   H1        1.0  0.09703  0.60054  0.66436  1.0000
  H   H2        1.0  0.43288  0.39931  0.33576  1.0000
  H   H3        1.0  0.53209  0.49302  0.76469  1.0000
  H   H4        1.0  0.76695  0.50693  0.23500  1.0000
  H   H5        1.0  0.77054  0.67631  0.89545  1.0000
  H   H6        1.0  0.87390  0.32381  0.10377  1.0000
  H   H7        1.0  0.45604  0.00964  0.86453  1.0000
  H   H8        1.0  0.59112  0.99021  0.13508  1.0000
  H   H9        1.0  0.20315  0.84081  0.74587  1.0000
  H   H10       1.0  0.45738  0.15892  0.25409  1.0000
  H   H11       1.0  0.93513  0.40581  0.54081  1.0000
  H   H12       1.0  0.39483  0.59428  0.45926  1.0000
  H   H13       1.0  0.91822  0.19214  0.39650  1.0000
  H   H14       1.0  0.52317  0.80790  0.60351  1.0000
  H   H15       1.0  0.12157  0.15140  0.49714  1.0000
  H   H16       1.0  0.62500  0.84860  0.50243  1.0000
  H   H17       1.0  0.82980  0.01184  0.49222  1.0000
  H   H18       1.0  0.33835  0.98805  0.50810  1.0000
  H   H19       1.0  0.02990  0.01290  0.62269  1.0000
  H   H20       1.0  0.40733  0.98723  0.37747  1.0000
  H   H21       1.0  0.23128  0.17168  0.78552  1.0000
  H   H22       1.0  0.44532  0.82860  0.21452  1.0000
  H   H23       1.0  0.17097  0.23890  0.91985  1.0000
  H   H24       1.0  0.25040  0.76134  0.08027  1.0000
  H   H25       1.0  0.28409  0.35416  0.86695  1.0000
  H   H26       1.0  0.41661  0.64614  0.13296  1.0000
  H   H27       1.0  0.07464  0.52708  0.84936  1.0000
  H   H28       1.0  0.22520  0.47306  0.15064  1.0000
  H   H29       1.0  0.92998  0.41547  0.87319  1.0000
  H   H30       1.0  0.05649  0.58448  0.12682  1.0000
  H   H31       1.0  0.86598  0.49582  0.72263  1.0000
  H   H32       1.0  0.14351  0.50404  0.27731  1.0000
  H   H33       1.0  0.66889  0.29714  0.66957  1.0000
  H   H34       1.0  0.99978  0.70271  0.33092  1.0000
  H   H35       1.0  0.61906  0.13708  0.54867  1.0000
  H   H36       1.0  0.07098  0.86279  0.45176  1.0000
  H   H37       1.0  0.70289  0.29294  0.51806  1.0000
  H   H38       1.0  0.18571  0.70706  0.48235  1.0000
  C   C1        1.0  0.51048  0.60601  0.78599  1.0000
  C   C2        1.0  0.72401  0.39393  0.21368  1.0000
  C   C3        1.0  0.64253  0.70816  0.85680  1.0000
  C   C4        1.0  0.78487  0.29186  0.14263  1.0000
  C   C5        1.0  0.46734  0.89397  0.84184  1.0000
  C   C6        1.0  0.62516  0.10589  0.15784  1.0000
  C   C7        1.0  0.32692  0.80001  0.77395  1.0000
  C   C8        1.0  0.55286  0.19979  0.22589  1.0000
  C   C9        1.0  0.34762  0.65234  0.74258  1.0000
  C   C10       1.0  0.60488  0.34750  0.25728  1.0000
  C   C11       1.0  0.19896  0.41301  0.62121  1.0000
  C   C12       1.0  0.57797  0.58681  0.37872  1.0000
  C   C13       1.0  0.03456  0.33554  0.59112  1.0000
  C   C14       1.0  0.44381  0.66443  0.40883  1.0000
  C   C15       1.0  0.00493  0.18625  0.50181  1.0000
  C   C16       1.0  0.50387  0.81373  0.49809  1.0000
  C   C17       1.0  0.93528  0.08359  0.56766  1.0000
  C   C18       1.0  0.36817  0.91640  0.43256  1.0000
  C   C19       1.0  0.88491  0.18058  0.67015  1.0000
  C   C20       1.0  0.21501  0.81947  0.33010  1.0000
  C   C21       1.0  0.02076  0.31139  0.72714  1.0000
  C   C22       1.0  0.29355  0.68865  0.27291  1.0000
  C   C23       1.0  0.18637  0.26594  0.83021  1.0000
  C   C24       1.0  0.35570  0.73428  0.16983  1.0000
  C   C25       1.0  0.96962  0.44567  0.79625  1.0000
  C   C26       1.0  0.17326  0.55435  0.20374  1.0000
  C   C27       1.0  0.70889  0.23084  0.59785  1.0000
  C   C28       1.0  0.11160  0.76909  0.40255  1.0000
  C   C29       1.0  0.88917  0.10658  0.78802  1.0000
  C   C30       1.0  0.10109  0.89361  0.21239  1.0000
  N   N1        1.0  0.62326  0.84999  0.88309  1.0000
  N   N2        1.0  0.73945  0.15000  0.11634  1.0000
  N   N3        1.0  0.20700  0.55881  0.67367  1.0000
  N   N4        1.0  0.53349  0.44100  0.32637  1.0000
  O   O1        1.0  0.31781  0.35498  0.60768  1.0000
  O   O2        1.0  0.71039  0.64480  0.39215  1.0000
  O   O3        1.0  0.84125  0.18014  0.87397  1.0000
  O   O4        1.0  0.96691  0.82020  0.12655  1.0000
  O   O5        1.0  0.93857  0.98024  0.80005  1.0000
  O   O6        1.0  0.13854  0.01990  0.20033  1.0000
