data_image0
_chemical_formula_structural       Yb2CuH18C22N2O18
_chemical_formula_sum              "Yb2 Cu1 H18 C22 N2 O18"
_cell_length_a       6.5839
_cell_length_b       7.95102
_cell_length_c       13.054
_cell_angle_alpha    101.221
_cell_angle_beta     92.1822
_cell_angle_gamma    102.387

_space_group_name_H-M_alt    "P 1"
_space_group_IT_number       1

loop_
  _space_group_symop_operation_xyz
  'x, y, z'

loop_
  _atom_site_type_symbol
  _atom_site_label
  _atom_site_symmetry_multiplicity
  _atom_site_fract_x
  _atom_site_fract_y
  _atom_site_fract_z
  _atom_site_occupancy
  Yb  Yb1       1.0  0.56052  0.92911  0.35296  1.0000
  Yb  Yb2       1.0  0.43948  0.07089  0.64704  1.0000
  Cu  Cu1       1.0  1.00000  0.50000  1.00000  1.0000
  H   H1        1.0  0.16016  0.79747  0.42560  1.0000
  H   H2        1.0  0.83984  0.20252  0.57440  1.0000
  H   H3        1.0  0.10082  0.72720  0.30071  1.0000
  H   H4        1.0  0.89917  0.27280  0.69930  1.0000
  H   H5        1.0  0.67223  0.24619  0.17067  1.0000
  H   H6        1.0  0.32777  0.75381  0.82933  1.0000
  H   H7        1.0  0.37243  0.02779  0.06481  1.0000
  H   H8        1.0  0.62757  0.97221  0.93518  1.0000
  H   H9        1.0  0.08315  0.13952  0.98586  1.0000
  H   H10       1.0  0.91685  0.86049  0.01413  1.0000
  H   H11       1.0  0.37384  0.48809  0.43329  1.0000
  H   H12       1.0  0.62616  0.51191  0.56671  1.0000
  H   H13       1.0  0.20941  0.37502  0.51552  1.0000
  H   H14       1.0  0.79059  0.62498  0.48449  1.0000
  H   H15       1.0  0.01153  0.44923  0.36529  1.0000
  H   H16       1.0  0.98847  0.55077  0.63472  1.0000
  H   H17       1.0  0.14187  0.32455  0.27421  1.0000
  H   H18       1.0  0.85813  0.67545  0.72580  1.0000
  C   C1        1.0  0.37233  0.51990  0.11467  1.0000
  C   C2        1.0  0.62767  0.48011  0.88533  1.0000
  C   C3        1.0  0.54189  0.47036  0.15924  1.0000
  C   C4        1.0  0.45811  0.52964  0.84076  1.0000
  C   C5        1.0  0.54289  0.29047  0.13824  1.0000
  C   C6        1.0  0.45710  0.70953  0.86176  1.0000
  C   C7        1.0  0.37756  0.16803  0.07794  1.0000
  C   C8        1.0  0.62244  0.83198  0.92206  1.0000
  C   C9        1.0  0.21524  0.22697  0.03585  1.0000
  C   C10       1.0  0.78476  0.77304  0.96414  1.0000
  C   C11       1.0  0.34577  0.70494  0.12007  1.0000
  C   C12       1.0  0.65423  0.29506  0.87993  1.0000
  C   C13       1.0  0.72332  0.59514  0.22918  1.0000
  C   C14       1.0  0.27668  0.40485  0.77082  1.0000
  C   C15       1.0  0.37798  0.21801  0.41529  1.0000
  C   C16       1.0  0.62203  0.78199  0.58471  1.0000
  C   C17       1.0  0.26312  0.36456  0.43660  1.0000
  C   C18       1.0  0.73688  0.63544  0.56341  1.0000
  C   C19       1.0  0.08432  0.33541  0.35229  1.0000
  C   C20       1.0  0.91568  0.66459  0.64772  1.0000
  C   C21       1.0  0.91531  0.17436  0.35225  1.0000
  C   C22       1.0  0.08470  0.82564  0.64775  1.0000
  N   N1        1.0  0.21596  0.39865  0.05396  1.0000
  N   N2        1.0  0.78405  0.60136  0.94604  1.0000
  O   O1        1.0  0.21756  0.78526  0.35592  1.0000
  O   O2        1.0  0.78244  0.21474  0.64408  1.0000
  O   O3        1.0  0.20040  0.72312  0.05784  1.0000
  O   O4        1.0  0.79960  0.27689  0.94216  1.0000
  O   O5        1.0  0.46440  0.83356  0.18073  1.0000
  O   O6        1.0  0.53560  0.16644  0.81927  1.0000
  O   O7        1.0  0.90444  0.59104  0.20356  1.0000
  O   O8        1.0  0.09556  0.40896  0.79644  1.0000
  O   O9        1.0  0.68133  0.68787  0.31413  1.0000
  O   O10       1.0  0.31867  0.31213  0.68587  1.0000
  O   O11       1.0  0.42501  0.14155  0.48833  1.0000
  O   O12       1.0  0.57499  0.85845  0.51167  1.0000
  O   O13       1.0  0.42722  0.16613  0.32361  1.0000
  O   O14       1.0  0.57279  0.83387  0.67639  1.0000
  O   O15       1.0  0.82736  0.07598  0.26658  1.0000
  O   O16       1.0  0.17264  0.92402  0.73343  1.0000
  O   O17       1.0  0.85269  0.13811  0.43966  1.0000
  O   O18       1.0  0.14732  0.86188  0.56034  1.0000
