data_image0
_chemical_formula_structural       ZnH38C30N4O6
_chemical_formula_sum              "Zn1 H38 C30 N4 O6"
_cell_length_a       8.84874
_cell_length_b       9.12981
_cell_length_c       10.535
_cell_angle_alpha    93.4546
_cell_angle_beta     114.822
_cell_angle_gamma    89.9823

_space_group_name_H-M_alt    "P 1"
_space_group_IT_number       1

loop_
  _space_group_symop_operation_xyz
  'x, y, z'

loop_
  _atom_site_type_symbol
  _atom_site_label
  _atom_site_symmetry_multiplicity
  _atom_site_fract_x
  _atom_site_fract_y
  _atom_site_fract_z
  _atom_site_occupancy
  Zn  Zn1       1.0  0.85683  0.00003  0.99986  1.0000
  H   H1        1.0  0.14744  0.59767  0.68138  1.0000
  H   H2        1.0  0.46616  0.40243  0.31878  1.0000
  H   H3        1.0  0.59073  0.49304  0.79567  1.0000
  H   H4        1.0  0.79503  0.50720  0.20417  1.0000
  H   H5        1.0  0.81897  0.68354  0.91626  1.0000
  H   H6        1.0  0.90253  0.31663  0.08348  1.0000
  H   H7        1.0  0.48086  0.01292  0.86472  1.0000
  H   H8        1.0  0.61595  0.98741  0.13492  1.0000
  H   H9        1.0  0.23861  0.83741  0.75469  1.0000
  H   H10       1.0  0.48405  0.16302  0.24517  1.0000
  H   H11       1.0  0.99234  0.41191  0.55190  1.0000
  H   H12       1.0  0.44020  0.58791  0.44826  1.0000
  H   H13       1.0  0.99311  0.21429  0.40132  1.0000
  H   H14       1.0  0.59100  0.78558  0.59891  1.0000
  H   H15       1.0  0.18648  0.15403  0.51959  1.0000
  H   H16       1.0  0.66633  0.84598  0.48085  1.0000
  H   H17       1.0  0.86964  0.02428  0.47587  1.0000
  H   H18       1.0  0.39289  0.97569  0.52424  1.0000
  H   H19       1.0  0.06083  0.99217  0.61539  1.0000
  H   H20       1.0  0.44475  0.00768  0.38476  1.0000
  H   H21       1.0  0.26519  0.13353  0.80269  1.0000
  H   H22       1.0  0.46213  0.86621  0.19724  1.0000
  H   H23       1.0  0.19785  0.18829  0.93514  1.0000
  H   H24       1.0  0.26243  0.81125  0.06498  1.0000
  H   H25       1.0  0.32237  0.30987  0.89147  1.0000
  H   H26       1.0  0.43060  0.68970  0.10869  1.0000
  H   H27       1.0  0.11264  0.49618  0.86432  1.0000
  H   H28       1.0  0.24859  0.50363  0.13611  1.0000
  H   H29       1.0  0.96554  0.37764  0.88272  1.0000
  H   H30       1.0  0.08279  0.62189  0.11734  1.0000
  H   H31       1.0  0.90604  0.47821  0.73026  1.0000
  H   H32       1.0  0.17577  0.52147  0.27003  1.0000
  H   H33       1.0  0.70741  0.28186  0.66546  1.0000
  H   H34       1.0  0.04120  0.71804  0.33401  1.0000
  H   H35       1.0  0.65921  0.13823  0.53349  1.0000
  H   H36       1.0  0.12435  0.86173  0.46597  1.0000
  H   H37       1.0  0.75025  0.30455  0.51667  1.0000
  H   H38       1.0  0.23240  0.69543  0.48319  1.0000
  C   C1        1.0  0.56222  0.60657  0.81094  1.0000
  C   C2        1.0  0.75111  0.39374  0.18884  1.0000
  C   C3        1.0  0.68814  0.71209  0.87668  1.0000
  C   C4        1.0  0.81128  0.28818  0.12305  1.0000
  C   C5        1.0  0.49951  0.89632  0.84926  1.0000
  C   C6        1.0  0.65013  0.10397  0.15038  1.0000
  C   C7        1.0  0.36535  0.79894  0.78593  1.0000
  C   C8        1.0  0.57941  0.20144  0.21379  1.0000
  C   C9        1.0  0.39587  0.65028  0.76409  1.0000
  C   C10       1.0  0.63166  0.35006  0.23574  1.0000
  C   C11       1.0  0.25719  0.40898  0.65034  1.0000
  C   C12       1.0  0.60672  0.59116  0.34994  1.0000
  C   C13       1.0  0.08934  0.33318  0.60612  1.0000
  C   C14       1.0  0.48284  0.66677  0.39409  1.0000
  C   C15       1.0  0.06536  0.19221  0.51153  1.0000
  C   C16       1.0  0.55323  0.80768  0.48875  1.0000
  C   C17       1.0  0.97712  0.07945  0.56231  1.0000
  C   C18       1.0  0.41413  0.92045  0.43787  1.0000
  C   C19       1.0  0.92386  0.16279  0.66753  1.0000
  C   C20       1.0  0.25578  0.83714  0.33251  1.0000
  C   C21       1.0  0.06200  0.28877  0.73742  1.0000
  C   C22       1.0  0.32422  0.71111  0.26275  1.0000
  C   C23       1.0  0.22108  0.22629  0.84776  1.0000
  C   C24       1.0  0.37305  0.77339  0.15237  1.0000
  C   C25       1.0  0.00809  0.41816  0.80689  1.0000
  C   C26       1.0  0.20114  0.58160  0.19339  1.0000
  C   C27       1.0  0.75033  0.22654  0.59198  1.0000
  C   C28       1.0  0.15737  0.77341  0.40771  1.0000
  C   C29       1.0  0.92173  0.06477  0.78028  1.0000
  C   C30       1.0  0.14113  0.93527  0.21969  1.0000
  N   N1        1.0  0.65890  0.85477  0.89525  1.0000
  N   N2        1.0  0.76362  0.14548  0.10448  1.0000
  N   N3        1.0  0.26000  0.55476  0.69870  1.0000
  N   N4        1.0  0.56132  0.44542  0.30142  1.0000
  O   O1        1.0  0.38187  0.34904  0.65034  1.0000
  O   O2        1.0  0.73136  0.65118  0.35000  1.0000
  O   O3        1.0  0.86871  0.13113  0.86634  1.0000
  O   O4        1.0  0.00224  0.86888  0.13336  1.0000
  O   O5        1.0  0.96861  0.93530  0.78869  1.0000
  O   O6        1.0  0.17952  0.06479  0.21153  1.0000
