data_image0
_chemical_formula_structural       Lu2CuH18C22N2O18
_chemical_formula_sum              "Lu2 Cu1 H18 C22 N2 O18"
_cell_length_a       6.59468
_cell_length_b       7.93534
_cell_length_c       13.023
_cell_angle_alpha    100.848
_cell_angle_beta     92.2798
_cell_angle_gamma    102.741

_space_group_name_H-M_alt    "P 1"
_space_group_IT_number       1

loop_
  _space_group_symop_operation_xyz
  'x, y, z'

loop_
  _atom_site_type_symbol
  _atom_site_label
  _atom_site_symmetry_multiplicity
  _atom_site_fract_x
  _atom_site_fract_y
  _atom_site_fract_z
  _atom_site_occupancy
  Lu  Lu1       1.0  0.56030  0.93045  0.35326  1.0000
  Lu  Lu2       1.0  0.43969  0.06955  0.64674  1.0000
  Cu  Cu1       1.0  0.00001  0.50000  0.00001  1.0000
  H   H1        1.0  0.10210  0.73015  0.30148  1.0000
  H   H2        1.0  0.89789  0.26985  0.69852  1.0000
  H   H3        1.0  0.16261  0.79701  0.42667  1.0000
  H   H4        1.0  0.83738  0.20299  0.57333  1.0000
  H   H5        1.0  0.67558  0.25167  0.17101  1.0000
  H   H6        1.0  0.32443  0.74833  0.82899  1.0000
  H   H7        1.0  0.37747  0.03104  0.06450  1.0000
  H   H8        1.0  0.62253  0.96895  0.93550  1.0000
  H   H9        1.0  0.08642  0.14035  0.98537  1.0000
  H   H10       1.0  0.91358  0.85964  0.01464  1.0000
  H   H11       1.0  0.37694  0.48907  0.43105  1.0000
  H   H12       1.0  0.62305  0.51093  0.56895  1.0000
  H   H13       1.0  0.21191  0.37670  0.51425  1.0000
  H   H14       1.0  0.78809  0.62329  0.48575  1.0000
  H   H15       1.0  0.01648  0.45038  0.36213  1.0000
  H   H16       1.0  0.98352  0.54963  0.63787  1.0000
  H   H17       1.0  0.14459  0.32267  0.27232  1.0000
  H   H18       1.0  0.85541  0.67734  0.72768  1.0000
  C   C1        1.0  0.37246  0.52267  0.11522  1.0000
  C   C2        1.0  0.62754  0.47732  0.88478  1.0000
  C   C3        1.0  0.54288  0.47448  0.15976  1.0000
  C   C4        1.0  0.45711  0.52551  0.84023  1.0000
  C   C5        1.0  0.54563  0.29485  0.13846  1.0000
  C   C6        1.0  0.45438  0.70516  0.86154  1.0000
  C   C7        1.0  0.38119  0.17120  0.07778  1.0000
  C   C8        1.0  0.61881  0.82880  0.92222  1.0000
  C   C9        1.0  0.21790  0.22878  0.03567  1.0000
  C   C10       1.0  0.78210  0.77122  0.96433  1.0000
  C   C11       1.0  0.34428  0.70751  0.12082  1.0000
  C   C12       1.0  0.65573  0.29249  0.87918  1.0000
  C   C13       1.0  0.72377  0.59994  0.23010  1.0000
  C   C14       1.0  0.27624  0.40007  0.76990  1.0000
  C   C15       1.0  0.37949  0.21854  0.41507  1.0000
  C   C16       1.0  0.62051  0.78146  0.58493  1.0000
  C   C17       1.0  0.26562  0.36531  0.43522  1.0000
  C   C18       1.0  0.73437  0.63468  0.56478  1.0000
  C   C19       1.0  0.08699  0.33550  0.35048  1.0000
  C   C20       1.0  0.91301  0.66451  0.64953  1.0000
  C   C21       1.0  0.91546  0.17544  0.35152  1.0000
  C   C22       1.0  0.08453  0.82457  0.64848  1.0000
  N   N1        1.0  0.21692  0.40026  0.05419  1.0000
  N   N2        1.0  0.78310  0.59974  0.94581  1.0000
  O   O1        1.0  0.21970  0.78631  0.35681  1.0000
  O   O2        1.0  0.78030  0.21368  0.64319  1.0000
  O   O3        1.0  0.19910  0.72487  0.05797  1.0000
  O   O4        1.0  0.80090  0.27512  0.94203  1.0000
  O   O5        1.0  0.46130  0.83669  0.18199  1.0000
  O   O6        1.0  0.53870  0.16331  0.81801  1.0000
  O   O7        1.0  0.90493  0.59625  0.20498  1.0000
  O   O8        1.0  0.09507  0.40377  0.79501  1.0000
  O   O9        1.0  0.68165  0.69224  0.31480  1.0000
  O   O10       1.0  0.31835  0.30776  0.68520  1.0000
  O   O11       1.0  0.42427  0.14128  0.48858  1.0000
  O   O12       1.0  0.57573  0.85871  0.51142  1.0000
  O   O13       1.0  0.43052  0.16753  0.32373  1.0000
  O   O14       1.0  0.56948  0.83247  0.67627  1.0000
  O   O15       1.0  0.82686  0.07615  0.26615  1.0000
  O   O16       1.0  0.17314  0.92386  0.73385  1.0000
  O   O17       1.0  0.85100  0.14099  0.43931  1.0000
  O   O18       1.0  0.14900  0.85901  0.56069  1.0000
