data_image0
_chemical_formula_structural       Zn3H72C36S6N6O24
_chemical_formula_sum              "Zn3 H72 C36 S6 N6 O24"
_cell_length_a       8.82874
_cell_length_b       10.7455
_cell_length_c       14.6682
_cell_angle_alpha    91.9243
_cell_angle_beta     92.1069
_cell_angle_gamma    90.7035

_space_group_name_H-M_alt    "P 1"
_space_group_IT_number       1

loop_
  _space_group_symop_operation_xyz
  'x, y, z'

loop_
  _atom_site_type_symbol
  _atom_site_label
  _atom_site_symmetry_multiplicity
  _atom_site_fract_x
  _atom_site_fract_y
  _atom_site_fract_z
  _atom_site_occupancy
  Zn  Zn1       1.0  0.19602  0.39391  0.30403  1.0000
  Zn  Zn2       1.0  0.80398  0.60609  0.69597  1.0000
  Zn  Zn3       1.0  1.00000  0.00000  0.00000  1.0000
  H   H1        1.0  0.89335  0.28523  0.33711  1.0000
  H   H2        1.0  0.10665  0.71477  0.66289  1.0000
  H   H3        1.0  0.59195  0.32306  0.46532  1.0000
  H   H4        1.0  0.40805  0.67694  0.53468  1.0000
  H   H5        1.0  0.65961  0.24697  0.36502  1.0000
  H   H6        1.0  0.34039  0.75303  0.63498  1.0000
  H   H7        1.0  0.54225  0.38106  0.35629  1.0000
  H   H8        1.0  0.45775  0.61895  0.64371  1.0000
  H   H9        1.0  0.68874  0.53776  0.50329  1.0000
  H   H10       1.0  0.31126  0.46224  0.49671  1.0000
  H   H11       1.0  0.67984  0.59850  0.39145  1.0000
  H   H12       1.0  0.32016  0.40150  0.60855  1.0000
  H   H13       1.0  0.85900  0.58837  0.45226  1.0000
  H   H14       1.0  0.14100  0.41163  0.54774  1.0000
  H   H15       1.0  0.91399  0.32449  0.99825  1.0000
  H   H16       1.0  0.08601  0.67551  0.00175  1.0000
  H   H17       1.0  0.00817  0.53588  0.13534  1.0000
  H   H18       1.0  0.99183  0.46412  0.86466  1.0000
  H   H19       1.0  0.82754  0.46061  0.12742  1.0000
  H   H20       1.0  0.17246  0.53939  0.87258  1.0000
  H   H21       1.0  0.17666  0.33541  0.94921  1.0000
  H   H22       1.0  0.82334  0.66459  0.05079  1.0000
  H   H23       1.0  0.21900  0.46083  0.02879  1.0000
  H   H24       1.0  0.78100  0.53918  0.97121  1.0000
  H   H25       1.0  0.17150  0.02230  0.31870  1.0000
  H   H26       1.0  0.82850  0.97770  0.68130  1.0000
  H   H27       1.0  0.12508  0.91728  0.46705  1.0000
  H   H28       1.0  0.87491  0.08272  0.53295  1.0000
  H   H29       1.0  0.32420  0.90760  0.48677  1.0000
  H   H30       1.0  0.67580  0.09239  0.51323  1.0000
  H   H31       1.0  0.21322  0.70647  0.42059  1.0000
  H   H32       1.0  0.78678  0.29353  0.57941  1.0000
  H   H33       1.0  0.14030  0.78470  0.32522  1.0000
  H   H34       1.0  0.85970  0.21530  0.67479  1.0000
  H   H35       1.0  0.47679  0.75740  0.37812  1.0000
  H   H36       1.0  0.52321  0.24259  0.62188  1.0000
  H   H37       1.0  0.32956  0.88497  0.21387  1.0000
  H   H38       1.0  0.67044  0.11502  0.78613  1.0000
  H   H39       1.0  0.52642  0.86955  0.23763  1.0000
  H   H40       1.0  0.47358  0.13045  0.76237  1.0000
  H   H41       1.0  0.50493  0.00198  0.38113  1.0000
  H   H42       1.0  0.49507  0.99802  0.61887  1.0000
  H   H43       1.0  0.43696  0.08237  0.28422  1.0000
  H   H44       1.0  0.56304  0.91763  0.71578  1.0000
  H   H45       1.0  0.94535  0.04331  0.19406  1.0000
  H   H46       1.0  0.05465  0.95669  0.80594  1.0000
  H   H47       1.0  0.90222  0.70957  0.31817  1.0000
  H   H48       1.0  0.09778  0.29043  0.68183  1.0000
  H   H49       1.0  0.96215  0.70659  0.20321  1.0000
  H   H50       1.0  0.03785  0.29341  0.79679  1.0000
  H   H51       1.0  0.76363  0.71283  0.22690  1.0000
  H   H52       1.0  0.23637  0.28717  0.77310  1.0000
  H   H53       1.0  0.72030  0.92336  0.34492  1.0000
  H   H54       1.0  0.27970  0.07664  0.65508  1.0000
  H   H55       1.0  0.85294  0.04673  0.32519  1.0000
  H   H56       1.0  0.14706  0.95326  0.67481  1.0000
  H   H57       1.0  0.90495  0.91906  0.39452  1.0000
  H   H58       1.0  0.09505  0.08094  0.60548  1.0000
  H   H59       1.0  0.25730  0.81556  0.06544  1.0000
  H   H60       1.0  0.74269  0.18444  0.93457  1.0000
  H   H61       1.0  0.51517  0.63670  0.95773  1.0000
  H   H62       1.0  0.48483  0.36330  0.04227  1.0000
  H   H63       1.0  0.43780  0.67836  0.06586  1.0000
  H   H64       1.0  0.56219  0.32164  0.93414  1.0000
  H   H65       1.0  0.61097  0.74856  0.03225  1.0000
  H   H66       1.0  0.38903  0.25144  0.96775  1.0000
  H   H67       1.0  0.59426  0.86686  0.88592  1.0000
  H   H68       1.0  0.40574  0.13314  0.11409  1.0000
  H   H69       1.0  0.41915  0.94867  0.86743  1.0000
  H   H70       1.0  0.58085  0.05133  0.13257  1.0000
  H   H71       1.0  0.43853  0.79249  0.82355  1.0000
  H   H72       1.0  0.56147  0.20751  0.17645  1.0000
  C   C1        1.0  0.89373  0.38145  0.36421  1.0000
  C   C2        1.0  0.10627  0.61854  0.63579  1.0000
  C   C3        1.0  0.63265  0.33743  0.39663  1.0000
  C   C4        1.0  0.36735  0.66257  0.60337  1.0000
  C   C5        1.0  0.74808  0.54365  0.43916  1.0000
  C   C6        1.0  0.25192  0.45635  0.56083  1.0000
  C   C7        1.0  0.99785  0.37804  0.04152  1.0000
  C   C8        1.0  0.00215  0.62196  0.95848  1.0000
  C   C9        1.0  0.92390  0.49027  0.08776  1.0000
  C   C10       1.0  0.07610  0.50973  0.91224  1.0000
  C   C11       1.0  0.12954  0.41754  0.98362  1.0000
  C   C12       1.0  0.87046  0.58246  0.01638  1.0000
  C   C13       1.0  0.26280  0.01707  0.37169  1.0000
  C   C14       1.0  0.73720  0.98293  0.62831  1.0000
  C   C15       1.0  0.23345  0.90803  0.43326  1.0000
  C   C16       1.0  0.76655  0.09196  0.56674  1.0000
  C   C17       1.0  0.23363  0.78529  0.37679  1.0000
  C   C18       1.0  0.76637  0.21471  0.62321  1.0000
  C   C19       1.0  0.38271  0.76944  0.32796  1.0000
  C   C20       1.0  0.61730  0.23056  0.67204  1.0000
  C   C21       1.0  0.41654  0.88115  0.26953  1.0000
  C   C22       1.0  0.58347  0.11886  0.73047  1.0000
  C   C23       1.0  0.41537  0.00286  0.32699  1.0000
  C   C24       1.0  0.58463  0.99714  0.67301  1.0000
  C   C25       1.0  0.94656  0.94130  0.18452  1.0000
  C   C26       1.0  0.05344  0.05870  0.81548  1.0000
  C   C27       1.0  0.87853  0.74389  0.24969  1.0000
  C   C28       1.0  0.12147  0.25611  0.75031  1.0000
  C   C29       1.0  0.83917  0.94635  0.33371  1.0000
  C   C30       1.0  0.16083  0.05365  0.66630  1.0000
  C   C31       1.0  0.29026  0.85831  0.00161  1.0000
  C   C32       1.0  0.70974  0.14169  0.99839  1.0000
  C   C33       1.0  0.49894  0.71304  0.00806  1.0000
  C   C34       1.0  0.50106  0.28696  0.99194  1.0000
  C   C35       1.0  0.47019  0.85834  0.88034  1.0000
  C   C36       1.0  0.52981  0.14166  0.11966  1.0000
  S   S1        1.0  0.05985  0.26976  0.12584  1.0000
  S   S2        1.0  0.94015  0.73024  0.87416  1.0000
  S   S3        1.0  0.25090  0.16417  0.43369  1.0000
  S   S4        1.0  0.74909  0.83583  0.56631  1.0000
  S   S5        1.0  0.38009  0.62856  0.25738  1.0000
  S   S6        1.0  0.61991  0.37144  0.74262  1.0000
  N   N1        1.0  0.76672  0.41808  0.40095  1.0000
  N   N2        1.0  0.23328  0.58192  0.59905  1.0000
  N   N3        1.0  0.89094  0.87942  0.25303  1.0000
  N   N4        1.0  0.10906  0.12058  0.74697  1.0000
  N   N5        1.0  0.41451  0.81227  0.96526  1.0000
  N   N6        1.0  0.58549  0.18773  0.03474  1.0000
  O   O1        1.0  0.00948  0.45242  0.35870  1.0000
  O   O2        1.0  0.99052  0.54758  0.64130  1.0000
  O   O3        1.0  0.19265  0.33347  0.17571  1.0000
  O   O4        1.0  0.80735  0.66654  0.82429  1.0000
  O   O5        1.0  0.93405  0.24730  0.18549  1.0000
  O   O6        1.0  0.06595  0.75270  0.81451  1.0000
  O   O7        1.0  0.11464  0.15746  0.07743  1.0000
  O   O8        1.0  0.88536  0.84254  0.92257  1.0000
  O   O9        1.0  0.29899  0.25758  0.36539  1.0000
  O   O10       1.0  0.70101  0.74242  0.63461  1.0000
  O   O11       1.0  0.36136  0.16340  0.51023  1.0000
  O   O12       1.0  0.63864  0.83661  0.48977  1.0000
  O   O13       1.0  0.09270  0.18037  0.45749  1.0000
  O   O14       1.0  0.90730  0.81963  0.54250  1.0000
  O   O15       1.0  0.25829  0.63797  0.18749  1.0000
  O   O16       1.0  0.74171  0.36203  0.81251  1.0000
  O   O17       1.0  0.53192  0.61218  0.22302  1.0000
  O   O18       1.0  0.46808  0.38782  0.77697  1.0000
  O   O19       1.0  0.34510  0.52890  0.32490  1.0000
  O   O20       1.0  0.65490  0.47110  0.67510  1.0000
  O   O21       1.0  0.99664  0.88957  0.11323  1.0000
  O   O22       1.0  0.00335  0.11043  0.88677  1.0000
  O   O23       1.0  0.21493  0.94442  0.96632  1.0000
  O   O24       1.0  0.78507  0.05558  0.03368  1.0000
