data_image0
_chemical_formula_structural       Zn4H34C30N14O18
_chemical_formula_sum              "Zn4 H34 C30 N14 O18"
_cell_length_a       6.70475
_cell_length_b       8.99887
_cell_length_c       16.0912
_cell_angle_alpha    90
_cell_angle_beta     89.9999
_cell_angle_gamma    108.565

_space_group_name_H-M_alt    "P 1"
_space_group_IT_number       1

loop_
  _space_group_symop_operation_xyz
  'x, y, z'

loop_
  _atom_site_type_symbol
  _atom_site_label
  _atom_site_symmetry_multiplicity
  _atom_site_fract_x
  _atom_site_fract_y
  _atom_site_fract_z
  _atom_site_occupancy
  Zn  Zn1       1.0  0.22958  0.71731  0.59978  1.0000
  Zn  Zn2       1.0  0.77042  0.28270  0.09978  1.0000
  Zn  Zn3       1.0  0.90426  0.86780  0.82260  1.0000
  Zn  Zn4       1.0  0.09574  0.13220  0.32259  1.0000
  H   H1        1.0  0.61798  0.33631  0.73520  1.0000
  H   H2        1.0  0.38203  0.66369  0.23520  1.0000
  H   H3        1.0  0.71785  0.26746  0.82448  1.0000
  H   H4        1.0  0.28215  0.73254  0.32448  1.0000
  H   H5        1.0  0.83799  0.53258  0.88386  1.0000
  H   H6        1.0  0.16201  0.46742  0.38386  1.0000
  H   H7        1.0  0.94410  0.53875  0.78227  1.0000
  H   H8        1.0  0.05590  0.46125  0.28227  1.0000
  H   H9        1.0  0.20592  0.43543  0.85687  1.0000
  H   H10       1.0  0.79408  0.56457  0.35687  1.0000
  H   H11       1.0  0.30464  0.43465  0.75282  1.0000
  H   H12       1.0  0.69536  0.56536  0.25282  1.0000
  H   H13       1.0  0.34384  0.22009  0.82933  1.0000
  H   H14       1.0  0.65616  0.77991  0.32933  1.0000
  H   H15       1.0  0.46842  0.33980  0.90875  1.0000
  H   H16       1.0  0.53158  0.66020  0.40875  1.0000
  H   H17       1.0  0.43011  0.70273  0.80803  1.0000
  H   H18       1.0  0.56989  0.29727  0.30803  1.0000
  H   H19       1.0  0.52327  0.63805  0.90044  1.0000
  H   H20       1.0  0.47673  0.36194  0.40044  1.0000
  H   H21       1.0  0.88071  0.20132  0.58784  1.0000
  H   H22       1.0  0.11929  0.79868  0.08784  1.0000
  H   H23       1.0  0.16940  0.22581  0.65192  1.0000
  H   H24       1.0  0.83060  0.77419  0.15192  1.0000
  H   H25       1.0  0.85720  0.78937  0.52947  1.0000
  H   H26       1.0  0.14280  0.21063  0.02947  1.0000
  H   H27       1.0  0.83010  0.94753  0.47240  1.0000
  H   H28       1.0  0.16990  0.05247  0.97240  1.0000
  H   H29       1.0  0.10725  0.70626  0.93503  1.0000
  H   H30       1.0  0.89274  0.29374  0.43503  1.0000
  H   H31       1.0  0.27264  0.85742  0.89359  1.0000
  H   H32       1.0  0.72736  0.14258  0.39359  1.0000
  H   H33       1.0  0.69103  0.64799  0.73039  1.0000
  H   H34       1.0  0.30897  0.35200  0.23039  1.0000
  C   C1        1.0  0.65110  0.35618  0.80148  1.0000
  C   C2        1.0  0.34891  0.64382  0.30148  1.0000
  C   C3        1.0  0.79853  0.52034  0.81767  1.0000
  C   C4        1.0  0.20147  0.47966  0.31767  1.0000
  C   C5        1.0  0.34726  0.45293  0.81879  1.0000
  C   C6        1.0  0.65274  0.54707  0.31879  1.0000
  C   C7        1.0  0.49888  0.61705  0.83346  1.0000
  C   C8        1.0  0.50112  0.38295  0.33346  1.0000
  C   C9        1.0  0.64598  0.94628  0.67514  1.0000
  C   C10       1.0  0.35402  0.05372  0.17514  1.0000
  C   C11       1.0  0.72208  0.20433  0.59960  1.0000
  C   C12       1.0  0.27792  0.79567  0.09960  1.0000
  C   C13       1.0  0.57884  0.07908  0.64132  1.0000
  C   C14       1.0  0.42116  0.92092  0.14132  1.0000
  C   C15       1.0  0.37897  0.08838  0.66032  1.0000
  C   C16       1.0  0.62103  0.91162  0.16032  1.0000
  C   C17       1.0  0.46496  0.34189  0.59196  1.0000
  C   C18       1.0  0.53504  0.65811  0.09197  1.0000
  C   C19       1.0  0.23095  0.97527  0.71736  1.0000
  C   C20       1.0  0.76905  0.02473  0.21737  1.0000
  C   C21       1.0  0.84240  0.47626  0.54409  1.0000
  C   C22       1.0  0.15760  0.52374  0.04409  1.0000
  C   C23       1.0  0.32311  0.21821  0.63485  1.0000
  C   C24       1.0  0.67689  0.78179  0.13485  1.0000
  C   C25       1.0  0.66887  0.33639  0.57606  1.0000
  C   C26       1.0  0.33113  0.66361  0.07606  1.0000
  C   C27       1.0  0.12051  0.91698  0.46663  1.0000
  C   C28       1.0  0.87948  0.08302  0.96663  1.0000
  C   C29       1.0  0.40273  0.48266  0.56931  1.0000
  C   C30       1.0  0.59727  0.51735  0.06931  1.0000
  N   N1        1.0  0.70786  0.64441  0.79398  1.0000
  N   N2        1.0  0.29214  0.35559  0.29398  1.0000
  N   N3        1.0  0.44510  0.33182  0.84448  1.0000
  N   N4        1.0  0.55490  0.66818  0.34448  1.0000
  N   N5        1.0  0.44748  0.92308  0.46095  1.0000
  N   N6        1.0  0.55252  0.07692  0.96095  1.0000
  N   N7        1.0  0.26061  0.85300  0.49931  1.0000
  N   N8        1.0  0.73939  0.14700  0.99931  1.0000
  N   N9        1.0  0.91428  0.87445  0.48576  1.0000
  N   N10       1.0  0.08572  0.12556  0.98576  1.0000
  N   N11       1.0  0.22087  0.02537  0.40954  1.0000
  N   N12       1.0  0.77913  0.97463  0.90954  1.0000
  N   N13       1.0  0.42444  0.02481  0.40793  1.0000
  N   N14       1.0  0.57555  0.97519  0.90793  1.0000
  O   O1        1.0  0.80135  0.98819  0.72458  1.0000
  O   O2        1.0  0.19865  0.01180  0.22459  1.0000
  O   O3        1.0  0.54524  0.80613  0.65491  1.0000
  O   O4        1.0  0.45476  0.19387  0.15491  1.0000
  O   O5        1.0  0.14796  0.83091  0.70005  1.0000
  O   O6        1.0  0.85204  0.16909  0.20005  1.0000
  O   O7        1.0  0.93100  0.46368  0.47637  1.0000
  O   O8        1.0  0.06900  0.53632  0.97637  1.0000
  O   O9        1.0  0.89585  0.59594  0.59202  1.0000
  O   O10       1.0  0.10415  0.40406  0.09202  1.0000
  O   O11       1.0  0.18637  0.03400  0.78467  1.0000
  O   O12       1.0  0.81362  0.96600  0.28467  1.0000
  O   O13       1.0  0.48181  0.56242  0.50660  1.0000
  O   O14       1.0  0.51820  0.43758  0.00660  1.0000
  O   O15       1.0  0.26798  0.51077  0.61902  1.0000
  O   O16       1.0  0.73202  0.48923  0.11902  1.0000
  O   O17       1.0  0.12195  0.81004  0.90682  1.0000
  O   O18       1.0  0.87805  0.18996  0.40682  1.0000
