data_image0
_chemical_formula_structural       Sm2CuH26C22N2O22
_chemical_formula_sum              "Sm2 Cu1 H26 C22 N2 O22"
_cell_length_a       6.09664
_cell_length_b       8.98919
_cell_length_c       13.5531
_cell_angle_alpha    85.0505
_cell_angle_beta     86.0018
_cell_angle_gamma    87.4965

_space_group_name_H-M_alt    "P 1"
_space_group_IT_number       1

loop_
  _space_group_symop_operation_xyz
  'x, y, z'

loop_
  _atom_site_type_symbol
  _atom_site_label
  _atom_site_symmetry_multiplicity
  _atom_site_fract_x
  _atom_site_fract_y
  _atom_site_fract_z
  _atom_site_occupancy
  Sm  Sm1       1.0  0.39057  0.65369  0.10774  1.0000
  Sm  Sm2       1.0  0.60942  0.34631  0.89226  1.0000
  Cu  Cu1       1.0  0.00001  0.99999  0.50000  1.0000
  H   H1        1.0  0.05107  0.77164  0.25412  1.0000
  H   H2        1.0  0.94893  0.22837  0.74589  1.0000
  H   H3        1.0  0.90476  0.79732  0.15583  1.0000
  H   H4        1.0  0.09524  0.20269  0.84417  1.0000
  H   H5        1.0  0.84669  0.57740  0.18268  1.0000
  H   H6        1.0  0.15330  0.42261  0.81732  1.0000
  H   H7        1.0  0.80792  0.46382  0.10389  1.0000
  H   H8        1.0  0.19207  0.53620  0.89610  1.0000
  H   H9        1.0  0.60068  0.91008  0.18921  1.0000
  H   H10       1.0  0.39930  0.08993  0.81080  1.0000
  H   H11       1.0  0.66420  0.96016  0.07625  1.0000
  H   H12       1.0  0.33578  0.03986  0.92375  1.0000
  H   H13       1.0  0.28710  0.58948  0.52962  1.0000
  H   H14       1.0  0.71291  0.41050  0.47038  1.0000
  H   H15       1.0  0.53240  0.58108  0.67117  1.0000
  H   H16       1.0  0.46760  0.41891  0.32883  1.0000
  H   H17       1.0  0.85188  0.75065  0.65683  1.0000
  H   H18       1.0  0.14813  0.24933  0.34317  1.0000
  H   H19       1.0  0.10722  0.78633  0.79197  1.0000
  H   H20       1.0  0.89278  0.21369  0.20803  1.0000
  H   H21       1.0  0.05771  0.96524  0.83379  1.0000
  H   H22       1.0  0.94227  0.03478  0.16622  1.0000
  H   H23       1.0  0.70121  0.88322  0.92303  1.0000
  H   H24       1.0  0.29877  0.11679  0.07697  1.0000
  H   H25       1.0  0.71047  0.87238  0.79351  1.0000
  H   H26       1.0  0.28952  0.12763  0.20648  1.0000
  C   C1        1.0  0.64131  0.85742  0.44290  1.0000
  C   C2        1.0  0.35871  0.14256  0.55710  1.0000
  C   C3        1.0  0.47133  0.75878  0.44119  1.0000
  C   C4        1.0  0.52868  0.24120  0.55881  1.0000
  C   C5        1.0  0.42681  0.66177  0.52616  1.0000
  C   C6        1.0  0.57321  0.33821  0.47384  1.0000
  C   C7        1.0  0.56130  0.65737  0.60519  1.0000
  C   C8        1.0  0.43870  0.34262  0.39481  1.0000
  C   C9        1.0  0.73734  0.75251  0.59863  1.0000
  C   C10       1.0  0.26267  0.24747  0.40137  1.0000
  C   C11       1.0  0.68791  0.98347  0.36465  1.0000
  C   C12       1.0  0.31211  0.01652  0.63535  1.0000
  C   C13       1.0  0.33807  0.75245  0.35208  1.0000
  C   C14       1.0  0.66194  0.24753  0.64792  1.0000
  C   C15       1.0  0.14181  0.79292  0.94560  1.0000
  C   C16       1.0  0.85818  0.20709  0.05441  1.0000
  C   C17       1.0  0.02898  0.84704  0.85306  1.0000
  C   C18       1.0  0.97100  0.15297  0.14694  1.0000
  C   C19       1.0  0.78080  0.82379  0.86225  1.0000
  C   C20       1.0  0.21918  0.17622  0.13775  1.0000
  C   C21       1.0  0.72177  0.66205  0.87590  1.0000
  C   C22       1.0  0.27822  0.33795  0.12410  1.0000
  N   N1        1.0  0.77021  0.85225  0.52035  1.0000
  N   N2        1.0  0.22980  0.14773  0.47965  1.0000
  O   O1        1.0  0.03359  0.74243  0.18419  1.0000
  O   O2        1.0  0.96641  0.25758  0.81581  1.0000
  O   O3        1.0  0.83942  0.07091  0.38253  1.0000
  O   O4        1.0  0.16061  0.92907  0.61747  1.0000
  O   O5        1.0  0.73059  0.52338  0.15533  1.0000
  O   O6        1.0  0.26940  0.47663  0.84466  1.0000
  O   O7        1.0  0.57608  0.00144  0.28997  1.0000
  O   O8        1.0  0.42392  0.99855  0.71003  1.0000
  O   O9        1.0  0.63635  0.86877  0.12317  1.0000
  O   O10       1.0  0.36363  0.13124  0.87683  1.0000
  O   O11       1.0  0.14005  0.80007  0.35887  1.0000
  O   O12       1.0  0.85996  0.19992  0.64113  1.0000
  O   O13       1.0  0.43509  0.69052  0.27899  1.0000
  O   O14       1.0  0.56492  0.30948  0.72101  1.0000
  O   O15       1.0  0.26814  0.87622  0.98651  1.0000
  O   O16       1.0  0.73184  0.12380  0.01349  1.0000
  O   O17       1.0  0.11349  0.65838  0.98261  1.0000
  O   O18       1.0  0.88651  0.34162  0.01739  1.0000
  O   O19       1.0  0.59549  0.61501  0.95109  1.0000
  O   O20       1.0  0.40449  0.38500  0.04891  1.0000
  O   O21       1.0  0.79010  0.57193  0.81234  1.0000
  O   O22       1.0  0.20990  0.42808  0.18766  1.0000
