data_image0
_chemical_formula_structural       Tb2CuH26C22N2O22
_chemical_formula_sum              "Tb2 Cu1 H26 C22 N2 O22"
_cell_length_a       6.07225
_cell_length_b       8.94919
_cell_length_c       13.4851
_cell_angle_alpha    85.4754
_cell_angle_beta     85.8207
_cell_angle_gamma    87.8526

_space_group_name_H-M_alt    "P 1"
_space_group_IT_number       1

loop_
  _space_group_symop_operation_xyz
  'x, y, z'

loop_
  _atom_site_type_symbol
  _atom_site_label
  _atom_site_symmetry_multiplicity
  _atom_site_fract_x
  _atom_site_fract_y
  _atom_site_fract_z
  _atom_site_occupancy
  Tb  Tb1       1.0  0.60840  0.34491  0.89281  1.0000
  Tb  Tb2       1.0  0.39161  0.65510  0.10719  1.0000
  Cu  Cu1       1.0  0.00001  0.99999  0.50000  1.0000
  H   H1        1.0  0.94647  0.22284  0.74915  1.0000
  H   H2        1.0  0.05353  0.77716  0.25086  1.0000
  H   H3        1.0  0.08817  0.19775  0.84896  1.0000
  H   H4        1.0  0.91184  0.80226  0.15104  1.0000
  H   H5        1.0  0.40303  0.09118  0.81067  1.0000
  H   H6        1.0  0.59697  0.90882  0.18933  1.0000
  H   H7        1.0  0.34445  0.03951  0.92420  1.0000
  H   H8        1.0  0.65555  0.96049  0.07580  1.0000
  H   H9        1.0  0.19658  0.53012  0.89852  1.0000
  H   H10       1.0  0.80343  0.46989  0.10147  1.0000
  H   H11       1.0  0.15695  0.41512  0.81960  1.0000
  H   H12       1.0  0.84305  0.58488  0.18040  1.0000
  H   H13       1.0  0.71996  0.41188  0.47131  1.0000
  H   H14       1.0  0.28003  0.58811  0.52869  1.0000
  H   H15       1.0  0.47354  0.42097  0.32929  1.0000
  H   H16       1.0  0.52644  0.57902  0.67071  1.0000
  H   H17       1.0  0.15075  0.25133  0.34334  1.0000
  H   H18       1.0  0.84925  0.74865  0.65667  1.0000
  H   H19       1.0  0.92422  0.04481  0.17130  1.0000
  H   H20       1.0  0.07577  0.95520  0.82870  1.0000
  H   H21       1.0  0.88611  0.22831  0.20833  1.0000
  H   H22       1.0  0.11389  0.77171  0.79166  1.0000
  H   H23       1.0  0.28101  0.13076  0.20601  1.0000
  H   H24       1.0  0.71898  0.86925  0.79399  1.0000
  H   H25       1.0  0.28552  0.11782  0.07636  1.0000
  H   H26       1.0  0.71448  0.88219  0.92363  1.0000
  C   C1        1.0  0.36102  0.14333  0.55731  1.0000
  C   C2        1.0  0.63898  0.85666  0.44269  1.0000
  C   C3        1.0  0.53263  0.24216  0.55956  1.0000
  C   C4        1.0  0.46737  0.75783  0.44044  1.0000
  C   C5        1.0  0.57894  0.33951  0.47458  1.0000
  C   C6        1.0  0.42106  0.66048  0.52542  1.0000
  C   C7        1.0  0.44364  0.34451  0.39540  1.0000
  C   C8        1.0  0.55635  0.65548  0.60460  1.0000
  C   C9        1.0  0.26567  0.24934  0.40170  1.0000
  C   C10       1.0  0.73433  0.75065  0.59830  1.0000
  C   C11       1.0  0.31424  0.01623  0.63508  1.0000
  C   C12       1.0  0.68576  0.98376  0.36493  1.0000
  C   C13       1.0  0.66555  0.24718  0.64939  1.0000
  C   C14       1.0  0.33446  0.75281  0.35061  1.0000
  C   C15       1.0  0.84924  0.21185  0.05483  1.0000
  C   C16       1.0  0.15075  0.78816  0.94517  1.0000
  C   C17       1.0  0.95996  0.16151  0.14861  1.0000
  C   C18       1.0  0.04004  0.83851  0.85139  1.0000
  C   C19       1.0  0.21042  0.17998  0.13753  1.0000
  C   C20       1.0  0.78958  0.82003  0.86246  1.0000
  C   C21       1.0  0.27702  0.34102  0.12270  1.0000
  C   C22       1.0  0.72298  0.65899  0.87730  1.0000
  N   N1        1.0  0.23176  0.14875  0.47968  1.0000
  N   N2        1.0  0.76824  0.85123  0.52032  1.0000
  O   O1        1.0  0.16177  0.92808  0.61688  1.0000
  O   O2        1.0  0.83824  0.07190  0.38312  1.0000
  O   O3        1.0  0.95980  0.25174  0.82001  1.0000
  O   O4        1.0  0.04020  0.74826  0.17999  1.0000
  O   O5        1.0  0.42727  0.99795  0.70960  1.0000
  O   O6        1.0  0.57273  0.00204  0.29041  1.0000
  O   O7        1.0  0.36823  0.13187  0.87755  1.0000
  O   O8        1.0  0.63177  0.86813  0.12245  1.0000
  O   O9        1.0  0.27395  0.47020  0.84647  1.0000
  O   O10       1.0  0.72606  0.52981  0.15353  1.0000
  O   O11       1.0  0.86335  0.19806  0.64258  1.0000
  O   O12       1.0  0.13665  0.80193  0.35742  1.0000
  O   O13       1.0  0.56868  0.30913  0.72332  1.0000
  O   O14       1.0  0.43132  0.69086  0.27667  1.0000
  O   O15       1.0  0.72342  0.12658  0.01408  1.0000
  O   O16       1.0  0.27658  0.87343  0.98592  1.0000
  O   O17       1.0  0.87902  0.34577  0.01592  1.0000
  O   O18       1.0  0.12098  0.65424  0.98408  1.0000
  O   O19       1.0  0.40550  0.38472  0.04701  1.0000
  O   O20       1.0  0.59450  0.61529  0.95299  1.0000
  O   O21       1.0  0.21165  0.43426  0.18582  1.0000
  O   O22       1.0  0.78836  0.56574  0.81418  1.0000
