data_image0
_chemical_formula_structural       Er2CuH26C22N2O22
_chemical_formula_sum              "Er2 Cu1 H26 C22 N2 O22"
_cell_length_a       6.24124
_cell_length_b       8.77446
_cell_length_c       13.4503
_cell_angle_alpha    88.0224
_cell_angle_beta     85.6885
_cell_angle_gamma    88.1507

_space_group_name_H-M_alt    "P 1"
_space_group_IT_number       1

loop_
  _space_group_symop_operation_xyz
  'x, y, z'

loop_
  _atom_site_type_symbol
  _atom_site_label
  _atom_site_symmetry_multiplicity
  _atom_site_fract_x
  _atom_site_fract_y
  _atom_site_fract_z
  _atom_site_occupancy
  Er  Er1       1.0  0.39229  0.66468  0.10211  1.0000
  Er  Er2       1.0  0.60771  0.33532  0.89789  1.0000
  Cu  Cu1       1.0  0.99999  1.00000  0.50000  1.0000
  H   H1        1.0  0.07561  0.78514  0.24504  1.0000
  H   H2        1.0  0.92438  0.21486  0.75496  1.0000
  H   H3        1.0  0.94150  0.73495  0.15340  1.0000
  H   H4        1.0  0.05850  0.26506  0.84660  1.0000
  H   H5        1.0  0.58265  0.91559  0.19265  1.0000
  H   H6        1.0  0.41735  0.08442  0.80735  1.0000
  H   H7        1.0  0.62569  0.96911  0.07976  1.0000
  H   H8        1.0  0.37432  0.03090  0.92024  1.0000
  H   H9        1.0  0.76525  0.53229  0.21116  1.0000
  H   H10       1.0  0.23476  0.46771  0.78884  1.0000
  H   H11       1.0  0.81535  0.48837  0.09732  1.0000
  H   H12       1.0  0.18466  0.51163  0.90268  1.0000
  H   H13       1.0  0.28778  0.59138  0.52793  1.0000
  H   H14       1.0  0.71221  0.40861  0.47207  1.0000
  H   H15       1.0  0.53669  0.58239  0.66754  1.0000
  H   H16       1.0  0.46330  0.41760  0.33245  1.0000
  H   H17       1.0  0.85202  0.75352  0.65366  1.0000
  H   H18       1.0  0.14796  0.24648  0.34635  1.0000
  H   H19       1.0  0.93046  0.04319  0.16378  1.0000
  H   H20       1.0  0.06954  0.95681  0.83622  1.0000
  H   H21       1.0  0.89113  0.22697  0.21216  1.0000
  H   H22       1.0  0.10887  0.77303  0.78784  1.0000
  H   H23       1.0  0.27807  0.13569  0.19704  1.0000
  H   H24       1.0  0.72193  0.86432  0.80296  1.0000
  H   H25       1.0  0.26929  0.12274  0.06734  1.0000
  H   H26       1.0  0.73071  0.87726  0.93267  1.0000
  C   C1        1.0  0.64298  0.85709  0.44248  1.0000
  C   C2        1.0  0.35700  0.14291  0.55752  1.0000
  C   C3        1.0  0.47316  0.75761  0.44020  1.0000
  C   C4        1.0  0.52683  0.24239  0.55980  1.0000
  C   C5        1.0  0.42768  0.66295  0.52472  1.0000
  C   C6        1.0  0.57231  0.33704  0.47528  1.0000
  C   C7        1.0  0.56224  0.65924  0.60275  1.0000
  C   C8        1.0  0.43775  0.34075  0.39725  1.0000
  C   C9        1.0  0.73805  0.75380  0.59626  1.0000
  C   C10       1.0  0.26194  0.24619  0.40374  1.0000
  C   C11       1.0  0.68895  0.98538  0.36696  1.0000
  C   C12       1.0  0.31104  0.01461  0.63304  1.0000
  C   C13       1.0  0.34316  0.74704  0.35050  1.0000
  C   C14       1.0  0.65684  0.25295  0.64950  1.0000
  C   C15       1.0  0.84036  0.21682  0.05844  1.0000
  C   C16       1.0  0.15965  0.78319  0.94155  1.0000
  C   C17       1.0  0.95943  0.16397  0.14722  1.0000
  C   C18       1.0  0.04057  0.83604  0.85278  1.0000
  C   C19       1.0  0.20208  0.18582  0.13168  1.0000
  C   C20       1.0  0.79793  0.81418  0.86833  1.0000
  C   C21       1.0  0.26841  0.34949  0.12022  1.0000
  C   C22       1.0  0.73160  0.65052  0.87978  1.0000
  N   N1        1.0  0.77128  0.85256  0.51907  1.0000
  N   N2        1.0  0.22870  0.14743  0.48094  1.0000
  O   O1        1.0  0.84590  0.07032  0.38403  1.0000
  O   O2        1.0  0.15409  0.92968  0.61598  1.0000
  O   O3        1.0  0.07459  0.78211  0.17000  1.0000
  O   O4        1.0  0.92541  0.21790  0.83000  1.0000
  O   O5        1.0  0.57082  0.00857  0.29647  1.0000
  O   O6        1.0  0.42918  0.99144  0.70353  1.0000
  O   O7        1.0  0.58824  0.87783  0.12341  1.0000
  O   O8        1.0  0.41178  0.12218  0.87659  1.0000
  O   O9        1.0  0.73923  0.56424  0.14312  1.0000
  O   O10       1.0  0.26078  0.43575  0.85688  1.0000
  O   O11       1.0  0.14868  0.79194  0.35886  1.0000
  O   O12       1.0  0.85131  0.20805  0.64114  1.0000
  O   O13       1.0  0.44175  0.68481  0.27499  1.0000
  O   O14       1.0  0.55826  0.31519  0.72501  1.0000
  O   O15       1.0  0.70474  0.13334  0.02185  1.0000
  O   O16       1.0  0.29527  0.86666  0.97815  1.0000
  O   O17       1.0  0.87290  0.35056  0.01874  1.0000
  O   O18       1.0  0.12711  0.64944  0.98126  1.0000
  O   O19       1.0  0.40236  0.39049  0.04750  1.0000
  O   O20       1.0  0.59765  0.60950  0.95250  1.0000
  O   O21       1.0  0.20142  0.44818  0.18313  1.0000
  O   O22       1.0  0.79858  0.55182  0.81687  1.0000
