data_image0
_chemical_formula_structural       Gd2CuH26C22N2O22
_chemical_formula_sum              "Gd2 Cu1 H26 C22 N2 O22"
_cell_length_a       6.0597
_cell_length_b       8.95665
_cell_length_c       13.5412
_cell_angle_alpha    85.3671
_cell_angle_beta     85.8209
_cell_angle_gamma    87.8612

_space_group_name_H-M_alt    "P 1"
_space_group_IT_number       1

loop_
  _space_group_symop_operation_xyz
  'x, y, z'

loop_
  _atom_site_type_symbol
  _atom_site_label
  _atom_site_symmetry_multiplicity
  _atom_site_fract_x
  _atom_site_fract_y
  _atom_site_fract_z
  _atom_site_occupancy
  Gd  Gd1       1.0  0.10807  0.34468  0.39311  1.0000
  Gd  Gd2       1.0  0.89193  0.65532  0.60689  1.0000
  Cu  Cu1       1.0  0.50000  0.00000  1.00000  1.0000
  H   H1        1.0  0.58984  0.19703  0.34802  1.0000
  H   H2        1.0  0.41016  0.80297  0.65198  1.0000
  H   H3        1.0  0.44793  0.22519  0.24854  1.0000
  H   H4        1.0  0.55208  0.77481  0.75146  1.0000
  H   H5        1.0  0.90207  0.09018  0.31115  1.0000
  H   H6        1.0  0.09793  0.90982  0.68885  1.0000
  H   H7        1.0  0.84123  0.03787  0.42408  1.0000
  H   H8        1.0  0.15877  0.96212  0.57592  1.0000
  H   H9        1.0  0.65396  0.41446  0.32074  1.0000
  H   H10       1.0  0.34604  0.58554  0.67926  1.0000
  H   H11       1.0  0.69370  0.53004  0.39894  1.0000
  H   H12       1.0  0.30630  0.46996  0.60106  1.0000
  H   H13       1.0  0.22254  0.41129  0.97239  1.0000
  H   H14       1.0  0.77747  0.58870  0.02761  1.0000
  H   H15       1.0  0.97668  0.42065  0.83038  1.0000
  H   H16       1.0  0.02334  0.57934  0.16962  1.0000
  H   H17       1.0  0.65275  0.25140  0.84406  1.0000
  H   H18       1.0  0.34726  0.74861  0.15594  1.0000
  H   H19       1.0  0.42438  0.04497  0.67185  1.0000
  H   H20       1.0  0.57562  0.95503  0.32816  1.0000
  H   H21       1.0  0.38615  0.22878  0.70785  1.0000
  H   H22       1.0  0.61386  0.77122  0.29215  1.0000
  H   H23       1.0  0.78898  0.11668  0.57889  1.0000
  H   H24       1.0  0.21102  0.88332  0.42111  1.0000
  H   H25       1.0  0.78065  0.13131  0.70819  1.0000
  H   H26       1.0  0.21935  0.86869  0.29181  1.0000
  C   C1        1.0  0.86140  0.14331  0.05776  1.0000
  C   C2        1.0  0.13859  0.85670  0.94224  1.0000
  C   C3        1.0  0.03333  0.24213  0.06013  1.0000
  C   C4        1.0  0.96667  0.75788  0.93987  1.0000
  C   C5        1.0  0.08085  0.33920  0.97541  1.0000
  C   C6        1.0  0.91915  0.66080  0.02459  1.0000
  C   C7        1.0  0.94616  0.34410  0.89623  1.0000
  C   C8        1.0  0.05384  0.65589  0.10377  1.0000
  C   C9        1.0  0.76757  0.24909  0.90234  1.0000
  C   C10       1.0  0.23243  0.75092  0.09766  1.0000
  C   C11       1.0  0.81328  0.01643  0.13542  1.0000
  C   C12       1.0  0.18671  0.98358  0.86459  1.0000
  C   C13       1.0  0.16568  0.24802  0.14974  1.0000
  C   C14       1.0  0.83431  0.75198  0.85026  1.0000
  C   C15       1.0  0.35172  0.21159  0.55501  1.0000
  C   C16       1.0  0.64828  0.78841  0.44499  1.0000
  C   C17       1.0  0.46100  0.16141  0.64896  1.0000
  C   C18       1.0  0.53900  0.83859  0.35104  1.0000
  C   C19       1.0  0.71219  0.17946  0.63913  1.0000
  C   C20       1.0  0.28781  0.82054  0.36087  1.0000
  C   C21       1.0  0.77827  0.34051  0.62377  1.0000
  C   C22       1.0  0.22174  0.65949  0.37623  1.0000
  N   N1        1.0  0.73258  0.14871  0.98016  1.0000
  N   N2        1.0  0.26741  0.85131  0.01984  1.0000
  O   O1        1.0  0.65998  0.92886  0.11713  1.0000
  O   O2        1.0  0.34001  0.07114  0.88287  1.0000
  O   O3        1.0  0.46173  0.25233  0.31950  1.0000
  O   O4        1.0  0.53827  0.74766  0.68050  1.0000
  O   O5        1.0  0.92584  0.99791  0.20984  1.0000
  O   O6        1.0  0.07415  0.00209  0.79016  1.0000
  O   O7        1.0  0.86659  0.13044  0.37775  1.0000
  O   O8        1.0  0.13341  0.86956  0.62226  1.0000
  O   O9        1.0  0.77094  0.47048  0.34698  1.0000
  O   O10       1.0  0.22906  0.52952  0.65302  1.0000
  O   O11       1.0  0.36506  0.20121  0.14270  1.0000
  O   O12       1.0  0.63495  0.79880  0.85730  1.0000
  O   O13       1.0  0.06675  0.30840  0.22347  1.0000
  O   O14       1.0  0.93326  0.69160  0.77652  1.0000
  O   O15       1.0  0.22610  0.12624  0.51427  1.0000
  O   O16       1.0  0.77390  0.87375  0.48573  1.0000
  O   O17       1.0  0.38224  0.34531  0.51615  1.0000
  O   O18       1.0  0.61776  0.65469  0.48385  1.0000
  O   O19       1.0  0.90509  0.38478  0.54778  1.0000
  O   O20       1.0  0.09492  0.61522  0.45222  1.0000
  O   O21       1.0  0.71357  0.43326  0.68687  1.0000
  O   O22       1.0  0.28644  0.56674  0.31313  1.0000
