data_image0
_chemical_formula_structural       Er2CuH18C22N2O18
_chemical_formula_sum              "Er2 Cu1 H18 C22 N2 O18"
_cell_length_a       6.60376
_cell_length_b       7.96715
_cell_length_c       13.0671
_cell_angle_alpha    100.969
_cell_angle_beta     92.2983
_cell_angle_gamma    102.406

_space_group_name_H-M_alt    "P 1"
_space_group_IT_number       1

loop_
  _space_group_symop_operation_xyz
  'x, y, z'

loop_
  _atom_site_type_symbol
  _atom_site_label
  _atom_site_symmetry_multiplicity
  _atom_site_fract_x
  _atom_site_fract_y
  _atom_site_fract_z
  _atom_site_occupancy
  Er  Er1       1.0  0.43960  0.57094  0.14742  1.0000
  Er  Er2       1.0  0.56040  0.42906  0.85258  1.0000
  Cu  Cu1       1.0  0.00000  1.00000  0.50000  1.0000
  H   H1        1.0  0.84388  0.70316  0.07542  1.0000
  H   H2        1.0  0.15611  0.29683  0.92458  1.0000
  H   H3        1.0  0.90296  0.77273  0.20004  1.0000
  H   H4        1.0  0.09704  0.22727  0.79996  1.0000
  H   H5        1.0  0.32778  0.25307  0.33014  1.0000
  H   H6        1.0  0.67223  0.74694  0.66986  1.0000
  H   H7        1.0  0.62642  0.47089  0.43598  1.0000
  H   H8        1.0  0.37360  0.52912  0.56402  1.0000
  H   H9        1.0  0.91662  0.35952  0.51386  1.0000
  H   H10       1.0  0.08339  0.64047  0.48614  1.0000
  H   H11       1.0  0.78700  0.12275  0.98480  1.0000
  H   H12       1.0  0.21299  0.87726  0.01520  1.0000
  H   H13       1.0  0.62428  0.01060  0.06785  1.0000
  H   H14       1.0  0.37572  0.98940  0.93215  1.0000
  H   H15       1.0  0.85925  0.17088  0.22548  1.0000
  H   H16       1.0  0.14074  0.82912  0.77452  1.0000
  H   H17       1.0  0.98775  0.04785  0.13340  1.0000
  H   H18       1.0  0.01224  0.95215  0.86660  1.0000
  C   C1        1.0  0.62807  0.98034  0.38587  1.0000
  C   C2        1.0  0.37194  0.01966  0.61413  1.0000
  C   C3        1.0  0.45869  0.02979  0.34148  1.0000
  C   C4        1.0  0.54132  0.97021  0.65852  1.0000
  C   C5        1.0  0.45714  0.20907  0.36252  1.0000
  C   C6        1.0  0.54287  0.79093  0.63749  1.0000
  C   C7        1.0  0.62196  0.33113  0.42266  1.0000
  C   C8        1.0  0.37806  0.66888  0.57735  1.0000
  C   C9        1.0  0.78453  0.27237  0.46427  1.0000
  C   C10       1.0  0.21548  0.72763  0.53573  1.0000
  C   C11       1.0  0.65407  0.79567  0.38083  1.0000
  C   C12       1.0  0.34593  0.20432  0.61917  1.0000
  C   C13       1.0  0.27815  0.90560  0.27144  1.0000
  C   C14       1.0  0.72186  0.09441  0.72856  1.0000
  C   C15       1.0  0.62224  0.28050  0.08586  1.0000
  C   C16       1.0  0.37775  0.71950  0.91414  1.0000
  C   C17       1.0  0.73531  0.13345  0.06396  1.0000
  C   C18       1.0  0.26468  0.86655  0.93603  1.0000
  C   C19       1.0  0.91515  0.16134  0.14725  1.0000
  C   C20       1.0  0.08484  0.83866  0.85275  1.0000
  C   C21       1.0  0.08311  0.32261  0.14722  1.0000
  C   C22       1.0  0.91689  0.67739  0.85278  1.0000
  N   N1        1.0  0.78430  0.10128  0.44619  1.0000
  N   N2        1.0  0.21571  0.89871  0.55381  1.0000
  O   O1        1.0  0.78655  0.71461  0.14488  1.0000
  O   O2        1.0  0.21345  0.28538  0.85512  1.0000
  O   O3        1.0  0.80022  0.77729  0.44228  1.0000
  O   O4        1.0  0.19978  0.22270  0.55772  1.0000
  O   O5        1.0  0.53384  0.66732  0.32127  1.0000
  O   O6        1.0  0.46616  0.33268  0.67873  1.0000
  O   O7        1.0  0.09742  0.90762  0.29734  1.0000
  O   O8        1.0  0.90258  0.09239  0.70266  1.0000
  O   O9        1.0  0.32023  0.81539  0.18607  1.0000
  O   O10       1.0  0.67977  0.18461  0.81393  1.0000
  O   O11       1.0  0.57415  0.35705  0.01284  1.0000
  O   O12       1.0  0.42585  0.64296  0.98716  1.0000
  O   O13       1.0  0.57518  0.33193  0.17764  1.0000
  O   O14       1.0  0.42480  0.66806  0.82236  1.0000
  O   O15       1.0  0.17144  0.41947  0.23298  1.0000
  O   O16       1.0  0.82855  0.58053  0.76702  1.0000
  O   O17       1.0  0.14384  0.36025  0.05994  1.0000
  O   O18       1.0  0.85615  0.63975  0.94006  1.0000
