data_image0
_chemical_formula_structural       Ca2H32C32Cl4O12
_chemical_formula_sum              "Ca2 H32 C32 Cl4 O12"
_cell_length_a       6.63954
_cell_length_b       11.3992
_cell_length_c       13.3526
_cell_angle_alpha    106.127
_cell_angle_beta     90.0001
_cell_angle_gamma    89.9994

_space_group_name_H-M_alt    "P 1"
_space_group_IT_number       1

loop_
  _space_group_symop_operation_xyz
  'x, y, z'

loop_
  _atom_site_type_symbol
  _atom_site_label
  _atom_site_symmetry_multiplicity
  _atom_site_fract_x
  _atom_site_fract_y
  _atom_site_fract_z
  _atom_site_occupancy
  Ca  Ca1       1.0  0.79545  0.04481  0.44964  1.0000
  Ca  Ca2       1.0  0.29544  0.95518  0.55035  1.0000
  H   H1        1.0  0.53527  0.28941  0.97449  1.0000
  H   H2        1.0  0.03526  0.71058  0.02550  1.0000
  H   H3        1.0  0.23030  0.42008  0.98553  1.0000
  H   H4        1.0  0.73029  0.57993  0.01447  1.0000
  H   H5        1.0  0.19011  0.54666  0.86186  1.0000
  H   H6        1.0  0.69010  0.45334  0.13815  1.0000
  H   H7        1.0  0.45111  0.54132  0.72764  1.0000
  H   H8        1.0  0.95110  0.45869  0.27237  1.0000
  H   H9        1.0  0.95555  0.43168  0.73536  1.0000
  H   H10       1.0  0.45555  0.56832  0.26464  1.0000
  H   H11       1.0  0.78259  0.49156  0.66265  1.0000
  H   H12       1.0  0.28258  0.50844  0.33735  1.0000
  H   H13       1.0  0.70288  0.09851  0.01769  1.0000
  H   H14       1.0  0.20289  0.90149  0.98231  1.0000
  H   H15       1.0  0.73100  0.92449  0.09649  1.0000
  H   H16       1.0  0.23100  0.07551  0.90350  1.0000
  H   H17       1.0  0.02036  0.91185  0.20913  1.0000
  H   H18       1.0  0.52036  0.08814  0.79087  1.0000
  H   H19       1.0  0.97484  0.25552  0.04879  1.0000
  H   H20       1.0  0.47485  0.74448  0.95120  1.0000
  H   H21       1.0  0.43362  0.14940  0.27930  1.0000
  H   H22       1.0  0.93363  0.85061  0.72070  1.0000
  H   H23       1.0  0.45041  0.99475  0.21229  1.0000
  H   H24       1.0  0.95040  0.00527  0.78771  1.0000
  H   H25       1.0  0.93810  0.79365  0.37520  1.0000
  H   H26       1.0  0.43811  0.20634  0.62480  1.0000
  H   H27       1.0  0.70198  0.78134  0.39019  1.0000
  H   H28       1.0  0.20200  0.21866  0.60980  1.0000
  H   H29       1.0  0.90248  0.18904  0.30332  1.0000
  H   H30       1.0  0.40247  0.81096  0.69668  1.0000
  H   H31       1.0  0.89689  0.25475  0.42359  1.0000
  H   H32       1.0  0.39689  0.74524  0.57641  1.0000
  C   C1        1.0  0.66321  0.34576  0.84665  1.0000
  C   C2        1.0  0.16319  0.65424  0.15334  1.0000
  C   C3        1.0  0.51561  0.34529  0.92096  1.0000
  C   C4        1.0  0.01560  0.65471  0.07903  1.0000
  C   C5        1.0  0.34485  0.41807  0.92659  1.0000
  C   C6        1.0  0.84483  0.58193  0.07341  1.0000
  C   C7        1.0  0.32258  0.48882  0.85707  1.0000
  C   C8        1.0  0.82256  0.51119  0.14294  1.0000
  C   C9        1.0  0.47004  0.48621  0.78208  1.0000
  C   C10       1.0  0.97003  0.51381  0.21793  1.0000
  C   C11       1.0  0.64487  0.41537  0.77542  1.0000
  C   C12       1.0  0.14485  0.58463  0.22459  1.0000
  C   C13       1.0  0.80715  0.41593  0.69753  1.0000
  C   C14       1.0  0.30713  0.58407  0.30247  1.0000
  C   C15       1.0  0.82634  0.30033  0.60659  1.0000
  C   C16       1.0  0.32635  0.69967  0.39342  1.0000
  C   C17       1.0  0.83178  0.09166  0.06627  1.0000
  C   C18       1.0  0.33181  0.90834  0.93373  1.0000
  C   C19       1.0  0.84718  0.99468  0.11094  1.0000
  C   C20       1.0  0.34719  0.00532  0.88906  1.0000
  C   C21       1.0  0.01138  0.98713  0.17384  1.0000
  C   C22       1.0  0.51139  0.01287  0.82616  1.0000
  C   C23       1.0  0.16640  0.07484  0.19312  1.0000
  C   C24       1.0  0.66640  0.92516  0.80688  1.0000
  C   C25       1.0  0.14880  0.16969  0.14518  1.0000
  C   C26       1.0  0.64880  0.83031  0.85482  1.0000
  C   C27       1.0  0.98324  0.17966  0.08334  1.0000
  C   C28       1.0  0.48326  0.82035  0.91667  1.0000
  C   C29       1.0  0.34591  0.06416  0.25807  1.0000
  C   C30       1.0  0.84592  0.93585  0.74193  1.0000
  C   C31       1.0  0.30631  0.03080  0.35879  1.0000
  C   C32       1.0  0.80632  0.96920  0.64121  1.0000
  Cl  Cl1       1.0  0.88005  0.25897  0.84356  1.0000
  Cl  Cl2       1.0  0.38003  0.74103  0.15644  1.0000
  Cl  Cl3       1.0  0.33997  0.27768  0.15963  1.0000
  Cl  Cl4       1.0  0.83998  0.72232  0.84037  1.0000
  O   O1        1.0  0.98923  0.28654  0.55380  1.0000
  O   O2        1.0  0.48922  0.71347  0.44619  1.0000
  O   O3        1.0  0.68109  0.22471  0.58409  1.0000
  O   O4        1.0  0.18106  0.77528  0.41591  1.0000
  O   O5        1.0  0.13120  0.02895  0.39525  1.0000
  O   O6        1.0  0.63121  0.97103  0.60475  1.0000
  O   O7        1.0  0.46136  0.00598  0.40575  1.0000
  O   O8        1.0  0.96137  0.99403  0.59424  1.0000
  O   O9        1.0  0.80541  0.83064  0.36740  1.0000
  O   O10       1.0  0.30540  0.16935  0.63259  1.0000
  O   O11       1.0  0.81183  0.21087  0.36314  1.0000
  O   O12       1.0  0.31182  0.78913  0.63687  1.0000
