data_image0
_chemical_formula_structural       Ca2H44C36O16
_chemical_formula_sum              "Ca2 H44 C36 O16"
_cell_length_a       6.66996
_cell_length_b       8.8481
_cell_length_c       15.8826
_cell_angle_alpha    95.856
_cell_angle_beta     89.9997
_cell_angle_gamma    89.9997

_space_group_name_H-M_alt    "P 1"
_space_group_IT_number       1

loop_
  _space_group_symop_operation_xyz
  'x, y, z'

loop_
  _atom_site_type_symbol
  _atom_site_label
  _atom_site_symmetry_multiplicity
  _atom_site_fract_x
  _atom_site_fract_y
  _atom_site_fract_z
  _atom_site_occupancy
  Ca  Ca1       1.0  0.60264  0.44759  0.54786  1.0000
  Ca  Ca2       1.0  0.10265  0.55240  0.45214  1.0000
  H   H1        1.0  0.93470  0.40409  0.00870  1.0000
  H   H2        1.0  0.43470  0.59589  0.99130  1.0000
  H   H3        1.0  0.79120  0.55346  0.97028  1.0000
  H   H4        1.0  0.29120  0.44653  0.02972  1.0000
  H   H5        1.0  0.95369  0.43844  0.89984  1.0000
  H   H6        1.0  0.45369  0.56155  0.10016  1.0000
  H   H7        1.0  0.38270  0.16582  0.91230  1.0000
  H   H8        1.0  0.88271  0.83419  0.08770  1.0000
  H   H9        1.0  0.10884  0.20227  0.81090  1.0000
  H   H10       1.0  0.60885  0.79775  0.18910  1.0000
  H   H11       1.0  0.41728  0.59394  0.73414  1.0000
  H   H12       1.0  0.91726  0.40606  0.26586  1.0000
  H   H13       1.0  0.69007  0.55573  0.83279  1.0000
  H   H14       1.0  0.19006  0.44427  0.16721  1.0000
  H   H15       1.0  0.98390  0.53871  0.74120  1.0000
  H   H16       1.0  0.48388  0.46132  0.25880  1.0000
  H   H17       1.0  0.94747  0.34350  0.71501  1.0000
  H   H18       1.0  0.44747  0.65653  0.28499  1.0000
  H   H19       1.0  0.01909  0.13884  0.96717  1.0000
  H   H20       1.0  0.51907  0.86115  0.03283  1.0000
  H   H21       1.0  0.92681  0.13096  0.07238  1.0000
  H   H22       1.0  0.42681  0.86901  0.92762  1.0000
  H   H23       1.0  0.07513  0.97726  0.02218  1.0000
  H   H24       1.0  0.57509  0.02273  0.97782  1.0000
  H   H25       1.0  0.06586  0.00696  0.17349  1.0000
  H   H26       1.0  0.56584  0.99303  0.82652  1.0000
  H   H27       1.0  0.23579  0.93964  0.30170  1.0000
  H   H28       1.0  0.73576  0.06036  0.69830  1.0000
  H   H29       1.0  0.75763  0.19044  0.23799  1.0000
  H   H30       1.0  0.25764  0.80956  0.76201  1.0000
  H   H31       1.0  0.58468  0.26236  0.10854  1.0000
  H   H32       1.0  0.08467  0.73764  0.89145  1.0000
  H   H33       1.0  0.55963  0.90476  0.37323  1.0000
  H   H34       1.0  0.05962  0.09523  0.62677  1.0000
  H   H35       1.0  0.77716  0.00808  0.34630  1.0000
  H   H36       1.0  0.27714  0.99193  0.65370  1.0000
  H   H37       1.0  0.45239  0.25544  0.67007  1.0000
  H   H38       1.0  0.95241  0.74456  0.32992  1.0000
  H   H39       1.0  0.48763  0.17476  0.57781  1.0000
  H   H40       1.0  0.98764  0.82524  0.42218  1.0000
  H   H41       1.0  0.68616  0.77928  0.57344  1.0000
  H   H42       1.0  0.18616  0.22071  0.42656  1.0000
  H   H43       1.0  0.44873  0.75202  0.57946  1.0000
  H   H44       1.0  0.94873  0.24798  0.42055  1.0000
  C   C1        1.0  0.85206  0.43869  0.95440  1.0000
  C   C2        1.0  0.35206  0.56130  0.04561  1.0000
  C   C3        1.0  0.55525  0.35583  0.87881  1.0000
  C   C4        1.0  0.05524  0.64417  0.12119  1.0000
  C   C5        1.0  0.39107  0.25657  0.87120  1.0000
  C   C6        1.0  0.89108  0.74343  0.12879  1.0000
  C   C7        1.0  0.23670  0.27975  0.81528  1.0000
  C   C8        1.0  0.73671  0.72027  0.18472  1.0000
  C   C9        1.0  0.23975  0.40266  0.76585  1.0000
  C   C10       1.0  0.73976  0.59736  0.23416  1.0000
  C   C11       1.0  0.40747  0.49895  0.77267  1.0000
  C   C12       1.0  0.90747  0.50106  0.22733  1.0000
  C   C13       1.0  0.56475  0.47656  0.82818  1.0000
  C   C14       1.0  0.06474  0.52345  0.17182  1.0000
  C   C15       1.0  0.05984  0.43435  0.71363  1.0000
  C   C16       1.0  0.55984  0.56568  0.28637  1.0000
  C   C17       1.0  0.09213  0.45882  0.62152  1.0000
  C   C18       1.0  0.59213  0.54118  0.37848  1.0000
  C   C19       1.0  0.05308  0.10107  0.02911  1.0000
  C   C20       1.0  0.55308  0.89891  0.97089  1.0000
  C   C21       1.0  0.31497  0.13879  0.13224  1.0000
  C   C22       1.0  0.81497  0.86120  0.86776  1.0000
  C   C23       1.0  0.21674  0.04920  0.18706  1.0000
  C   C24       1.0  0.71673  0.95079  0.81294  1.0000
  C   C25       1.0  0.31387  0.01069  0.25981  1.0000
  C   C26       1.0  0.81386  0.98931  0.74019  1.0000
  C   C27       1.0  0.50958  0.05954  0.27905  1.0000
  C   C28       1.0  0.00958  0.94046  0.72095  1.0000
  C   C29       1.0  0.60471  0.15163  0.22414  1.0000
  C   C30       1.0  0.10471  0.84837  0.77586  1.0000
  C   C31       1.0  0.50936  0.19230  0.15166  1.0000
  C   C32       1.0  0.00936  0.80771  0.84834  1.0000
  C   C33       1.0  0.61477  0.01528  0.35722  1.0000
  C   C34       1.0  0.11476  0.98472  0.64279  1.0000
  C   C35       1.0  0.57552  0.13137  0.43354  1.0000
  C   C36       1.0  0.07552  0.86863  0.56646  1.0000
  O   O1        1.0  0.26415  0.45585  0.58814  1.0000
  O   O2        1.0  0.76415  0.54415  0.41186  1.0000
  O   O3        1.0  0.93525  0.48596  0.57936  1.0000
  O   O4        1.0  0.43523  0.51405  0.42063  1.0000
  O   O5        1.0  0.69500  0.32859  0.93839  1.0000
  O   O6        1.0  0.19501  0.67141  0.06161  1.0000
  O   O7        1.0  0.41057  0.12600  0.47345  1.0000
  O   O8        1.0  0.91057  0.87399  0.52655  1.0000
  O   O9        1.0  0.71010  0.23157  0.45337  1.0000
  O   O10       1.0  0.21009  0.76843  0.54663  1.0000
  O   O11       1.0  0.23390  0.17727  0.05770  1.0000
  O   O12       1.0  0.73390  0.82272  0.94230  1.0000
  O   O13       1.0  0.55762  0.22743  0.62857  1.0000
  O   O14       1.0  0.05764  0.77256  0.37143  1.0000
  O   O15       1.0  0.58323  0.71200  0.59412  1.0000
  O   O16       1.0  0.08323  0.28799  0.40588  1.0000
