data_image0
_chemical_formula_structural       Cd2H40C44N8O8
_chemical_formula_sum              "Cd2 H40 C44 N8 O8"
_cell_length_a       8.54659
_cell_length_b       10.3275
_cell_length_c       11.6543
_cell_angle_alpha    85.6868
_cell_angle_beta     88.1314
_cell_angle_gamma    85.5974

_space_group_name_H-M_alt    "P 1"
_space_group_IT_number       1

loop_
  _space_group_symop_operation_xyz
  'x, y, z'

loop_
  _atom_site_type_symbol
  _atom_site_label
  _atom_site_symmetry_multiplicity
  _atom_site_fract_x
  _atom_site_fract_y
  _atom_site_fract_z
  _atom_site_occupancy
  Cd  Cd1       1.0  0.74901  0.76071  0.26048  1.0000
  Cd  Cd2       1.0  0.25099  0.23929  0.73952  1.0000
  H   H1        1.0  0.51321  0.50681  0.23080  1.0000
  H   H2        1.0  0.48679  0.49318  0.76921  1.0000
  H   H3        1.0  0.13903  0.55081  0.57368  1.0000
  H   H4        1.0  0.86097  0.44919  0.42632  1.0000
  H   H5        1.0  0.16792  0.73094  0.69915  1.0000
  H   H6        1.0  0.83208  0.26906  0.30085  1.0000
  H   H7        1.0  0.36381  0.89184  0.65432  1.0000
  H   H8        1.0  0.63619  0.10816  0.34568  1.0000
  H   H9        1.0  0.55293  0.87098  0.48642  1.0000
  H   H10       1.0  0.44707  0.12902  0.51358  1.0000
  H   H11       1.0  0.12594  0.46091  0.34903  1.0000
  H   H12       1.0  0.87406  0.53909  0.65097  1.0000
  H   H13       1.0  0.25141  0.35444  0.43962  1.0000
  H   H14       1.0  0.74858  0.64556  0.56038  1.0000
  H   H15       1.0  0.42145  0.30659  0.26226  1.0000
  H   H16       1.0  0.57856  0.69341  0.73775  1.0000
  H   H17       1.0  0.28076  0.40135  0.17628  1.0000
  H   H18       1.0  0.71924  0.59865  0.82372  1.0000
  H   H19       1.0  0.21579  0.16176  0.33838  1.0000
  H   H20       1.0  0.78421  0.83824  0.66162  1.0000
  H   H21       1.0  0.07338  0.25428  0.25644  1.0000
  H   H22       1.0  0.92662  0.74572  0.74357  1.0000
  H   H23       1.0  0.15668  0.05672  0.16202  1.0000
  H   H24       1.0  0.84332  0.94329  0.83798  1.0000
  H   H25       1.0  0.20940  0.19539  0.07269  1.0000
  H   H26       1.0  0.79060  0.80461  0.92731  1.0000
  H   H27       1.0  0.37020  0.90418  0.25217  1.0000
  H   H28       1.0  0.62980  0.09582  0.74783  1.0000
  H   H29       1.0  0.43651  0.31554  0.99711  1.0000
  H   H30       1.0  0.56350  0.68446  0.00289  1.0000
  H   H31       1.0  0.70632  0.35707  0.91930  1.0000
  H   H32       1.0  0.29368  0.64293  0.08070  1.0000
  H   H33       1.0  0.93392  0.20362  0.96492  1.0000
  H   H34       1.0  0.06608  0.79638  0.03508  1.0000
  H   H35       1.0  0.90371  0.00087  0.09531  1.0000
  H   H36       1.0  0.09629  0.99913  0.90469  1.0000
  H   H37       1.0  0.02717  0.38764  0.09328  1.0000
  H   H38       1.0  0.97283  0.61236  0.90672  1.0000
  H   H39       1.0  0.15859  0.97872  0.43498  1.0000
  H   H40       1.0  0.84142  0.02127  0.56502  1.0000
  C   C1        1.0  0.47035  0.56039  0.30334  1.0000
  C   C2        1.0  0.52965  0.43961  0.69666  1.0000
  C   C3        1.0  0.44651  0.70131  0.43363  1.0000
  C   C4        1.0  0.55349  0.29869  0.56637  1.0000
  C   C5        1.0  0.32850  0.61312  0.45722  1.0000
  C   C6        1.0  0.67150  0.38688  0.54278  1.0000
  C   C7        1.0  0.22559  0.62127  0.55226  1.0000
  C   C8        1.0  0.77440  0.37873  0.44774  1.0000
  C   C9        1.0  0.24335  0.72223  0.62253  1.0000
  C   C10       1.0  0.75666  0.27777  0.37747  1.0000
  C   C11       1.0  0.35739  0.81281  0.59813  1.0000
  C   C12       1.0  0.64262  0.18719  0.40187  1.0000
  C   C13       1.0  0.46116  0.80383  0.50391  1.0000
  C   C14       1.0  0.53884  0.19617  0.49609  1.0000
  C   C15       1.0  0.24710  0.41825  0.35964  1.0000
  C   C16       1.0  0.75290  0.58175  0.64036  1.0000
  C   C17       1.0  0.29626  0.33984  0.25719  1.0000
  C   C18       1.0  0.70374  0.66016  0.74281  1.0000
  C   C19       1.0  0.19907  0.22175  0.25703  1.0000
  C   C20       1.0  0.80094  0.77825  0.74297  1.0000
  C   C21       1.0  0.23232  0.13839  0.15465  1.0000
  C   C22       1.0  0.76768  0.86161  0.84535  1.0000
  C   C23       1.0  0.44828  0.96705  0.20302  1.0000
  C   C24       1.0  0.55172  0.03295  0.79698  1.0000
  C   C25       1.0  0.65340  0.04623  0.11741  1.0000
  C   C26       1.0  0.34660  0.95377  0.88259  1.0000
  C   C27       1.0  0.52292  0.13566  0.09138  1.0000
  C   C28       1.0  0.47708  0.86434  0.90862  1.0000
  C   C29       1.0  0.53802  0.24925  0.01977  1.0000
  C   C30       1.0  0.46198  0.75075  0.98022  1.0000
  C   C31       1.0  0.68838  0.27040  0.97606  1.0000
  C   C32       1.0  0.31162  0.72960  0.02394  1.0000
  C   C33       1.0  0.81924  0.18253  0.00230  1.0000
  C   C34       1.0  0.18076  0.81747  0.99769  1.0000
  C   C35       1.0  0.80393  0.06956  0.07345  1.0000
  C   C36       1.0  0.19607  0.93044  0.92655  1.0000
  C   C37       1.0  0.89932  0.57284  0.13335  1.0000
  C   C38       1.0  0.10068  0.42716  0.86666  1.0000
  C   C39       1.0  0.98451  0.48295  0.05557  1.0000
  C   C40       1.0  0.01549  0.51705  0.94444  1.0000
  C   C41       1.0  0.94888  0.88783  0.38424  1.0000
  C   C42       1.0  0.05112  0.11217  0.61576  1.0000
  C   C43       1.0  0.03514  0.96811  0.45703  1.0000
  C   C44       1.0  0.96486  0.03189  0.54297  1.0000
  N   N1        1.0  0.53339  0.66473  0.33675  1.0000
  N   N2        1.0  0.46661  0.33527  0.66325  1.0000
  N   N3        1.0  0.34686  0.52530  0.37201  1.0000
  N   N4        1.0  0.65313  0.47470  0.62799  1.0000
  N   N5        1.0  0.60207  0.94202  0.18731  1.0000
  N   N6        1.0  0.39793  0.05799  0.81269  1.0000
  N   N7        1.0  0.39460  0.08200  0.14825  1.0000
  N   N8        1.0  0.60540  0.91800  0.85174  1.0000
  O   O1        1.0  0.81665  0.67233  0.08856  1.0000
  O   O2        1.0  0.18335  0.32767  0.91144  1.0000
  O   O3        1.0  0.91363  0.54982  0.24113  1.0000
  O   O4        1.0  0.08637  0.45018  0.75887  1.0000
  O   O5        1.0  0.82484  0.83735  0.42732  1.0000
  O   O6        1.0  0.17515  0.16265  0.57268  1.0000
  O   O7        1.0  0.99767  0.87553  0.28107  1.0000
  O   O8        1.0  0.00233  0.12447  0.71893  1.0000
