data_image0
_chemical_formula_structural       H20Pb2C24N4O10
_chemical_formula_sum              "H20 Pb2 C24 N4 O10"
_cell_length_a       7.11427
_cell_length_b       10.6138
_cell_length_c       10.7077
_cell_angle_alpha    113.715
_cell_angle_beta     101.107
_cell_angle_gamma    106.311

_space_group_name_H-M_alt    "P 1"
_space_group_IT_number       1

loop_
  _space_group_symop_operation_xyz
  'x, y, z'

loop_
  _atom_site_type_symbol
  _atom_site_label
  _atom_site_symmetry_multiplicity
  _atom_site_fract_x
  _atom_site_fract_y
  _atom_site_fract_z
  _atom_site_occupancy
  H   H1        1.0  0.21742  0.14770  0.74340  1.0000
  H   H2        1.0  0.97393  0.40442  0.25687  1.0000
  H   H3        1.0  0.23126  0.89920  0.69611  1.0000
  H   H4        1.0  0.03523  0.20320  0.30413  1.0000
  H   H5        1.0  0.43543  0.06675  0.15961  1.0000
  H   H6        1.0  0.77618  0.90754  0.84067  1.0000
  H   H7        1.0  0.41953  0.31049  0.18888  1.0000
  H   H8        1.0  0.73081  0.12197  0.81139  1.0000
  H   H9        1.0  0.63718  0.83015  0.25855  1.0000
  H   H10       1.0  0.87853  0.57154  0.74138  1.0000
  H   H11       1.0  0.97641  0.04226  0.42667  1.0000
  H   H12       1.0  0.04952  0.61529  0.57287  1.0000
  H   H13       1.0  0.63250  0.27597  0.64918  1.0000
  H   H14       1.0  0.48364  0.62686  0.35087  1.0000
  H   H15       1.0  0.30716  0.05514  0.47055  1.0000
  H   H16       1.0  0.33685  0.58476  0.52972  1.0000
  H   H17       1.0  0.51738  0.57320  0.14790  1.0000
  H   H18       1.0  0.86975  0.42523  0.85201  1.0000
  H   H19       1.0  0.32620  0.41945  0.03478  1.0000
  H   H20       1.0  0.79167  0.38478  0.96534  1.0000
  Pb  Pb1       1.0  0.46922  0.55855  0.85372  1.0000
  Pb  Pb2       1.0  0.11530  0.70466  0.14597  1.0000
  C   C1        1.0  0.26285  0.12499  0.83296  1.0000
  C   C2        1.0  0.92985  0.29219  0.16731  1.0000
  C   C3        1.0  0.26971  0.98704  0.80660  1.0000
  C   C4        1.0  0.96317  0.18061  0.19366  1.0000
  C   C5        1.0  0.33127  0.96409  0.92536  1.0000
  C   C6        1.0  0.90599  0.03896  0.07488  1.0000
  C   C7        1.0  0.38597  0.08127  0.06538  1.0000
  C   C8        1.0  0.82081  0.01623  0.93488  1.0000
  C   C9        1.0  0.37647  0.21582  0.08111  1.0000
  C   C10       1.0  0.79548  0.13501  0.91915  1.0000
  C   C11       1.0  0.34959  0.81997  0.90531  1.0000
  C   C12       1.0  0.94420  0.91474  0.09470  1.0000
  C   C13       1.0  0.64199  0.92988  0.34751  1.0000
  C   C14       1.0  0.79450  0.58232  0.65241  1.0000
  C   C15       1.0  0.83214  0.04853  0.44233  1.0000
  C   C16       1.0  0.88970  0.60599  0.55740  1.0000
  C   C17       1.0  0.83377  0.17683  0.55346  1.0000
  C   C18       1.0  0.78022  0.62316  0.44630  1.0000
  C   C19       1.0  0.64194  0.17932  0.56530  1.0000
  C   C20       1.0  0.57674  0.61400  0.43470  1.0000
  C   C21       1.0  0.45876  0.05496  0.46614  1.0000
  C   C22       1.0  0.49278  0.58893  0.53398  1.0000
  C   C23       1.0  0.03965  0.30741  0.65397  1.0000
  C   C24       1.0  0.88529  0.65315  0.34556  1.0000
  N   N1        1.0  0.31466  0.23794  0.96789  1.0000
  N   N2        1.0  0.84677  0.27028  0.03240  1.0000
  N   N3        1.0  0.45818  0.93221  0.35890  1.0000
  N   N4        1.0  0.59940  0.57338  0.64117  1.0000
  O   O1        1.0  0.34604  0.73033  0.78163  1.0000
  O   O2        1.0  0.06441  0.94860  0.21825  1.0000
  O   O3        1.0  0.37626  0.79679  0.01415  1.0000
  O   O4        1.0  0.86179  0.78279  0.98579  1.0000
  O   O5        1.0  0.20123  0.30364  0.62121  1.0000
  O   O6        1.0  0.07956  0.68207  0.37812  1.0000
  O   O7        1.0  0.04421  0.41534  0.76738  1.0000
  O   O8        1.0  0.77641  0.64777  0.23224  1.0000
  O   O9        1.0  0.36735  0.53166  0.08594  1.0000
  O   O10       1.0  0.78171  0.44573  0.91403  1.0000
