data_image0
_chemical_formula_structural       K2Tb2H20C20O30
_chemical_formula_sum              "K2 Tb2 H20 C20 O30"
_cell_length_a       8.29606
_cell_length_b       10.067
_cell_length_c       10.0671
_cell_angle_alpha    105.659
_cell_angle_beta     89.9997
_cell_angle_gamma    89.9999

_space_group_name_H-M_alt    "P 1"
_space_group_IT_number       1

loop_
  _space_group_symop_operation_xyz
  'x, y, z'

loop_
  _atom_site_type_symbol
  _atom_site_label
  _atom_site_symmetry_multiplicity
  _atom_site_fract_x
  _atom_site_fract_y
  _atom_site_fract_z
  _atom_site_occupancy
  K   K1        1.0  0.53566  0.98971  0.98971  1.0000
  K   K2        1.0  0.03566  0.01029  0.01029  1.0000
  Tb  Tb1       1.0  0.65698  0.31547  0.31547  1.0000
  Tb  Tb2       1.0  0.15698  0.68453  0.68453  1.0000
  H   H1        1.0  0.35793  0.25706  0.16021  1.0000
  H   H2        1.0  0.85793  0.74294  0.83979  1.0000
  H   H3        1.0  0.35793  0.16021  0.25706  1.0000
  H   H4        1.0  0.85793  0.83979  0.74294  1.0000
  H   H5        1.0  0.99937  0.21674  0.31411  1.0000
  H   H6        1.0  0.49936  0.78326  0.68589  1.0000
  H   H7        1.0  0.99936  0.31411  0.21674  1.0000
  H   H8        1.0  0.49937  0.68589  0.78326  1.0000
  H   H9        1.0  0.61245  0.29310  0.00073  1.0000
  H   H10       1.0  0.11244  0.70690  0.99927  1.0000
  H   H11       1.0  0.61244  0.00073  0.29310  1.0000
  H   H12       1.0  0.11244  0.99927  0.70690  1.0000
  H   H13       1.0  0.79241  0.26514  0.02779  1.0000
  H   H14       1.0  0.29240  0.73486  0.97220  1.0000
  H   H15       1.0  0.79240  0.02779  0.26514  1.0000
  H   H16       1.0  0.29240  0.97221  0.73487  1.0000
  H   H17       1.0  0.50440  0.47696  0.57456  1.0000
  H   H18       1.0  0.00440  0.52304  0.42544  1.0000
  H   H19       1.0  0.50440  0.57456  0.47697  1.0000
  H   H20       1.0  0.00440  0.42544  0.52304  1.0000
  C   C1        1.0  0.62292  0.56868  0.18118  1.0000
  C   C2        1.0  0.12292  0.43131  0.81881  1.0000
  C   C3        1.0  0.62292  0.18118  0.56868  1.0000
  C   C4        1.0  0.12291  0.81882  0.43132  1.0000
  C   C5        1.0  0.79454  0.56394  0.21050  1.0000
  C   C6        1.0  0.29454  0.43606  0.78950  1.0000
  C   C7        1.0  0.79455  0.21051  0.56393  1.0000
  C   C8        1.0  0.29455  0.78949  0.43606  1.0000
  C   C9        1.0  0.88468  0.64169  0.13236  1.0000
  C   C10       1.0  0.38469  0.35832  0.86764  1.0000
  C   C11       1.0  0.88469  0.13237  0.64169  1.0000
  C   C12       1.0  0.38470  0.86763  0.35831  1.0000
  C   C13       1.0  0.76226  0.71230  0.06941  1.0000
  C   C14       1.0  0.26226  0.28769  0.93058  1.0000
  C   C15       1.0  0.76226  0.06942  0.71231  1.0000
  C   C16       1.0  0.26226  0.93058  0.28769  1.0000
  C   C17       1.0  0.59903  0.66394  0.09450  1.0000
  C   C18       1.0  0.09904  0.33605  0.90550  1.0000
  C   C19       1.0  0.59902  0.09450  0.66394  1.0000
  C   C20       1.0  0.09903  0.90550  0.33606  1.0000
  O   O1        1.0  0.52186  0.49612  0.22377  1.0000
  O   O2        1.0  0.02186  0.50387  0.77624  1.0000
  O   O3        1.0  0.52187  0.22376  0.49611  1.0000
  O   O4        1.0  0.02187  0.77624  0.50388  1.0000
  O   O5        1.0  0.84782  0.49151  0.28732  1.0000
  O   O6        1.0  0.34782  0.50850  0.71268  1.0000
  O   O7        1.0  0.84782  0.28732  0.49150  1.0000
  O   O8        1.0  0.34782  0.71268  0.50850  1.0000
  O   O9        1.0  0.03472  0.64553  0.11846  1.0000
  O   O10       1.0  0.53473  0.35447  0.88153  1.0000
  O   O11       1.0  0.03472  0.11847  0.64554  1.0000
  O   O12       1.0  0.53473  0.88153  0.35447  1.0000
  O   O13       1.0  0.79011  0.79799  0.00162  1.0000
  O   O14       1.0  0.29013  0.20201  0.99837  1.0000
  O   O15       1.0  0.79011  0.00163  0.79800  1.0000
  O   O16       1.0  0.29011  0.99837  0.20201  1.0000
  O   O17       1.0  0.47128  0.69782  0.04724  1.0000
  O   O18       1.0  0.97130  0.30217  0.95276  1.0000
  O   O19       1.0  0.47129  0.04724  0.69781  1.0000
  O   O20       1.0  0.97130  0.95277  0.30218  1.0000
  O   O21       1.0  0.39429  0.25312  0.25313  1.0000
  O   O22       1.0  0.89428  0.74688  0.74688  1.0000
  O   O23       1.0  0.95035  0.23033  0.23033  1.0000
  O   O24       1.0  0.45035  0.76967  0.76967  1.0000
  O   O25       1.0  0.68371  0.25552  0.06418  1.0000
  O   O26       1.0  0.18370  0.74448  0.93582  1.0000
  O   O27       1.0  0.68371  0.06418  0.25552  1.0000
  O   O28       1.0  0.18371  0.93582  0.74448  1.0000
  O   O29       1.0  0.56679  0.50050  0.50050  1.0000
  O   O30       1.0  0.06679  0.49951  0.49950  1.0000
