data_image0
_chemical_formula_structural       CaH16C20N6O8
_chemical_formula_sum              "Ca1 H16 C20 N6 O8"
_cell_length_a       5.32412
_cell_length_b       7.68348
_cell_length_c       13.7734
_cell_angle_alpha    96.0537
_cell_angle_beta     100.879
_cell_angle_gamma    107.357

_space_group_name_H-M_alt    "P 1"
_space_group_IT_number       1

loop_
  _space_group_symop_operation_xyz
  'x, y, z'

loop_
  _atom_site_type_symbol
  _atom_site_label
  _atom_site_symmetry_multiplicity
  _atom_site_fract_x
  _atom_site_fract_y
  _atom_site_fract_z
  _atom_site_occupancy
  Ca  Ca1       1.0  0.00002  0.49999  0.50000  1.0000
  H   H1        1.0  0.92451  0.73218  0.77874  1.0000
  H   H2        1.0  0.07548  0.26783  0.22126  1.0000
  H   H3        1.0  0.90538  0.87996  0.94577  1.0000
  H   H4        1.0  0.09459  0.12004  0.05423  1.0000
  H   H5        1.0  0.10325  0.49503  0.91154  1.0000
  H   H6        1.0  0.89675  0.50494  0.08845  1.0000
  H   H7        1.0  0.12006  0.35517  0.74136  1.0000
  H   H8        1.0  0.87996  0.64483  0.25863  1.0000
  H   H9        1.0  0.37608  0.21747  0.49438  1.0000
  H   H10       1.0  0.62394  0.78255  0.50563  1.0000
  H   H11       1.0  0.04004  0.91936  0.38297  1.0000
  H   H12       1.0  0.95998  0.08066  0.61703  1.0000
  H   H13       1.0  0.29647  0.83456  0.23467  1.0000
  H   H14       1.0  0.70353  0.16546  0.76533  1.0000
  H   H15       1.0  0.79159  0.10270  0.28694  1.0000
  H   H16       1.0  0.20842  0.89733  0.71306  1.0000
  C   C1        1.0  0.52375  0.53521  0.74987  1.0000
  C   C2        1.0  0.47626  0.46479  0.25013  1.0000
  C   C3        1.0  0.74549  0.68176  0.80812  1.0000
  C   C4        1.0  0.25450  0.31824  0.19188  1.0000
  C   C5        1.0  0.73561  0.76421  0.90143  1.0000
  C   C6        1.0  0.26438  0.23580  0.09857  1.0000
  C   C7        1.0  0.50167  0.69548  0.93621  1.0000
  C   C8        1.0  0.49830  0.30451  0.06379  1.0000
  C   C9        1.0  0.28020  0.54622  0.88110  1.0000
  C   C10       1.0  0.71980  0.45376  0.11889  1.0000
  C   C11       1.0  0.29226  0.46781  0.78717  1.0000
  C   C12       1.0  0.70776  0.53218  0.21283  1.0000
  C   C13       1.0  0.53253  0.45537  0.64653  1.0000
  C   C14       1.0  0.46750  0.54461  0.35347  1.0000
  C   C15       1.0  0.23962  0.98770  0.37142  1.0000
  C   C16       1.0  0.76039  0.01232  0.62858  1.0000
  C   C17       1.0  0.37225  0.94562  0.29884  1.0000
  C   C18       1.0  0.62775  0.05440  0.70116  1.0000
  C   C19       1.0  0.62710  0.08351  0.32492  1.0000
  C   C20       1.0  0.37291  0.91651  0.67508  1.0000
  N   N1        1.0  0.48546  0.78295  0.03357  1.0000
  N   N2        1.0  0.51453  0.21704  0.96643  1.0000
  N   N3        1.0  0.65116  0.20289  0.40785  1.0000
  N   N4        1.0  0.34885  0.79713  0.59215  1.0000
  N   N5        1.0  0.41170  0.14120  0.43445  1.0000
  N   N6        1.0  0.58832  0.85881  0.56555  1.0000
  O   O1        1.0  0.76020  0.48663  0.62477  1.0000
  O   O2        1.0  0.23983  0.51337  0.37523  1.0000
  O   O3        1.0  0.30548  0.36113  0.58571  1.0000
  O   O4        1.0  0.69455  0.63884  0.41430  1.0000
  O   O5        1.0  0.68296  0.91543  0.08273  1.0000
  O   O6        1.0  0.31697  0.08455  0.91726  1.0000
  O   O7        1.0  0.27375  0.72059  0.06252  1.0000
  O   O8        1.0  0.72619  0.27938  0.93747  1.0000
