data_image0
_chemical_formula_structural       Co2H32C32N4O8
_chemical_formula_sum              "Co2 H32 C32 N4 O8"
_cell_length_a       4.86255
_cell_length_b       9.47081
_cell_length_c       15.3669
_cell_angle_alpha    102.511
_cell_angle_beta     90.0129
_cell_angle_gamma    90.0039

_space_group_name_H-M_alt    "P 1"
_space_group_IT_number       1

loop_
  _space_group_symop_operation_xyz
  'x, y, z'

loop_
  _atom_site_type_symbol
  _atom_site_label
  _atom_site_symmetry_multiplicity
  _atom_site_fract_x
  _atom_site_fract_y
  _atom_site_fract_z
  _atom_site_occupancy
  Co  Co1       1.0  0.99999  0.50000  0.50000  1.0000
  Co  Co2       1.0  0.49999  1.00000  0.50000  1.0000
  H   H1        1.0  0.71824  0.17463  0.36893  1.0000
  H   H2        1.0  0.78238  0.67438  0.36973  1.0000
  H   H3        1.0  0.28175  0.82537  0.63107  1.0000
  H   H4        1.0  0.21760  0.32562  0.63027  1.0000
  H   H5        1.0  0.24581  0.40512  0.28221  1.0000
  H   H6        1.0  0.25425  0.90372  0.28227  1.0000
  H   H7        1.0  0.75417  0.59489  0.71779  1.0000
  H   H8        1.0  0.74572  0.09628  0.71773  1.0000
  H   H9        1.0  0.34628  0.37661  0.12180  1.0000
  H   H10       1.0  0.15539  0.87413  0.12160  1.0000
  H   H11       1.0  0.65371  0.62339  0.87820  1.0000
  H   H12       1.0  0.84461  0.12586  0.87840  1.0000
  H   H13       1.0  0.08976  0.19517  0.00903  1.0000
  H   H14       1.0  0.41296  0.69215  0.00954  1.0000
  H   H15       1.0  0.91025  0.80483  0.99097  1.0000
  H   H16       1.0  0.58709  0.30785  0.99045  1.0000
  H   H17       1.0  0.72802  0.04280  0.05906  1.0000
  H   H18       1.0  0.77682  0.54153  0.06038  1.0000
  H   H19       1.0  0.27199  0.95720  0.94093  1.0000
  H   H20       1.0  0.22322  0.45849  0.93962  1.0000
  H   H21       1.0  0.62847  0.07111  0.21994  1.0000
  H   H22       1.0  0.87397  0.57104  0.22149  1.0000
  H   H23       1.0  0.37154  0.92889  0.78007  1.0000
  H   H24       1.0  0.12603  0.42897  0.77851  1.0000
  H   H25       1.0  0.57096  0.38866  0.42792  1.0000
  H   H26       1.0  0.92873  0.88814  0.42898  1.0000
  H   H27       1.0  0.42903  0.61133  0.57208  1.0000
  H   H28       1.0  0.07126  0.11186  0.57102  1.0000
  H   H29       1.0  0.74051  0.46045  0.35576  1.0000
  H   H30       1.0  0.76264  0.95969  0.35616  1.0000
  H   H31       1.0  0.25948  0.53955  0.64424  1.0000
  H   H32       1.0  0.23737  0.04030  0.64384  1.0000
  C   C1        1.0  0.13271  0.22451  0.41018  1.0000
  C   C2        1.0  0.36786  0.72415  0.41072  1.0000
  C   C3        1.0  0.86728  0.77549  0.58982  1.0000
  C   C4        1.0  0.63213  0.27587  0.58929  1.0000
  C   C5        1.0  0.87409  0.25406  0.36019  1.0000
  C   C6        1.0  0.62645  0.75365  0.36083  1.0000
  C   C7        1.0  0.12591  0.74593  0.63981  1.0000
  C   C8        1.0  0.37354  0.24635  0.63917  1.0000
  C   C9        1.0  0.93344  0.23802  0.26198  1.0000
  C   C10       1.0  0.56761  0.73729  0.26264  1.0000
  C   C11       1.0  0.06657  0.76197  0.73802  1.0000
  C   C12       1.0  0.43238  0.26271  0.73736  1.0000
  C   C13       1.0  0.13472  0.32414  0.23339  1.0000
  C   C14       1.0  0.36623  0.82286  0.23368  1.0000
  C   C15       1.0  0.86530  0.67585  0.76661  1.0000
  C   C16       1.0  0.63374  0.17713  0.76632  1.0000
  C   C17       1.0  0.18936  0.30873  0.14274  1.0000
  C   C18       1.0  0.31238  0.80667  0.14293  1.0000
  C   C19       1.0  0.81064  0.69126  0.85726  1.0000
  C   C20       1.0  0.68762  0.19334  0.85707  1.0000
  C   C21       1.0  0.04526  0.20695  0.07974  1.0000
  C   C22       1.0  0.45731  0.70463  0.08032  1.0000
  C   C23       1.0  0.95478  0.79304  0.92026  1.0000
  C   C24       1.0  0.54272  0.29538  0.91968  1.0000
  C   C25       1.0  0.84412  0.12133  0.10777  1.0000
  C   C26       1.0  0.65920  0.61983  0.10876  1.0000
  C   C27       1.0  0.15589  0.87866  0.89223  1.0000
  C   C28       1.0  0.34079  0.38018  0.89124  1.0000
  C   C29       1.0  0.78832  0.13696  0.19852  1.0000
  C   C30       1.0  0.71410  0.63631  0.19961  1.0000
  C   C31       1.0  0.21171  0.86303  0.80147  1.0000
  C   C32       1.0  0.28592  0.36370  0.80039  1.0000
  N   N1        1.0  0.76504  0.40035  0.40306  1.0000
  N   N2        1.0  0.73557  0.90004  0.40357  1.0000
  N   N3        1.0  0.23496  0.59965  0.59694  1.0000
  N   N4        1.0  0.26443  0.09996  0.59643  1.0000
  O   O1        1.0  0.22983  0.33394  0.46790  1.0000
  O   O2        1.0  0.27092  0.83349  0.46850  1.0000
  O   O3        1.0  0.77016  0.66606  0.53210  1.0000
  O   O4        1.0  0.72907  0.16651  0.53150  1.0000
  O   O5        1.0  0.24145  0.10163  0.39336  1.0000
  O   O6        1.0  0.25862  0.60141  0.39367  1.0000
  O   O7        1.0  0.75854  0.89837  0.60664  1.0000
  O   O8        1.0  0.74136  0.39859  0.60633  1.0000
