data_image0
_chemical_formula_structural       Co2H24C32O12
_chemical_formula_sum              "Co2 H24 C32 O12"
_cell_length_a       5.11751
_cell_length_b       8.83571
_cell_length_c       15.3583
_cell_angle_alpha    100.356
_cell_angle_beta     89.9998
_cell_angle_gamma    90.0004

_space_group_name_H-M_alt    "P 1"
_space_group_IT_number       1

loop_
  _space_group_symop_operation_xyz
  'x, y, z'

loop_
  _atom_site_type_symbol
  _atom_site_label
  _atom_site_symmetry_multiplicity
  _atom_site_fract_x
  _atom_site_fract_y
  _atom_site_fract_z
  _atom_site_occupancy
  Co  Co1       1.0  0.49999  1.00000  0.50000  1.0000
  Co  Co2       1.0  0.99999  0.50000  0.50000  1.0000
  H   H1        1.0  0.27417  0.66523  0.37228  1.0000
  H   H2        1.0  0.22581  0.16522  0.37229  1.0000
  H   H3        1.0  0.72582  0.33477  0.62772  1.0000
  H   H4        1.0  0.77418  0.83477  0.62771  1.0000
  H   H5        1.0  0.78801  0.90465  0.27864  1.0000
  H   H6        1.0  0.71199  0.40465  0.27863  1.0000
  H   H7        1.0  0.21197  0.09535  0.72137  1.0000
  H   H8        1.0  0.28802  0.59535  0.72138  1.0000
  H   H9        1.0  0.84837  0.88220  0.11704  1.0000
  H   H10       1.0  0.65167  0.38220  0.11702  1.0000
  H   H11       1.0  0.15163  0.11780  0.88297  1.0000
  H   H12       1.0  0.34835  0.61780  0.88298  1.0000
  H   H13       1.0  0.56942  0.70391  0.01194  1.0000
  H   H14       1.0  0.93064  0.20391  0.01194  1.0000
  H   H15       1.0  0.43060  0.29610  0.98806  1.0000
  H   H16       1.0  0.06938  0.79609  0.98806  1.0000
  H   H17       1.0  0.22477  0.54804  0.07065  1.0000
  H   H18       1.0  0.27529  0.04804  0.07066  1.0000
  H   H19       1.0  0.77524  0.45197  0.92934  1.0000
  H   H20       1.0  0.72474  0.95196  0.92934  1.0000
  H   H21       1.0  0.16618  0.57072  0.23277  1.0000
  H   H22       1.0  0.33382  0.07072  0.23278  1.0000
  H   H23       1.0  0.83380  0.42928  0.76723  1.0000
  H   H24       1.0  0.66620  0.92927  0.76722  1.0000
  C   C1        1.0  0.65525  0.71666  0.42015  1.0000
  C   C2        1.0  0.84470  0.21665  0.42014  1.0000
  C   C3        1.0  0.34472  0.28332  0.57985  1.0000
  C   C4        1.0  0.15529  0.78334  0.57986  1.0000
  C   C5        1.0  0.42221  0.75212  0.36388  1.0000
  C   C6        1.0  0.07778  0.25213  0.36388  1.0000
  C   C7        1.0  0.57778  0.24787  0.63612  1.0000
  C   C8        1.0  0.92223  0.74786  0.63612  1.0000
  C   C9        1.0  0.47334  0.73866  0.26596  1.0000
  C   C10       1.0  0.02665  0.23866  0.26596  1.0000
  C   C11       1.0  0.52663  0.26134  0.73404  1.0000
  C   C12       1.0  0.97337  0.76133  0.73404  1.0000
  C   C13       1.0  0.66606  0.82596  0.23300  1.0000
  C   C14       1.0  0.83394  0.32596  0.23300  1.0000
  C   C15       1.0  0.33393  0.17404  0.76700  1.0000
  C   C16       1.0  0.16607  0.67404  0.76700  1.0000
  C   C17       1.0  0.69908  0.81296  0.14185  1.0000
  C   C18       1.0  0.80094  0.31296  0.14185  1.0000
  C   C19       1.0  0.30092  0.18704  0.85815  1.0000
  C   C20       1.0  0.19908  0.68703  0.85816  1.0000
  C   C21       1.0  0.54170  0.71317  0.08308  1.0000
  C   C22       1.0  0.95837  0.21317  0.08308  1.0000
  C   C23       1.0  0.45831  0.28684  0.91692  1.0000
  C   C24       1.0  0.04165  0.78683  0.91692  1.0000
  C   C25       1.0  0.34985  0.62579  0.11578  1.0000
  C   C26       1.0  0.15019  0.12579  0.11578  1.0000
  C   C27       1.0  0.65015  0.37422  0.88422  1.0000
  C   C28       1.0  0.84984  0.87421  0.88421  1.0000
  C   C29       1.0  0.31598  0.63865  0.20700  1.0000
  C   C30       1.0  0.18403  0.13864  0.20700  1.0000
  C   C31       1.0  0.68400  0.36135  0.79300  1.0000
  C   C32       1.0  0.81598  0.86136  0.79300  1.0000
  O   O1        1.0  0.72525  0.82646  0.48193  1.0000
  O   O2        1.0  0.77471  0.32646  0.48193  1.0000
  O   O3        1.0  0.27473  0.17355  0.51808  1.0000
  O   O4        1.0  0.22528  0.67355  0.51807  1.0000
  O   O5        1.0  0.75895  0.58510  0.40664  1.0000
  O   O6        1.0  0.74103  0.08511  0.40665  1.0000
  O   O7        1.0  0.24105  0.41491  0.59336  1.0000
  O   O8        1.0  0.25895  0.91490  0.59335  1.0000
  O   O9        1.0  0.32667  0.89980  0.40230  1.0000
  O   O10       1.0  0.17332  0.39980  0.40230  1.0000
  O   O11       1.0  0.67331  0.10019  0.59770  1.0000
  O   O12       1.0  0.82667  0.60020  0.59770  1.0000
