data_image0
_chemical_formula_structural       Cd2H36C36N8O10
_chemical_formula_sum              "Cd2 H36 C36 N8 O10"
_cell_length_a       9.64296
_cell_length_b       9.64296
_cell_length_c       9.72113
_cell_angle_alpha    95.0796
_cell_angle_beta     95.0797
_cell_angle_gamma    93.7661

_space_group_name_H-M_alt    "P 1"
_space_group_IT_number       1

loop_
  _space_group_symop_operation_xyz
  'x, y, z'

loop_
  _atom_site_type_symbol
  _atom_site_label
  _atom_site_symmetry_multiplicity
  _atom_site_fract_x
  _atom_site_fract_y
  _atom_site_fract_z
  _atom_site_occupancy
  Cd  Cd1       1.0  0.50000  0.50000  0.50000  1.0000
  Cd  Cd2       1.0  0.50000  0.50000  1.00000  1.0000
  H   H1        1.0  0.96394  0.44992  0.27076  1.0000
  H   H2        1.0  0.44992  0.96394  0.77076  1.0000
  H   H3        1.0  0.03607  0.55008  0.72924  1.0000
  H   H4        1.0  0.55008  0.03606  0.22924  1.0000
  H   H5        1.0  0.21941  0.56171  0.28271  1.0000
  H   H6        1.0  0.56171  0.21941  0.78271  1.0000
  H   H7        1.0  0.78059  0.43829  0.71729  1.0000
  H   H8        1.0  0.43829  0.78059  0.21729  1.0000
  H   H9        1.0  0.30703  0.25926  0.67030  1.0000
  H   H10       1.0  0.25926  0.30703  0.17030  1.0000
  H   H11       1.0  0.69297  0.74074  0.32970  1.0000
  H   H12       1.0  0.74074  0.69297  0.82970  1.0000
  H   H13       1.0  0.11066  0.10244  0.73411  1.0000
  H   H14       1.0  0.10244  0.11067  0.23411  1.0000
  H   H15       1.0  0.88934  0.89756  0.26589  1.0000
  H   H16       1.0  0.89756  0.88934  0.76589  1.0000
  H   H17       1.0  0.87648  0.09126  0.60588  1.0000
  H   H18       1.0  0.09126  0.87648  0.10588  1.0000
  H   H19       1.0  0.12352  0.90874  0.39412  1.0000
  H   H20       1.0  0.90874  0.12352  0.89412  1.0000
  H   H21       1.0  0.82780  0.24013  0.41102  1.0000
  H   H22       1.0  0.24013  0.82780  0.91102  1.0000
  H   H23       1.0  0.17220  0.75987  0.58898  1.0000
  H   H24       1.0  0.75987  0.17220  0.08898  1.0000
  H   H25       1.0  0.46084  0.65346  0.73483  1.0000
  H   H26       1.0  0.65346  0.46083  0.23484  1.0000
  H   H27       1.0  0.53917  0.34654  0.26517  1.0000
  H   H28       1.0  0.34654  0.53916  0.76517  1.0000
  H   H29       1.0  0.35734  0.02037  0.55589  1.0000
  H   H30       1.0  0.02037  0.35735  0.05588  1.0000
  H   H31       1.0  0.64265  0.97963  0.44412  1.0000
  H   H32       1.0  0.97963  0.64266  0.94411  1.0000
  H   H33       1.0  0.38173  0.95235  0.38479  1.0000
  H   H34       1.0  0.95235  0.38173  0.88479  1.0000
  H   H35       1.0  0.61827  0.04765  0.61522  1.0000
  H   H36       1.0  0.04765  0.61827  0.11521  1.0000
  C   C1        1.0  0.18290  0.48485  0.34907  1.0000
  C   C2        1.0  0.48485  0.18290  0.84907  1.0000
  C   C3        1.0  0.81710  0.51515  0.65093  1.0000
  C   C4        1.0  0.51515  0.81710  0.15093  1.0000
  C   C5        1.0  0.20394  0.25368  0.61399  1.0000
  C   C6        1.0  0.25368  0.20394  0.11399  1.0000
  C   C7        1.0  0.79606  0.74632  0.38601  1.0000
  C   C8        1.0  0.74632  0.79606  0.88601  1.0000
  C   C9        1.0  0.09326  0.16750  0.64887  1.0000
  C   C10       1.0  0.16750  0.09326  0.14887  1.0000
  C   C11       1.0  0.90674  0.83250  0.35113  1.0000
  C   C12       1.0  0.83250  0.90674  0.85113  1.0000
  C   C13       1.0  0.95937  0.16169  0.57619  1.0000
  C   C14       1.0  0.16169  0.95937  0.07619  1.0000
  C   C15       1.0  0.04063  0.83831  0.42381  1.0000
  C   C16       1.0  0.83831  0.04064  0.92381  1.0000
  C   C17       1.0  0.93103  0.24315  0.46709  1.0000
  C   C18       1.0  0.24315  0.93103  0.96710  1.0000
  C   C19       1.0  0.06897  0.75685  0.53291  1.0000
  C   C20       1.0  0.75685  0.06897  0.03291  1.0000
  C   C21       1.0  0.04187  0.33077  0.43382  1.0000
  C   C22       1.0  0.33077  0.04187  0.93382  1.0000
  C   C23       1.0  0.95813  0.66923  0.56618  1.0000
  C   C24       1.0  0.66923  0.95813  0.06618  1.0000
  C   C25       1.0  0.17755  0.33576  0.50431  1.0000
  C   C26       1.0  0.33575  0.17755  0.00431  1.0000
  C   C27       1.0  0.82245  0.66425  0.49569  1.0000
  C   C28       1.0  0.66424  0.82245  0.99569  1.0000
  C   C29       1.0  0.44081  0.81774  0.54219  1.0000
  C   C30       1.0  0.81774  0.44081  0.04218  1.0000
  C   C31       1.0  0.55919  0.18226  0.45782  1.0000
  C   C32       1.0  0.18226  0.55919  0.95782  1.0000
  C   C33       1.0  0.42689  0.96131  0.49306  1.0000
  C   C34       1.0  0.96131  0.42690  0.99306  1.0000
  C   C35       1.0  0.57310  0.03869  0.50694  1.0000
  C   C36       1.0  0.03869  0.57311  0.00694  1.0000
  N   N1        1.0  0.04978  0.42673  0.33668  1.0000
  N   N2        1.0  0.42673  0.04977  0.83668  1.0000
  N   N3        1.0  0.95023  0.57327  0.66332  1.0000
  N   N4        1.0  0.57327  0.95022  0.16332  1.0000
  N   N5        1.0  0.26368  0.43279  0.44744  1.0000
  N   N6        1.0  0.43279  0.26368  0.94744  1.0000
  N   N7        1.0  0.73632  0.56721  0.55256  1.0000
  N   N8        1.0  0.56721  0.73632  0.05256  1.0000
  O   O1        1.0  0.44228  0.71671  0.44927  1.0000
  O   O2        1.0  0.71671  0.44228  0.94927  1.0000
  O   O3        1.0  0.55772  0.28329  0.55073  1.0000
  O   O4        1.0  0.28329  0.55771  0.05073  1.0000
  O   O5        1.0  0.45605  0.80958  0.67302  1.0000
  O   O6        1.0  0.80958  0.45605  0.17302  1.0000
  O   O7        1.0  0.54395  0.19042  0.32699  1.0000
  O   O8        1.0  0.19042  0.54395  0.82698  1.0000
  O   O9        1.0  0.44857  0.55143  0.75000  1.0000
  O   O10       1.0  0.55143  0.44857  0.25000  1.0000
