data_image0
_chemical_formula_structural       Cd4H32C48S8N8O12
_chemical_formula_sum              "Cd4 H32 C48 S8 N8 O12"
_cell_length_a       6.51554
_cell_length_b       10.081
_cell_length_c       18.8837
_cell_angle_alpha    90.0003
_cell_angle_beta     90
_cell_angle_gamma    90

_space_group_name_H-M_alt    "P 1"
_space_group_IT_number       1

loop_
  _space_group_symop_operation_xyz
  'x, y, z'

loop_
  _atom_site_type_symbol
  _atom_site_label
  _atom_site_symmetry_multiplicity
  _atom_site_fract_x
  _atom_site_fract_y
  _atom_site_fract_z
  _atom_site_occupancy
  Cd  Cd1       1.0  0.69139  0.35005  0.44836  1.0000
  Cd  Cd2       1.0  0.80861  0.64995  0.94836  1.0000
  Cd  Cd3       1.0  0.30862  0.85005  0.05164  1.0000
  Cd  Cd4       1.0  0.19139  0.14995  0.55164  1.0000
  H   H1        1.0  0.67579  0.67864  0.46883  1.0000
  H   H2        1.0  0.82420  0.32136  0.96883  1.0000
  H   H3        1.0  0.32421  0.17864  0.03117  1.0000
  H   H4        1.0  0.17579  0.82136  0.53117  1.0000
  H   H5        1.0  0.70372  0.88216  0.39606  1.0000
  H   H6        1.0  0.79628  0.11784  0.89606  1.0000
  H   H7        1.0  0.29629  0.38216  0.10395  1.0000
  H   H8        1.0  0.20371  0.61784  0.60394  1.0000
  H   H9        1.0  0.74867  0.85939  0.26339  1.0000
  H   H10       1.0  0.75133  0.14061  0.76339  1.0000
  H   H11       1.0  0.25133  0.35939  0.23661  1.0000
  H   H12       1.0  0.24867  0.64060  0.73661  1.0000
  H   H13       1.0  0.78806  0.71282  0.15864  1.0000
  H   H14       1.0  0.71195  0.28718  0.65864  1.0000
  H   H15       1.0  0.21194  0.21281  0.34137  1.0000
  H   H16       1.0  0.28806  0.78719  0.84136  1.0000
  H   H17       1.0  0.81278  0.48521  0.10884  1.0000
  H   H18       1.0  0.68722  0.51479  0.60884  1.0000
  H   H19       1.0  0.18721  0.98520  0.39116  1.0000
  H   H20       1.0  0.31278  0.01479  0.89116  1.0000
  H   H21       1.0  0.79418  0.23879  0.12612  1.0000
  H   H22       1.0  0.70582  0.76121  0.62612  1.0000
  H   H23       1.0  0.20582  0.73879  0.37387  1.0000
  H   H24       1.0  0.29418  0.26121  0.87388  1.0000
  H   H25       1.0  0.76105  0.04909  0.20779  1.0000
  H   H26       1.0  0.73895  0.95091  0.70780  1.0000
  H   H27       1.0  0.23895  0.54909  0.29220  1.0000
  H   H28       1.0  0.26105  0.45092  0.79221  1.0000
  H   H29       1.0  0.72243  0.09389  0.33971  1.0000
  H   H30       1.0  0.77757  0.90611  0.83971  1.0000
  H   H31       1.0  0.27757  0.59389  0.16028  1.0000
  H   H32       1.0  0.22243  0.40611  0.66029  1.0000
  C   C1        1.0  0.69700  0.67084  0.41179  1.0000
  C   C2        1.0  0.80299  0.32916  0.91180  1.0000
  C   C3        1.0  0.30300  0.17084  0.08821  1.0000
  C   C4        1.0  0.19700  0.82916  0.58821  1.0000
  C   C5        1.0  0.71204  0.78597  0.37010  1.0000
  C   C6        1.0  0.78796  0.21403  0.87010  1.0000
  C   C7        1.0  0.28796  0.28597  0.12991  1.0000
  C   C8        1.0  0.21204  0.71403  0.62990  1.0000
  C   C9        1.0  0.73683  0.77300  0.29785  1.0000
  C   C10       1.0  0.76316  0.22700  0.79785  1.0000
  C   C11       1.0  0.26316  0.27300  0.20216  1.0000
  C   C12       1.0  0.23684  0.72699  0.70215  1.0000
  C   C13       1.0  0.74782  0.64560  0.26711  1.0000
  C   C14       1.0  0.75218  0.35440  0.76712  1.0000
  C   C15       1.0  0.25216  0.14560  0.23289  1.0000
  C   C16       1.0  0.24783  0.85440  0.73289  1.0000
  C   C17       1.0  0.77666  0.62569  0.19276  1.0000
  C   C18       1.0  0.72334  0.37431  0.69276  1.0000
  C   C19       1.0  0.22333  0.12569  0.30724  1.0000
  C   C20       1.0  0.27667  0.87431  0.80724  1.0000
  C   C21       1.0  0.78867  0.50054  0.16531  1.0000
  C   C22       1.0  0.71132  0.49946  0.66531  1.0000
  C   C23       1.0  0.21131  0.00053  0.33469  1.0000
  C   C24       1.0  0.28868  0.99947  0.83468  1.0000
  C   C25       1.0  0.76998  0.38662  0.20986  1.0000
  C   C26       1.0  0.73001  0.61338  0.70986  1.0000
  C   C27       1.0  0.23000  0.88662  0.29014  1.0000
  C   C28       1.0  0.26999  0.11338  0.79014  1.0000
  C   C29       1.0  0.77525  0.25606  0.18278  1.0000
  C   C30       1.0  0.72475  0.74394  0.68278  1.0000
  C   C31       1.0  0.22474  0.75606  0.31722  1.0000
  C   C32       1.0  0.27526  0.24394  0.81722  1.0000
  C   C33       1.0  0.75722  0.14989  0.22854  1.0000
  C   C34       1.0  0.74278  0.85011  0.72854  1.0000
  C   C35       1.0  0.24277  0.64989  0.27146  1.0000
  C   C36       1.0  0.25723  0.35011  0.77146  1.0000
  C   C37       1.0  0.73585  0.17442  0.30139  1.0000
  C   C38       1.0  0.76415  0.82558  0.80139  1.0000
  C   C39       1.0  0.26414  0.67442  0.19861  1.0000
  C   C40       1.0  0.23586  0.32558  0.69861  1.0000
  C   C41       1.0  0.74413  0.40250  0.28408  1.0000
  C   C42       1.0  0.75586  0.59750  0.78408  1.0000
  C   C43       1.0  0.25585  0.90250  0.21592  1.0000
  C   C44       1.0  0.24415  0.09750  0.71592  1.0000
  C   C45       1.0  0.73267  0.53475  0.31339  1.0000
  C   C46       1.0  0.76733  0.46525  0.81339  1.0000
  C   C47       1.0  0.26731  0.03475  0.18661  1.0000
  C   C48       1.0  0.23269  0.96525  0.68661  1.0000
  S   S1        1.0  0.00465  0.37237  0.52839  1.0000
  S   S2        1.0  0.49535  0.62764  0.02840  1.0000
  S   S3        1.0  0.99536  0.87237  0.97161  1.0000
  S   S4        1.0  0.50465  0.12763  0.47160  1.0000
  S   S5        1.0  0.22528  0.47525  0.46684  1.0000
  S   S6        1.0  0.27473  0.52475  0.96685  1.0000
  S   S7        1.0  0.77474  0.97526  0.03316  1.0000
  S   S8        1.0  0.72528  0.02475  0.53315  1.0000
  N   N1        1.0  0.70661  0.54957  0.38420  1.0000
  N   N2        1.0  0.79338  0.45043  0.88420  1.0000
  N   N3        1.0  0.29338  0.04957  0.11581  1.0000
  N   N4        1.0  0.20662  0.95043  0.61580  1.0000
  N   N5        1.0  0.72938  0.29652  0.32810  1.0000
  N   N6        1.0  0.77061  0.70348  0.82810  1.0000
  N   N7        1.0  0.27060  0.79652  0.17190  1.0000
  N   N8        1.0  0.22939  0.20348  0.67190  1.0000
  O   O1        1.0  0.24427  0.40827  0.39810  1.0000
  O   O2        1.0  0.25573  0.59172  0.89811  1.0000
  O   O3        1.0  0.75574  0.90829  0.10190  1.0000
  O   O4        1.0  0.74427  0.09172  0.60190  1.0000
  O   O5        1.0  0.15034  0.61140  0.46356  1.0000
  O   O6        1.0  0.34966  0.38860  0.96357  1.0000
  O   O7        1.0  0.84968  0.11140  0.03643  1.0000
  O   O8        1.0  0.65034  0.88860  0.53643  1.0000
  O   O9        1.0  0.41486  0.46152  0.51055  1.0000
  O   O10       1.0  0.08515  0.53848  0.01057  1.0000
  O   O11       1.0  0.58515  0.96153  0.98944  1.0000
  O   O12       1.0  0.91486  0.03847  0.48944  1.0000
