data_image0
_chemical_formula_structural       H24Pb4C32O20
_chemical_formula_sum              "H24 Pb4 C32 O20"
_cell_length_a       7.52766
_cell_length_b       10.749
_cell_length_c       11.0563
_cell_angle_alpha    109.187
_cell_angle_beta     89.9996
_cell_angle_gamma    90.002

_space_group_name_H-M_alt    "P 1"
_space_group_IT_number       1

loop_
  _space_group_symop_operation_xyz
  'x, y, z'

loop_
  _atom_site_type_symbol
  _atom_site_label
  _atom_site_symmetry_multiplicity
  _atom_site_fract_x
  _atom_site_fract_y
  _atom_site_fract_z
  _atom_site_occupancy
  H   H1        1.0  0.62962  0.92303  0.01946  1.0000
  H   H2        1.0  0.12961  0.07698  0.48055  1.0000
  H   H3        1.0  0.37039  0.07697  0.98053  1.0000
  H   H4        1.0  0.87037  0.92303  0.51947  1.0000
  H   H5        1.0  0.59061  0.07820  0.09055  1.0000
  H   H6        1.0  0.09059  0.92180  0.40946  1.0000
  H   H7        1.0  0.40939  0.92181  0.90943  1.0000
  H   H8        1.0  0.90940  0.07820  0.59054  1.0000
  H   H9        1.0  0.99851  0.55951  0.35050  1.0000
  H   H10       1.0  0.49850  0.44050  0.14950  1.0000
  H   H11       1.0  0.00152  0.44050  0.64949  1.0000
  H   H12       1.0  0.50150  0.55949  0.85049  1.0000
  H   H13       1.0  0.00058  0.32415  0.21262  1.0000
  H   H14       1.0  0.50060  0.67586  0.28739  1.0000
  H   H15       1.0  0.99942  0.67586  0.78739  1.0000
  H   H16       1.0  0.49941  0.32414  0.71260  1.0000
  H   H17       1.0  0.72195  0.42480  0.91871  1.0000
  H   H18       1.0  0.22196  0.57520  0.58129  1.0000
  H   H19       1.0  0.27804  0.57520  0.08129  1.0000
  H   H20       1.0  0.77806  0.42480  0.41871  1.0000
  H   H21       1.0  0.72007  0.66182  0.05689  1.0000
  H   H22       1.0  0.22008  0.33817  0.44311  1.0000
  H   H23       1.0  0.27994  0.33817  0.94311  1.0000
  H   H24       1.0  0.77995  0.66182  0.55689  1.0000
  Pb  Pb1       1.0  0.96585  0.03827  0.20139  1.0000
  Pb  Pb2       1.0  0.46584  0.96172  0.29861  1.0000
  Pb  Pb3       1.0  0.03412  0.96175  0.79863  1.0000
  Pb  Pb4       1.0  0.53413  0.03827  0.70137  1.0000
  C   C1        1.0  0.86764  0.76630  0.29550  1.0000
  C   C2        1.0  0.36766  0.23370  0.20451  1.0000
  C   C3        1.0  0.13238  0.23371  0.70449  1.0000
  C   C4        1.0  0.63235  0.76630  0.79549  1.0000
  C   C5        1.0  0.85857  0.62482  0.21287  1.0000
  C   C6        1.0  0.35858  0.37519  0.28713  1.0000
  C   C7        1.0  0.14144  0.37519  0.78712  1.0000
  C   C8        1.0  0.64144  0.62481  0.71287  1.0000
  C   C9        1.0  0.93562  0.52900  0.25670  1.0000
  C   C10       1.0  0.43563  0.47100  0.24330  1.0000
  C   C11       1.0  0.06440  0.47101  0.74330  1.0000
  C   C12       1.0  0.56438  0.52899  0.75670  1.0000
  C   C13       1.0  0.93596  0.39775  0.17975  1.0000
  C   C14       1.0  0.43598  0.60226  0.32026  1.0000
  C   C15       1.0  0.06403  0.60226  0.82026  1.0000
  C   C16       1.0  0.56403  0.39774  0.67974  1.0000
  C   C17       1.0  0.85949  0.35972  0.05755  1.0000
  C   C18       1.0  0.35951  0.64028  0.44245  1.0000
  C   C19       1.0  0.14049  0.64028  0.94246  1.0000
  C   C20       1.0  0.64050  0.35971  0.55754  1.0000
  C   C21       1.0  0.77881  0.45507  0.01452  1.0000
  C   C22       1.0  0.27883  0.54493  0.48548  1.0000
  C   C23       1.0  0.22118  0.54493  0.98548  1.0000
  C   C24       1.0  0.72119  0.45507  0.51452  1.0000
  C   C25       1.0  0.77875  0.58694  0.09133  1.0000
  C   C26       1.0  0.27876  0.41305  0.40868  1.0000
  C   C27       1.0  0.22125  0.41305  0.90867  1.0000
  C   C28       1.0  0.72126  0.58695  0.59133  1.0000
  C   C29       1.0  0.87714  0.22083  0.97001  1.0000
  C   C30       1.0  0.37715  0.77918  0.53000  1.0000
  C   C31       1.0  0.12283  0.77917  0.03001  1.0000
  C   C32       1.0  0.62285  0.22082  0.46998  1.0000
  O   O1        1.0  0.79530  0.85221  0.25331  1.0000
  O   O2        1.0  0.29531  0.14779  0.24671  1.0000
  O   O3        1.0  0.20469  0.14779  0.74669  1.0000
  O   O4        1.0  0.70468  0.85221  0.75329  1.0000
  O   O5        1.0  0.94791  0.79453  0.40270  1.0000
  O   O6        1.0  0.44793  0.20547  0.09730  1.0000
  O   O7        1.0  0.05210  0.20548  0.59729  1.0000
  O   O8        1.0  0.55209  0.79453  0.90269  1.0000
  O   O9        1.0  0.80446  0.18530  0.86061  1.0000
  O   O10       1.0  0.30445  0.81469  0.63939  1.0000
  O   O11       1.0  0.19550  0.81468  0.13941  1.0000
  O   O12       1.0  0.69552  0.18531  0.36059  1.0000
  O   O13       1.0  0.97702  0.14226  0.00704  1.0000
  O   O14       1.0  0.47703  0.85775  0.49298  1.0000
  O   O15       1.0  0.02296  0.85774  0.99299  1.0000
  O   O16       1.0  0.52297  0.14225  0.50701  1.0000
  O   O17       1.0  0.65349  0.99986  0.09922  1.0000
  O   O18       1.0  0.15348  0.00013  0.40079  1.0000
  O   O19       1.0  0.34651  0.00014  0.90077  1.0000
  O   O20       1.0  0.84651  0.99987  0.59922  1.0000
