data_image0
_chemical_formula_structural       Zn4H48C60N12O16
_chemical_formula_sum              "Zn4 H48 C60 N12 O16"
_cell_length_a       7.15232
_cell_length_b       12.4527
_cell_length_c       15.9499
_cell_angle_alpha    100.631
_cell_angle_beta     89.9997
_cell_angle_gamma    90

_space_group_name_H-M_alt    "P 1"
_space_group_IT_number       1

loop_
  _space_group_symop_operation_xyz
  'x, y, z'

loop_
  _atom_site_type_symbol
  _atom_site_label
  _atom_site_symmetry_multiplicity
  _atom_site_fract_x
  _atom_site_fract_y
  _atom_site_fract_z
  _atom_site_occupancy
  Zn  Zn1       1.0  0.96056  0.85768  0.74421  1.0000
  Zn  Zn2       1.0  0.46056  0.14232  0.75579  1.0000
  Zn  Zn3       1.0  0.03943  0.14232  0.25579  1.0000
  Zn  Zn4       1.0  0.53944  0.85768  0.24421  1.0000
  H   H1        1.0  0.67341  0.20591  0.06177  1.0000
  H   H2        1.0  0.17342  0.79410  0.43823  1.0000
  H   H3        1.0  0.32659  0.79410  0.93823  1.0000
  H   H4        1.0  0.82659  0.20591  0.56177  1.0000
  H   H5        1.0  0.55566  0.74448  0.72024  1.0000
  H   H6        1.0  0.05566  0.25552  0.77976  1.0000
  H   H7        1.0  0.44434  0.25552  0.27976  1.0000
  H   H8        1.0  0.94434  0.74448  0.22024  1.0000
  H   H9        1.0  0.45042  0.38660  0.85673  1.0000
  H   H10       1.0  0.95041  0.61340  0.64327  1.0000
  H   H11       1.0  0.54959  0.61340  0.14327  1.0000
  H   H12       1.0  0.04959  0.38660  0.35673  1.0000
  H   H13       1.0  0.48161  0.55716  0.78632  1.0000
  H   H14       1.0  0.98160  0.44284  0.71368  1.0000
  H   H15       1.0  0.51839  0.44284  0.21368  1.0000
  H   H16       1.0  0.01840  0.55716  0.28631  1.0000
  H   H17       1.0  0.92838  0.48888  0.89776  1.0000
  H   H18       1.0  0.42837  0.51112  0.60225  1.0000
  H   H19       1.0  0.07162  0.51112  0.10224  1.0000
  H   H20       1.0  0.57163  0.48888  0.39775  1.0000
  H   H21       1.0  0.77441  0.40923  0.82429  1.0000
  H   H22       1.0  0.27440  0.59077  0.67571  1.0000
  H   H23       1.0  0.22559  0.59077  0.17571  1.0000
  H   H24       1.0  0.72560  0.40922  0.32429  1.0000
  H   H25       1.0  0.80106  0.59969  0.03452  1.0000
  H   H26       1.0  0.30106  0.40031  0.46548  1.0000
  H   H27       1.0  0.19894  0.40031  0.96548  1.0000
  H   H28       1.0  0.69894  0.59969  0.53452  1.0000
  H   H29       1.0  0.14428  0.03783  0.01581  1.0000
  H   H30       1.0  0.64428  0.96217  0.48419  1.0000
  H   H31       1.0  0.85572  0.96217  0.98419  1.0000
  H   H32       1.0  0.35572  0.03783  0.51581  1.0000
  H   H33       1.0  0.38968  0.12334  0.11785  1.0000
  H   H34       1.0  0.88969  0.87666  0.38215  1.0000
  H   H35       1.0  0.61031  0.87667  0.88215  1.0000
  H   H36       1.0  0.11032  0.12334  0.61785  1.0000
  H   H37       1.0  0.18009  0.71049  0.82488  1.0000
  H   H38       1.0  0.68008  0.28951  0.67512  1.0000
  H   H39       1.0  0.81991  0.28951  0.17512  1.0000
  H   H40       1.0  0.31992  0.71049  0.32488  1.0000
  H   H41       1.0  0.15386  0.57561  0.84522  1.0000
  H   H42       1.0  0.65386  0.42439  0.65478  1.0000
  H   H43       1.0  0.84614  0.42439  0.15478  1.0000
  H   H44       1.0  0.34614  0.57561  0.34522  1.0000
  H   H45       1.0  0.09089  0.68843  0.92563  1.0000
  H   H46       1.0  0.59088  0.31157  0.57437  1.0000
  H   H47       1.0  0.90911  0.31157  0.07437  1.0000
  H   H48       1.0  0.40912  0.68843  0.42563  1.0000
  C   C1        1.0  0.57535  0.17176  0.93224  1.0000
  C   C2        1.0  0.07536  0.82824  0.56776  1.0000
  C   C3        1.0  0.42465  0.82825  0.06776  1.0000
  C   C4        1.0  0.92466  0.17176  0.43224  1.0000
  C   C5        1.0  0.29025  0.07848  0.90675  1.0000
  C   C6        1.0  0.79025  0.92152  0.59325  1.0000
  C   C7        1.0  0.70975  0.92152  0.09325  1.0000
  C   C8        1.0  0.20975  0.07848  0.40676  1.0000
  C   C9        1.0  0.90083  0.65567  0.81980  1.0000
  C   C10       1.0  0.40082  0.34433  0.68020  1.0000
  C   C11       1.0  0.09917  0.34433  0.18019  1.0000
  C   C12       1.0  0.59917  0.65567  0.31980  1.0000
  C   C13       1.0  0.16762  0.02283  0.83479  1.0000
  C   C14       1.0  0.66761  0.97717  0.66521  1.0000
  C   C15       1.0  0.83238  0.97717  0.16521  1.0000
  C   C16       1.0  0.33238  0.02283  0.33479  1.0000
  C   C17       1.0  0.64112  0.49171  0.93860  1.0000
  C   C18       1.0  0.14112  0.50829  0.56140  1.0000
  C   C19       1.0  0.35888  0.50829  0.06140  1.0000
  C   C20       1.0  0.85889  0.49171  0.43860  1.0000
  C   C21       1.0  0.56122  0.17137  0.01947  1.0000
  C   C22       1.0  0.06123  0.82864  0.48053  1.0000
  C   C23       1.0  0.43878  0.82864  0.98053  1.0000
  C   C24       1.0  0.93879  0.17137  0.51947  1.0000
  C   C25       1.0  0.64592  0.69819  0.75527  1.0000
  C   C26       1.0  0.14592  0.30180  0.74473  1.0000
  C   C27       1.0  0.35408  0.30181  0.24473  1.0000
  C   C28       1.0  0.85408  0.69819  0.25527  1.0000
  C   C29       1.0  0.47113  0.43695  0.91957  1.0000
  C   C30       1.0  0.97113  0.56305  0.58043  1.0000
  C   C31       1.0  0.52887  0.56305  0.08044  1.0000
  C   C32       1.0  0.02888  0.43695  0.41956  1.0000
  C   C33       1.0  0.60749  0.60520  0.78636  1.0000
  C   C34       1.0  0.10748  0.39479  0.71364  1.0000
  C   C35       1.0  0.39251  0.39480  0.21364  1.0000
  C   C36       1.0  0.89251  0.60520  0.28636  1.0000
  C   C37       1.0  0.78768  0.48608  0.87051  1.0000
  C   C38       1.0  0.28767  0.51392  0.62949  1.0000
  C   C39       1.0  0.21232  0.51392  0.12949  1.0000
  C   C40       1.0  0.71232  0.48608  0.37050  1.0000
  C   C41       1.0  0.73789  0.21962  0.88904  1.0000
  C   C42       1.0  0.23789  0.78038  0.61097  1.0000
  C   C43       1.0  0.26210  0.78038  0.11096  1.0000
  C   C44       1.0  0.76211  0.21962  0.38904  1.0000
  C   C45       1.0  0.66983  0.55524  0.01944  1.0000
  C   C46       1.0  0.16983  0.44476  0.48056  1.0000
  C   C47       1.0  0.33018  0.44476  0.98056  1.0000
  C   C48       1.0  0.83017  0.55524  0.51943  1.0000
  C   C49       1.0  0.26578  0.07662  0.99321  1.0000
  C   C50       1.0  0.76578  0.92338  0.50680  1.0000
  C   C51       1.0  0.73422  0.92338  0.00680  1.0000
  C   C52       1.0  0.23422  0.07662  0.49320  1.0000
  C   C53       1.0  0.40341  0.12496  0.05004  1.0000
  C   C54       1.0  0.90342  0.87504  0.44996  1.0000
  C   C55       1.0  0.59659  0.87504  0.94996  1.0000
  C   C56       1.0  0.09660  0.12496  0.55004  1.0000
  C   C57       1.0  0.09160  0.65766  0.85609  1.0000
  C   C58       1.0  0.59159  0.34233  0.64391  1.0000
  C   C59       1.0  0.90840  0.34234  0.14391  1.0000
  C   C60       1.0  0.40841  0.65766  0.35609  1.0000
  N   N1        1.0  0.43940  0.12732  0.87940  1.0000
  N   N2        1.0  0.93940  0.87268  0.62060  1.0000
  N   N3        1.0  0.56060  0.87268  0.12060  1.0000
  N   N4        1.0  0.06060  0.12732  0.37940  1.0000
  N   N5        1.0  0.82864  0.72869  0.77646  1.0000
  N   N6        1.0  0.32864  0.27131  0.72354  1.0000
  N   N7        1.0  0.17135  0.27131  0.22354  1.0000
  N   N8        1.0  0.67136  0.72869  0.27646  1.0000
  N   N9        1.0  0.76882  0.57899  0.82618  1.0000
  N   N10       1.0  0.26881  0.42100  0.67382  1.0000
  N   N11       1.0  0.23118  0.42101  0.17382  1.0000
  N   N12       1.0  0.73118  0.57899  0.32618  1.0000
  O   O1        1.0  0.05407  0.94987  0.85174  1.0000
  O   O2        1.0  0.55408  0.05013  0.64826  1.0000
  O   O3        1.0  0.94592  0.05013  0.14826  1.0000
  O   O4        1.0  0.44592  0.94987  0.35174  1.0000
  O   O5        1.0  0.71512  0.21976  0.80880  1.0000
  O   O6        1.0  0.21512  0.78024  0.69120  1.0000
  O   O7        1.0  0.28488  0.78024  0.19120  1.0000
  O   O8        1.0  0.78488  0.21976  0.30880  1.0000
  O   O9        1.0  0.19128  0.04641  0.76199  1.0000
  O   O10       1.0  0.69127  0.95360  0.73802  1.0000
  O   O11       1.0  0.80872  0.95360  0.23801  1.0000
  O   O12       1.0  0.30872  0.04640  0.26198  1.0000
  O   O13       1.0  0.87677  0.25553  0.93309  1.0000
  O   O14       1.0  0.37677  0.74447  0.56691  1.0000
  O   O15       1.0  0.12323  0.74447  0.06691  1.0000
  O   O16       1.0  0.62323  0.25553  0.43310  1.0000
