data_image0
_chemical_formula_structural       Cd4H36C40N12O24
_chemical_formula_sum              "Cd4 H36 C40 N12 O24"
_cell_length_a       6.82118
_cell_length_b       12.2491
_cell_length_c       13.7621
_cell_angle_alpha    90.0002
_cell_angle_beta     89.9999
_cell_angle_gamma    90.0005

_space_group_name_H-M_alt    "P 1"
_space_group_IT_number       1

loop_
  _space_group_symop_operation_xyz
  'x, y, z'

loop_
  _atom_site_type_symbol
  _atom_site_label
  _atom_site_symmetry_multiplicity
  _atom_site_fract_x
  _atom_site_fract_y
  _atom_site_fract_z
  _atom_site_occupancy
  Cd  Cd1       1.0  0.03111  0.99197  0.76673  1.0000
  Cd  Cd2       1.0  0.96889  0.00803  0.26673  1.0000
  Cd  Cd3       1.0  0.46889  0.49198  0.26673  1.0000
  Cd  Cd4       1.0  0.53111  0.50802  0.76673  1.0000
  H   H1        1.0  0.11629  0.30252  0.52768  1.0000
  H   H2        1.0  0.88372  0.69748  0.02768  1.0000
  H   H3        1.0  0.38372  0.80252  0.02767  1.0000
  H   H4        1.0  0.61629  0.19748  0.52768  1.0000
  H   H5        1.0  0.38895  0.89538  0.70334  1.0000
  H   H6        1.0  0.61105  0.10461  0.20334  1.0000
  H   H7        1.0  0.11105  0.39539  0.20334  1.0000
  H   H8        1.0  0.88895  0.60462  0.70334  1.0000
  H   H9        1.0  0.38305  0.88409  0.82201  1.0000
  H   H10       1.0  0.61695  0.11591  0.32201  1.0000
  H   H11       1.0  0.11694  0.38409  0.32201  1.0000
  H   H12       1.0  0.88305  0.61591  0.82201  1.0000
  H   H13       1.0  0.58526  0.00792  0.76263  1.0000
  H   H14       1.0  0.41475  0.99208  0.26263  1.0000
  H   H15       1.0  0.91474  0.50792  0.26263  1.0000
  H   H16       1.0  0.08525  0.49209  0.76262  1.0000
  H   H17       1.0  0.67712  0.10503  0.70139  1.0000
  H   H18       1.0  0.32289  0.89497  0.20139  1.0000
  H   H19       1.0  0.82289  0.60503  0.20139  1.0000
  H   H20       1.0  0.17711  0.39497  0.70139  1.0000
  H   H21       1.0  0.99848  0.51336  0.52792  1.0000
  H   H22       1.0  0.00151  0.48664  0.02791  1.0000
  H   H23       1.0  0.50151  0.01336  0.02791  1.0000
  H   H24       1.0  0.49849  0.98664  0.52791  1.0000
  H   H25       1.0  0.88467  0.81093  0.65697  1.0000
  H   H26       1.0  0.11532  0.18907  0.15697  1.0000
  H   H27       1.0  0.61533  0.31093  0.15697  1.0000
  H   H28       1.0  0.38467  0.68907  0.65697  1.0000
  H   H29       1.0  0.13058  0.80663  0.36754  1.0000
  H   H30       1.0  0.86941  0.19337  0.86753  1.0000
  H   H31       1.0  0.36941  0.30663  0.86753  1.0000
  H   H32       1.0  0.63058  0.69337  0.36753  1.0000
  H   H33       1.0  0.11224  0.60354  0.37442  1.0000
  H   H34       1.0  0.88775  0.39646  0.87441  1.0000
  H   H35       1.0  0.38775  0.10354  0.87441  1.0000
  H   H36       1.0  0.61224  0.89646  0.37442  1.0000
  C   C1        1.0  0.00114  0.60219  0.52098  1.0000
  C   C2        1.0  0.99885  0.39781  0.02097  1.0000
  C   C3        1.0  0.49885  0.10219  0.02097  1.0000
  C   C4        1.0  0.50115  0.89781  0.52097  1.0000
  C   C5        1.0  0.94102  0.76880  0.59337  1.0000
  C   C6        1.0  0.05898  0.23121  0.09337  1.0000
  C   C7        1.0  0.55898  0.26879  0.09337  1.0000
  C   C8        1.0  0.44102  0.73120  0.59337  1.0000
  C   C9        1.0  0.00778  0.82668  0.51195  1.0000
  C   C10       1.0  0.99221  0.17332  0.01194  1.0000
  C   C11       1.0  0.49221  0.32668  0.01194  1.0000
  C   C12       1.0  0.50779  0.67332  0.51194  1.0000
  C   C13       1.0  0.07090  0.76606  0.43140  1.0000
  C   C14       1.0  0.92910  0.23394  0.93140  1.0000
  C   C15       1.0  0.42909  0.26606  0.93140  1.0000
  C   C16       1.0  0.57090  0.73394  0.43140  1.0000
  C   C17       1.0  0.06408  0.65257  0.43578  1.0000
  C   C18       1.0  0.93592  0.34743  0.93577  1.0000
  C   C19       1.0  0.43591  0.15257  0.93578  1.0000
  C   C20       1.0  0.56408  0.84743  0.43578  1.0000
  C   C21       1.0  0.02007  0.94586  0.51438  1.0000
  C   C22       1.0  0.97993  0.05414  0.01437  1.0000
  C   C23       1.0  0.47993  0.44586  0.01437  1.0000
  C   C24       1.0  0.52007  0.55414  0.51437  1.0000
  C   C25       1.0  0.05303  0.11425  0.46670  1.0000
  C   C26       1.0  0.94697  0.88575  0.96670  1.0000
  C   C27       1.0  0.44696  0.61425  0.96670  1.0000
  C   C28       1.0  0.55303  0.38575  0.46670  1.0000
  C   C29       1.0  0.07042  0.11032  0.56827  1.0000
  C   C30       1.0  0.92959  0.88968  0.06827  1.0000
  C   C31       1.0  0.42958  0.61032  0.06827  1.0000
  C   C32       1.0  0.57042  0.38967  0.56827  1.0000
  C   C33       1.0  0.10877  0.19597  0.64021  1.0000
  C   C34       1.0  0.89124  0.80403  0.14021  1.0000
  C   C35       1.0  0.39124  0.69596  0.14022  1.0000
  C   C36       1.0  0.60876  0.30403  0.64021  1.0000
  C   C37       1.0  0.06286  0.20633  0.39790  1.0000
  C   C38       1.0  0.93715  0.79367  0.89791  1.0000
  C   C39       1.0  0.43714  0.70633  0.89790  1.0000
  C   C40       1.0  0.56286  0.29367  0.39790  1.0000
  N   N1        1.0  0.02042  0.01048  0.43405  1.0000
  N   N2        1.0  0.97958  0.98952  0.93405  1.0000
  N   N3        1.0  0.47957  0.51048  0.93405  1.0000
  N   N4        1.0  0.52042  0.48953  0.43405  1.0000
  N   N5        1.0  0.04750  0.00417  0.59717  1.0000
  N   N6        1.0  0.95250  0.99584  0.09716  1.0000
  N   N7        1.0  0.45250  0.50416  0.09716  1.0000
  N   N8        1.0  0.54751  0.49583  0.59717  1.0000
  N   N9        1.0  0.94116  0.65976  0.59879  1.0000
  N   N10       1.0  0.05883  0.34024  0.09879  1.0000
  N   N11       1.0  0.55884  0.15976  0.09879  1.0000
  N   N12       1.0  0.44116  0.84024  0.59879  1.0000
  O   O1        1.0  0.12178  0.17507  0.72889  1.0000
  O   O2        1.0  0.87826  0.82493  0.22889  1.0000
  O   O3        1.0  0.37825  0.67508  0.22888  1.0000
  O   O4        1.0  0.62175  0.32492  0.72887  1.0000
  O   O5        1.0  0.13032  0.29699  0.60840  1.0000
  O   O6        1.0  0.86970  0.70301  0.10840  1.0000
  O   O7        1.0  0.36970  0.79699  0.10840  1.0000
  O   O8        1.0  0.63031  0.20300  0.60839  1.0000
  O   O9        1.0  0.09518  0.30355  0.43152  1.0000
  O   O10       1.0  0.90481  0.69645  0.93153  1.0000
  O   O11       1.0  0.40481  0.80355  0.93151  1.0000
  O   O12       1.0  0.59519  0.19645  0.43152  1.0000
  O   O13       1.0  0.03994  0.18896  0.30831  1.0000
  O   O14       1.0  0.96006  0.81104  0.80832  1.0000
  O   O15       1.0  0.46007  0.68895  0.80831  1.0000
  O   O16       1.0  0.53994  0.31105  0.30831  1.0000
  O   O17       1.0  0.36651  0.93722  0.76804  1.0000
  O   O18       1.0  0.63349  0.06277  0.26804  1.0000
  O   O19       1.0  0.13349  0.43723  0.26804  1.0000
  O   O20       1.0  0.86651  0.56277  0.76804  1.0000
  O   O21       1.0  0.70679  0.05169  0.75297  1.0000
  O   O22       1.0  0.29322  0.94830  0.25297  1.0000
  O   O23       1.0  0.79321  0.55169  0.25297  1.0000
  O   O24       1.0  0.20679  0.44832  0.75296  1.0000
