data_image0
_chemical_formula_structural       Cs2Mn2H6C6O12
_chemical_formula_sum              "Cs2 Mn2 H6 C6 O12"
_cell_length_a       7.60836
_cell_length_b       7.60841
_cell_length_c       8.48671
_cell_angle_alpha    90
_cell_angle_beta     90.0001
_cell_angle_gamma    120

_space_group_name_H-M_alt    "P 1"
_space_group_IT_number       1

loop_
  _space_group_symop_operation_xyz
  'x, y, z'

loop_
  _atom_site_type_symbol
  _atom_site_label
  _atom_site_symmetry_multiplicity
  _atom_site_fract_x
  _atom_site_fract_y
  _atom_site_fract_z
  _atom_site_occupancy
  Cs  Cs1       1.0  0.00000  1.00000  0.25000  1.0000
  Cs  Cs2       1.0  0.00000  0.00000  0.75000  1.0000
  Mn  Mn1       1.0  0.66667  0.33333  0.25000  1.0000
  Mn  Mn2       1.0  0.33334  0.66667  0.75000  1.0000
  H   H1        1.0  0.58706  0.58707  0.99999  1.0000
  H   H2        1.0  0.00000  0.58707  0.50001  1.0000
  H   H3        1.0  0.41292  0.00000  1.00000  1.0000
  H   H4        1.0  0.41293  0.41293  0.50000  1.0000
  H   H5        1.0  0.00001  0.41292  0.00000  1.0000
  H   H6        1.0  0.58708  0.99999  0.50000  1.0000
  C   C1        1.0  0.44143  0.44144  0.00002  1.0000
  C   C2        1.0  0.00002  0.44145  0.49998  1.0000
  C   C3        1.0  0.55854  0.99997  0.00002  1.0000
  C   C4        1.0  0.55856  0.55857  0.49998  1.0000
  C   C5        1.0  0.00002  0.55857  0.00003  1.0000
  C   C6        1.0  0.44143  0.99997  0.49997  1.0000
  O   O1        1.0  0.41847  0.30845  0.10116  1.0000
  O   O2        1.0  0.11000  0.41848  0.60118  1.0000
  O   O3        1.0  0.69154  0.11002  0.10115  1.0000
  O   O4        1.0  0.58152  0.69152  0.60117  1.0000
  O   O5        1.0  0.88998  0.58152  0.10116  1.0000
  O   O6        1.0  0.30848  0.89000  0.60117  1.0000
  O   O7        1.0  0.11000  0.69152  0.89883  1.0000
  O   O8        1.0  0.58153  0.89000  0.89882  1.0000
  O   O9        1.0  0.30848  0.41848  0.89883  1.0000
  O   O10       1.0  0.69154  0.58152  0.39883  1.0000
  O   O11       1.0  0.88997  0.30845  0.39885  1.0000
  O   O12       1.0  0.41847  0.11002  0.39884  1.0000
