data_image0
_chemical_formula_structural       Rb2Ni2H6C6O12
_chemical_formula_sum              "Rb2 Ni2 H6 C6 O12"
_cell_length_a       7.25309
_cell_length_b       7.25309
_cell_length_c       8.23942
_cell_angle_alpha    90
_cell_angle_beta     90
_cell_angle_gamma    120

_space_group_name_H-M_alt    "P 1"
_space_group_IT_number       1

loop_
  _space_group_symop_operation_xyz
  'x, y, z'

loop_
  _atom_site_type_symbol
  _atom_site_label
  _atom_site_symmetry_multiplicity
  _atom_site_fract_x
  _atom_site_fract_y
  _atom_site_fract_z
  _atom_site_occupancy
  Rb  Rb1       1.0  0.00001  1.00000  0.25000  1.0000
  Rb  Rb2       1.0  0.99999  1.00000  0.75000  1.0000
  Ni  Ni1       1.0  0.66667  0.33333  0.25000  1.0000
  Ni  Ni2       1.0  0.33333  0.66667  0.75000  1.0000
  H   H1        1.0  0.59973  0.59972  1.00000  1.0000
  H   H2        1.0  1.00000  0.59972  0.50000  1.0000
  H   H3        1.0  0.40028  0.00000  0.00001  1.0000
  H   H4        1.0  0.40027  0.40026  0.49999  1.0000
  H   H5        1.0  0.99999  0.40027  0.00000  1.0000
  H   H6        1.0  0.59973  0.00000  0.50000  1.0000
  C   C1        1.0  0.44762  0.44762  0.99999  1.0000
  C   C2        1.0  1.00000  0.44761  0.50001  1.0000
  C   C3        1.0  0.55238  1.00000  0.99999  1.0000
  C   C4        1.0  0.55238  0.55238  0.50001  1.0000
  C   C5        1.0  0.00000  0.55239  0.99999  1.0000
  C   C6        1.0  0.44762  0.99999  0.50001  1.0000
  O   O1        1.0  0.41862  0.30992  0.10758  1.0000
  O   O2        1.0  0.10867  0.41860  0.60756  1.0000
  O   O3        1.0  0.69009  0.10870  0.10757  1.0000
  O   O4        1.0  0.58139  0.69006  0.60756  1.0000
  O   O5        1.0  0.89131  0.58139  0.10757  1.0000
  O   O6        1.0  0.30992  0.89131  0.60756  1.0000
  O   O7        1.0  0.10868  0.69007  0.89244  1.0000
  O   O8        1.0  0.58139  0.89132  0.89244  1.0000
  O   O9        1.0  0.30993  0.41860  0.89244  1.0000
  O   O10       1.0  0.69009  0.58139  0.39243  1.0000
  O   O11       1.0  0.89130  0.30991  0.39243  1.0000
  O   O12       1.0  0.41861  0.10869  0.39243  1.0000
