data_image0
_chemical_formula_structural       Rb2Mn2H6C6O12
_chemical_formula_sum              "Rb2 Mn2 H6 C6 O12"
_cell_length_a       6.99279
_cell_length_b       7.31057
_cell_length_c       7.31025
_cell_angle_alpha    78.2811
_cell_angle_beta     85.2615
_cell_angle_gamma    85.2559

_space_group_name_H-M_alt    "P 1"
_space_group_IT_number       1

loop_
  _space_group_symop_operation_xyz
  'x, y, z'

loop_
  _atom_site_type_symbol
  _atom_site_label
  _atom_site_symmetry_multiplicity
  _atom_site_fract_x
  _atom_site_fract_y
  _atom_site_fract_z
  _atom_site_occupancy
  Rb  Rb1       1.0  0.24998  0.09656  0.90346  1.0000
  Rb  Rb2       1.0  0.75001  0.90344  0.09655  1.0000
  Mn  Mn1       1.0  0.00001  1.00000  0.50001  1.0000
  Mn  Mn2       1.0  0.49999  0.50000  0.99999  1.0000
  H   H1        1.0  0.99925  0.56895  0.70823  1.0000
  H   H2        1.0  0.50075  0.29179  0.43101  1.0000
  H   H3        1.0  0.00074  0.43103  0.29176  1.0000
  H   H4        1.0  0.49926  0.70821  0.56897  1.0000
  H   H5        1.0  0.25001  0.60510  0.39489  1.0000
  H   H6        1.0  0.74999  0.39491  0.60509  1.0000
  C   C1        1.0  0.12360  0.62382  0.76023  1.0000
  C   C2        1.0  0.37641  0.23979  0.37618  1.0000
  C   C3        1.0  0.87640  0.37617  0.23979  1.0000
  C   C4        1.0  0.62361  0.76021  0.62382  1.0000
  C   C5        1.0  0.25002  0.72566  0.27435  1.0000
  C   C6        1.0  0.74998  0.27435  0.72565  1.0000
  O   O1        1.0  0.13667  0.79976  0.72236  1.0000
  O   O2        1.0  0.36332  0.27766  0.20028  1.0000
  O   O3        1.0  0.86331  0.20026  0.27766  1.0000
  O   O4        1.0  0.63668  0.72234  0.79973  1.0000
  O   O5        1.0  0.23898  0.50358  0.85171  1.0000
  O   O6        1.0  0.26096  0.14829  0.49643  1.0000
  O   O7        1.0  0.76101  0.49641  0.14829  1.0000
  O   O8        1.0  0.73906  0.85170  0.50359  1.0000
  O   O9        1.0  0.12028  0.85712  0.27733  1.0000
  O   O10       1.0  0.37976  0.72271  0.14292  1.0000
  O   O11       1.0  0.87974  0.14290  0.72267  1.0000
  O   O12       1.0  0.62021  0.27730  0.85706  1.0000
