data_image0
_chemical_formula_structural       Cs2Ni2H6C6O12
_chemical_formula_sum              "Cs2 Ni2 H6 C6 O12"
_cell_length_a       7.47242
_cell_length_b       7.47237
_cell_length_c       8.06778
_cell_angle_alpha    90.0001
_cell_angle_beta     90
_cell_angle_gamma    120.001

_space_group_name_H-M_alt    "P 1"
_space_group_IT_number       1

loop_
  _space_group_symop_operation_xyz
  'x, y, z'

loop_
  _atom_site_type_symbol
  _atom_site_label
  _atom_site_symmetry_multiplicity
  _atom_site_fract_x
  _atom_site_fract_y
  _atom_site_fract_z
  _atom_site_occupancy
  Cs  Cs1       1.0  0.99999  0.99999  0.75000  1.0000
  Cs  Cs2       1.0  0.00001  0.00001  0.25000  1.0000
  Ni  Ni1       1.0  0.33333  0.66667  0.75000  1.0000
  Ni  Ni2       1.0  0.66667  0.33333  0.25000  1.0000
  H   H1        1.0  0.59953  1.00000  0.50000  1.0000
  H   H2        1.0  0.59953  0.59953  1.00000  1.0000
  H   H3        1.0  0.00000  0.59953  0.50000  1.0000
  H   H4        1.0  0.40047  0.00000  1.00000  1.0000
  H   H5        1.0  0.40047  0.40047  0.50000  1.0000
  H   H6        1.0  1.00000  0.40047  0.00000  1.0000
  C   C1        1.0  0.45173  1.00000  0.50000  1.0000
  C   C2        1.0  0.45173  0.45173  0.00000  1.0000
  C   C3        1.0  1.00000  0.45173  0.50000  1.0000
  C   C4        1.0  0.54827  0.00000  0.00000  1.0000
  C   C5        1.0  0.54827  0.54827  0.50000  1.0000
  C   C6        1.0  0.00000  0.54827  0.00000  1.0000
  O   O1        1.0  0.31319  0.88508  0.60346  1.0000
  O   O2        1.0  0.42811  0.31319  0.10346  1.0000
  O   O3        1.0  0.11492  0.42811  0.60346  1.0000
  O   O4        1.0  0.68681  0.11492  0.10346  1.0000
  O   O5        1.0  0.57189  0.68681  0.60346  1.0000
  O   O6        1.0  0.88508  0.57189  0.10346  1.0000
  O   O7        1.0  0.42811  0.11492  0.39654  1.0000
  O   O8        1.0  0.68681  0.57189  0.39654  1.0000
  O   O9        1.0  0.88508  0.31319  0.39654  1.0000
  O   O10       1.0  0.11492  0.68681  0.89654  1.0000
  O   O11       1.0  0.57189  0.88508  0.89654  1.0000
  O   O12       1.0  0.31319  0.42811  0.89654  1.0000
