data_image0
_chemical_formula_structural       Ca4H52C40S4N4O24
_chemical_formula_sum              "Ca4 H52 C40 S4 N4 O24"
_cell_length_a       6.54392
_cell_length_b       10.4741
_cell_length_c       18.4712
_cell_angle_alpha    89.9996
_cell_angle_beta     98.241
_cell_angle_gamma    89.9999

_space_group_name_H-M_alt    "P 1"
_space_group_IT_number       1

loop_
  _space_group_symop_operation_xyz
  'x, y, z'

loop_
  _atom_site_type_symbol
  _atom_site_label
  _atom_site_symmetry_multiplicity
  _atom_site_fract_x
  _atom_site_fract_y
  _atom_site_fract_z
  _atom_site_occupancy
  Ca  Ca1       1.0  0.25115  0.90485  0.47604  1.0000
  Ca  Ca2       1.0  0.24885  0.40484  0.02396  1.0000
  Ca  Ca3       1.0  0.74885  0.09515  0.52396  1.0000
  Ca  Ca4       1.0  0.75116  0.59516  0.97604  1.0000
  H   H1        1.0  0.63197  0.08460  0.70382  1.0000
  H   H2        1.0  0.86804  0.58460  0.79617  1.0000
  H   H3        1.0  0.36803  0.91541  0.29617  1.0000
  H   H4        1.0  0.13196  0.41543  0.20383  1.0000
  H   H5        1.0  0.59084  0.17931  0.83407  1.0000
  H   H6        1.0  0.90918  0.67930  0.66593  1.0000
  H   H7        1.0  0.40916  0.82069  0.16593  1.0000
  H   H8        1.0  0.09082  0.32071  0.33408  1.0000
  H   H9        1.0  0.21835  0.59911  0.31339  1.0000
  H   H10       1.0  0.28164  0.09911  0.18661  1.0000
  H   H11       1.0  0.78164  0.40088  0.68662  1.0000
  H   H12       1.0  0.71836  0.90089  0.81339  1.0000
  H   H13       1.0  0.39663  0.46936  0.33274  1.0000
  H   H14       1.0  0.10335  0.96936  0.16726  1.0000
  H   H15       1.0  0.60337  0.53064  0.66726  1.0000
  H   H16       1.0  0.89664  0.03064  0.83274  1.0000
  H   H17       1.0  0.47350  0.61210  0.29275  1.0000
  H   H18       1.0  0.02649  0.11210  0.20725  1.0000
  H   H19       1.0  0.52648  0.38790  0.70725  1.0000
  H   H20       1.0  0.97351  0.88790  0.79275  1.0000
  H   H21       1.0  0.56217  0.68026  0.54261  1.0000
  H   H22       1.0  0.93784  0.18026  0.95739  1.0000
  H   H23       1.0  0.43786  0.31975  0.45739  1.0000
  H   H24       1.0  0.06216  0.81974  0.04261  1.0000
  H   H25       1.0  0.80881  0.72338  0.51946  1.0000
  H   H26       1.0  0.69119  0.22339  0.98053  1.0000
  H   H27       1.0  0.19121  0.27661  0.48053  1.0000
  H   H28       1.0  0.30881  0.77661  0.01947  1.0000
  H   H29       1.0  0.76629  0.56534  0.54988  1.0000
  H   H30       1.0  0.73371  0.06534  0.95012  1.0000
  H   H31       1.0  0.23372  0.43466  0.45012  1.0000
  H   H32       1.0  0.26629  0.93465  0.04988  1.0000
  H   H33       1.0  0.80647  0.43641  0.43965  1.0000
  H   H34       1.0  0.69352  0.93641  0.06035  1.0000
  H   H35       1.0  0.19352  0.56358  0.56035  1.0000
  H   H36       1.0  0.30647  0.06359  0.93965  1.0000
  H   H37       1.0  0.93306  0.58203  0.42136  1.0000
  H   H38       1.0  0.56693  0.08203  0.07864  1.0000
  H   H39       1.0  0.06692  0.41796  0.57864  1.0000
  H   H40       1.0  0.43307  0.91797  0.92136  1.0000
  H   H41       1.0  0.74184  0.51588  0.35384  1.0000
  H   H42       1.0  0.75815  0.01589  0.14616  1.0000
  H   H43       1.0  0.25815  0.48411  0.64615  1.0000
  H   H44       1.0  0.24184  0.98411  0.85384  1.0000
  H   H45       1.0  0.29341  0.11869  0.37265  1.0000
  H   H46       1.0  0.20659  0.61869  0.12735  1.0000
  H   H47       1.0  0.70659  0.88130  0.62735  1.0000
  H   H48       1.0  0.79342  0.38131  0.87265  1.0000
  H   H49       1.0  0.05583  0.11471  0.38703  1.0000
  H   H50       1.0  0.44417  0.61470  0.11297  1.0000
  H   H51       1.0  0.94417  0.88530  0.61297  1.0000
  H   H52       1.0  0.55583  0.38530  0.88703  1.0000
  C   C1        1.0  0.18219  0.28033  0.85308  1.0000
  C   C2        1.0  0.31783  0.78032  0.64692  1.0000
  C   C3        1.0  0.81781  0.71967  0.14692  1.0000
  C   C4        1.0  0.68218  0.21968  0.35308  1.0000
  C   C5        1.0  0.27736  0.10035  0.59136  1.0000
  C   C6        1.0  0.22264  0.60036  0.90864  1.0000
  C   C7        1.0  0.72264  0.89964  0.40864  1.0000
  C   C8        1.0  0.77736  0.39965  0.09136  1.0000
  C   C9        1.0  0.31095  0.13708  0.66893  1.0000
  C   C10       1.0  0.18905  0.63708  0.83107  1.0000
  C   C11       1.0  0.68903  0.86291  0.33108  1.0000
  C   C12       1.0  0.81096  0.36293  0.16893  1.0000
  C   C13       1.0  0.49131  0.12695  0.71834  1.0000
  C   C14       1.0  0.00870  0.62695  0.78166  1.0000
  C   C15       1.0  0.50869  0.87305  0.28166  1.0000
  C   C16       1.0  0.99131  0.37307  0.21834  1.0000
  C   C17       1.0  0.46840  0.17706  0.78762  1.0000
  C   C18       1.0  0.03161  0.67705  0.71238  1.0000
  C   C19       1.0  0.53160  0.82295  0.21238  1.0000
  C   C20       1.0  0.96839  0.32297  0.28762  1.0000
  C   C21       1.0  0.27074  0.22329  0.79047  1.0000
  C   C22       1.0  0.22928  0.72328  0.70953  1.0000
  C   C23       1.0  0.72926  0.77671  0.20953  1.0000
  C   C24       1.0  0.77073  0.27673  0.29047  1.0000
  C   C25       1.0  0.44080  0.63001  0.40742  1.0000
  C   C26       1.0  0.05920  0.13000  0.09258  1.0000
  C   C27       1.0  0.55920  0.36999  0.59258  1.0000
  C   C28       1.0  0.94080  0.87000  0.90742  1.0000
  C   C29       1.0  0.37924  0.57372  0.33233  1.0000
  C   C30       1.0  0.12075  0.07372  0.16767  1.0000
  C   C31       1.0  0.62075  0.42627  0.66768  1.0000
  C   C32       1.0  0.87925  0.92628  0.83233  1.0000
  C   C33       1.0  0.69444  0.64631  0.51815  1.0000
  C   C34       1.0  0.80556  0.14631  0.98185  1.0000
  C   C35       1.0  0.30558  0.35369  0.48185  1.0000
  C   C36       1.0  0.19444  0.85369  0.01815  1.0000
  C   C37       1.0  0.78543  0.53003  0.41252  1.0000
  C   C38       1.0  0.71457  0.03003  0.08748  1.0000
  C   C39       1.0  0.21456  0.46996  0.58748  1.0000
  C   C40       1.0  0.28543  0.96997  0.91252  1.0000
  S   S1        1.0  0.11289  0.20311  0.70854  1.0000
  S   S2        1.0  0.38711  0.70312  0.79146  1.0000
  S   S3        1.0  0.88710  0.79688  0.29146  1.0000
  S   S4        1.0  0.61290  0.29689  0.20854  1.0000
  N   N1        1.0  0.63021  0.60379  0.44334  1.0000
  N   N2        1.0  0.86979  0.10380  0.05666  1.0000
  N   N3        1.0  0.36979  0.39620  0.55666  1.0000
  N   N4        1.0  0.13021  0.89620  0.94334  1.0000
  O   O1        1.0  0.09739  0.10831  0.55520  1.0000
  O   O2        1.0  0.40260  0.60831  0.94480  1.0000
  O   O3        1.0  0.90259  0.89168  0.44480  1.0000
  O   O4        1.0  0.59741  0.39168  0.05520  1.0000
  O   O5        1.0  0.43051  0.05926  0.56224  1.0000
  O   O6        1.0  0.06949  0.55927  0.93776  1.0000
  O   O7        1.0  0.56948  0.94073  0.43776  1.0000
  O   O8        1.0  0.93051  0.44074  0.06224  1.0000
  O   O9        1.0  0.31138  0.31734  0.90809  1.0000
  O   O10       1.0  0.18863  0.81734  0.59191  1.0000
  O   O11       1.0  0.68862  0.68266  0.09191  1.0000
  O   O12       1.0  0.81137  0.18266  0.40809  1.0000
  O   O13       1.0  0.98756  0.28565  0.84743  1.0000
  O   O14       1.0  0.51246  0.78564  0.65257  1.0000
  O   O15       1.0  0.01244  0.71435  0.15257  1.0000
  O   O16       1.0  0.48755  0.21437  0.34743  1.0000
  O   O17       1.0  0.17963  0.06210  0.38342  1.0000
  O   O18       1.0  0.32037  0.56210  0.11658  1.0000
  O   O19       1.0  0.82037  0.93790  0.61658  1.0000
  O   O20       1.0  0.67963  0.43790  0.88342  1.0000
  O   O21       1.0  0.31423  0.69809  0.43607  1.0000
  O   O22       1.0  0.18576  0.19809  0.06393  1.0000
  O   O23       1.0  0.68577  0.30191  0.56393  1.0000
  O   O24       1.0  0.81424  0.80191  0.93607  1.0000
