data_image0
_chemical_formula_structural       Cd4H36C40N20O8
_chemical_formula_sum              "Cd4 H36 C40 N20 O8"
_cell_length_a       9.96207
_cell_length_b       10.7499
_cell_length_c       10.8953
_cell_angle_alpha    89.9997
_cell_angle_beta     90.0007
_cell_angle_gamma    90.0002

_space_group_name_H-M_alt    "P 1"
_space_group_IT_number       1

loop_
  _space_group_symop_operation_xyz
  'x, y, z'

loop_
  _atom_site_type_symbol
  _atom_site_label
  _atom_site_symmetry_multiplicity
  _atom_site_fract_x
  _atom_site_fract_y
  _atom_site_fract_z
  _atom_site_occupancy
  Cd  Cd1       1.0  0.94913  0.23800  0.08133  1.0000
  Cd  Cd2       1.0  0.55087  0.76201  0.58133  1.0000
  Cd  Cd3       1.0  0.05087  0.73799  0.41867  1.0000
  Cd  Cd4       1.0  0.44913  0.26201  0.91867  1.0000
  H   H1        1.0  0.92141  0.07579  0.89240  1.0000
  H   H2        1.0  0.57858  0.92420  0.39240  1.0000
  H   H3        1.0  0.07858  0.57580  0.60760  1.0000
  H   H4        1.0  0.42142  0.42421  0.10760  1.0000
  H   H5        1.0  0.82169  0.18685  0.84523  1.0000
  H   H6        1.0  0.67831  0.81315  0.34524  1.0000
  H   H7        1.0  0.17831  0.68685  0.65477  1.0000
  H   H8        1.0  0.32169  0.31315  0.15477  1.0000
  H   H9        1.0  0.03166  0.15969  0.72012  1.0000
  H   H10       1.0  0.46833  0.84031  0.22012  1.0000
  H   H11       1.0  0.96834  0.65969  0.77988  1.0000
  H   H12       1.0  0.53167  0.34031  0.27987  1.0000
  H   H13       1.0  0.99146  0.40803  0.85278  1.0000
  H   H14       1.0  0.50854  0.59196  0.35278  1.0000
  H   H15       1.0  0.00854  0.90804  0.64722  1.0000
  H   H16       1.0  0.49146  0.09196  0.14722  1.0000
  H   H17       1.0  0.09039  0.38343  0.71990  1.0000
  H   H18       1.0  0.40961  0.61657  0.21990  1.0000
  H   H19       1.0  0.90961  0.88343  0.78009  1.0000
  H   H20       1.0  0.59039  0.11657  0.28010  1.0000
  H   H21       1.0  0.75109  0.43550  0.83793  1.0000
  H   H22       1.0  0.74891  0.56451  0.33792  1.0000
  H   H23       1.0  0.24892  0.93550  0.66208  1.0000
  H   H24       1.0  0.25108  0.06450  0.16208  1.0000
  H   H25       1.0  0.77263  0.33757  0.39180  1.0000
  H   H26       1.0  0.72736  0.66243  0.89180  1.0000
  H   H27       1.0  0.22735  0.83757  0.10820  1.0000
  H   H28       1.0  0.27265  0.16243  0.60820  1.0000
  H   H29       1.0  0.56211  0.42350  0.48357  1.0000
  H   H30       1.0  0.93789  0.57651  0.98357  1.0000
  H   H31       1.0  0.43789  0.92348  0.01643  1.0000
  H   H32       1.0  0.06212  0.07652  0.51643  1.0000
  H   H33       1.0  0.97496  0.31009  0.52236  1.0000
  H   H34       1.0  0.52504  0.68991  0.02236  1.0000
  H   H35       1.0  0.02503  0.81009  0.97763  1.0000
  H   H36       1.0  0.47497  0.18991  0.47764  1.0000
  C   C1        1.0  0.15922  0.21038  0.87102  1.0000
  C   C2        1.0  0.34078  0.78962  0.37102  1.0000
  C   C3        1.0  0.84077  0.71038  0.62898  1.0000
  C   C4        1.0  0.65923  0.28962  0.12898  1.0000
  C   C5        1.0  0.02348  0.21572  0.80443  1.0000
  C   C6        1.0  0.47651  0.78427  0.30444  1.0000
  C   C7        1.0  0.97651  0.71572  0.69557  1.0000
  C   C8        1.0  0.52349  0.28427  0.19556  1.0000
  C   C9        1.0  0.99931  0.35256  0.76805  1.0000
  C   C10       1.0  0.50069  0.64744  0.26805  1.0000
  C   C11       1.0  0.00069  0.85256  0.73195  1.0000
  C   C12       1.0  0.49931  0.14744  0.23195  1.0000
  C   C13       1.0  0.75711  0.41523  0.74006  1.0000
  C   C14       1.0  0.74289  0.58478  0.24006  1.0000
  C   C15       1.0  0.24289  0.91522  0.75994  1.0000
  C   C16       1.0  0.25711  0.08478  0.25994  1.0000
  C   C17       1.0  0.64457  0.43627  0.66576  1.0000
  C   C18       1.0  0.85543  0.56372  0.16576  1.0000
  C   C19       1.0  0.35543  0.93627  0.83424  1.0000
  C   C20       1.0  0.14457  0.06374  0.33424  1.0000
  C   C21       1.0  0.87690  0.37136  0.68910  1.0000
  C   C22       1.0  0.62309  0.62865  0.18910  1.0000
  C   C23       1.0  0.12309  0.87136  0.81090  1.0000
  C   C24       1.0  0.37691  0.12864  0.31091  1.0000
  C   C25       1.0  0.76879  0.36091  0.48927  1.0000
  C   C26       1.0  0.73120  0.63909  0.98927  1.0000
  C   C27       1.0  0.23120  0.86090  0.01074  1.0000
  C   C28       1.0  0.26880  0.13909  0.51074  1.0000
  C   C29       1.0  0.65097  0.40864  0.54023  1.0000
  C   C30       1.0  0.84902  0.59135  0.04023  1.0000
  C   C31       1.0  0.34902  0.90864  0.95977  1.0000
  C   C32       1.0  0.15099  0.09136  0.45977  1.0000
  C   C33       1.0  0.88165  0.34415  0.56314  1.0000
  C   C34       1.0  0.61835  0.65586  0.06314  1.0000
  C   C35       1.0  0.11834  0.84414  0.93686  1.0000
  C   C36       1.0  0.38166  0.15586  0.43686  1.0000
  C   C37       1.0  0.52167  0.49007  0.71752  1.0000
  C   C38       1.0  0.97833  0.50993  0.21752  1.0000
  C   C39       1.0  0.47833  0.99006  0.78248  1.0000
  C   C40       1.0  0.02167  0.00994  0.28249  1.0000
  N   N1        1.0  0.91461  0.17038  0.88376  1.0000
  N   N2        1.0  0.58539  0.82962  0.38377  1.0000
  N   N3        1.0  0.08539  0.67038  0.61624  1.0000
  N   N4        1.0  0.41461  0.32962  0.11623  1.0000
  N   N5        1.0  0.45094  0.44528  0.81270  1.0000
  N   N6        1.0  0.04906  0.55472  0.31270  1.0000
  N   N7        1.0  0.54906  0.94528  0.68731  1.0000
  N   N8        1.0  0.95094  0.05473  0.18731  1.0000
  N   N9        1.0  0.45978  0.59253  0.67441  1.0000
  N   N10       1.0  0.04022  0.40748  0.17442  1.0000
  N   N11       1.0  0.54022  0.09252  0.82559  1.0000
  N   N12       1.0  0.95978  0.90748  0.32559  1.0000
  N   N13       1.0  0.34935  0.60960  0.74527  1.0000
  N   N14       1.0  0.15065  0.39040  0.24527  1.0000
  N   N15       1.0  0.65065  0.10960  0.75473  1.0000
  N   N16       1.0  0.84935  0.89040  0.25473  1.0000
  N   N17       1.0  0.34350  0.52125  0.82758  1.0000
  N   N18       1.0  0.15650  0.47875  0.32758  1.0000
  N   N19       1.0  0.65650  0.02126  0.67242  1.0000
  N   N20       1.0  0.84350  0.97875  0.17242  1.0000
  O   O1        1.0  0.16267  0.20432  0.98708  1.0000
  O   O2        1.0  0.33732  0.79568  0.48708  1.0000
  O   O3        1.0  0.83732  0.70431  0.51292  1.0000
  O   O4        1.0  0.66268  0.29567  0.01292  1.0000
  O   O5        1.0  0.26196  0.21943  0.80256  1.0000
  O   O6        1.0  0.23804  0.78057  0.30255  1.0000
  O   O7        1.0  0.73804  0.71943  0.69745  1.0000
  O   O8        1.0  0.76196  0.28057  0.19745  1.0000
