data_image0
_chemical_formula_structural       Hg2H28C26I4N4
_chemical_formula_sum              "Hg2 H28 C26 I4 N4"
_cell_length_a       5.0108
_cell_length_b       11.8499
_cell_length_c       13.4031
_cell_angle_alpha    89.9999
_cell_angle_beta     90
_cell_angle_gamma    90.6857

_space_group_name_H-M_alt    "P 1"
_space_group_IT_number       1

loop_
  _space_group_symop_operation_xyz
  'x, y, z'

loop_
  _atom_site_type_symbol
  _atom_site_label
  _atom_site_symmetry_multiplicity
  _atom_site_fract_x
  _atom_site_fract_y
  _atom_site_fract_z
  _atom_site_occupancy
  Hg  Hg1       1.0  0.01805  0.77694  0.49419  1.0000
  Hg  Hg2       1.0  0.98195  0.22306  0.99419  1.0000
  H   H1        1.0  0.89749  0.60233  0.67233  1.0000
  H   H2        1.0  0.10251  0.39767  0.17233  1.0000
  H   H3        1.0  0.61280  0.56802  0.82315  1.0000
  H   H4        1.0  0.38720  0.43198  0.32315  1.0000
  H   H5        1.0  0.25848  0.89323  0.77108  1.0000
  H   H6        1.0  0.74152  0.10677  0.27108  1.0000
  H   H7        1.0  0.56488  0.91567  0.62455  1.0000
  H   H8        1.0  0.43512  0.08433  0.12455  1.0000
  H   H9        1.0  0.06256  0.76472  0.89689  1.0000
  H   H10       1.0  0.93744  0.23528  0.39689  1.0000
  H   H11       1.0  0.16570  0.62206  0.90297  1.0000
  H   H12       1.0  0.83430  0.37794  0.40297  1.0000
  H   H13       1.0  0.57493  0.68284  0.99851  1.0000
  H   H14       1.0  0.42507  0.31716  0.49850  1.0000
  H   H15       1.0  0.46390  0.82396  0.99622  1.0000
  H   H16       1.0  0.53610  0.17604  0.49622  1.0000
  H   H17       1.0  0.05888  0.77089  0.09293  1.0000
  H   H18       1.0  0.94112  0.22911  0.59293  1.0000
  H   H19       1.0  0.14699  0.62616  0.08805  1.0000
  H   H20       1.0  0.85301  0.37384  0.58805  1.0000
  H   H21       1.0  0.58677  0.91845  0.36113  1.0000
  H   H22       1.0  0.41323  0.08155  0.86113  1.0000
  H   H23       1.0  0.27865  0.89973  0.21466  1.0000
  H   H24       1.0  0.72135  0.10027  0.71466  1.0000
  H   H25       1.0  0.56722  0.56054  0.17610  1.0000
  H   H26       1.0  0.43278  0.43946  0.67610  1.0000
  H   H27       1.0  0.85579  0.59201  0.32653  1.0000
  H   H28       1.0  0.14421  0.40798  0.82653  1.0000
  C   C1        1.0  0.75406  0.66486  0.69785  1.0000
  C   C2        1.0  0.24594  0.33514  0.19785  1.0000
  C   C3        1.0  0.59400  0.64629  0.78091  1.0000
  C   C4        1.0  0.40600  0.35371  0.28091  1.0000
  C   C5        1.0  0.40918  0.72800  0.80979  1.0000
  C   C6        1.0  0.59082  0.27201  0.30979  1.0000
  C   C7        1.0  0.39947  0.82691  0.75265  1.0000
  C   C8        1.0  0.60053  0.17309  0.25265  1.0000
  C   C9        1.0  0.56888  0.83987  0.67090  1.0000
  C   C10       1.0  0.43112  0.16013  0.17090  1.0000
  C   C11       1.0  0.23825  0.71014  0.90059  1.0000
  C   C12       1.0  0.76175  0.28986  0.40059  1.0000
  C   C13       1.0  0.39503  0.73541  0.99659  1.0000
  C   C14       1.0  0.60497  0.26459  0.49659  1.0000
  C   C15       1.0  0.22846  0.71284  0.09091  1.0000
  C   C16       1.0  0.77154  0.28716  0.59091  1.0000
  C   C17       1.0  0.57524  0.84045  0.31783  1.0000
  C   C18       1.0  0.42476  0.15955  0.81783  1.0000
  C   C19       1.0  0.40509  0.82947  0.23616  1.0000
  C   C20       1.0  0.59491  0.17053  0.73616  1.0000
  C   C21       1.0  0.39660  0.72786  0.18271  1.0000
  C   C22       1.0  0.60339  0.27214  0.68271  1.0000
  C   C23       1.0  0.56337  0.64115  0.21541  1.0000
  C   C24       1.0  0.43663  0.35885  0.71541  1.0000
  C   C25       1.0  0.72563  0.65809  0.29816  1.0000
  C   C26       1.0  0.27437  0.34190  0.79816  1.0000
  I   I1        1.0  0.08363  0.00503  0.49073  1.0000
  I   I2        1.0  0.91637  0.99497  0.99073  1.0000
  I   I3        1.0  0.24810  0.56992  0.49808  1.0000
  I   I4        1.0  0.75190  0.43008  0.99808  1.0000
  N   N1        1.0  0.74210  0.75994  0.64372  1.0000
  N   N2        1.0  0.25790  0.24006  0.14372  1.0000
  N   N3        1.0  0.73220  0.75613  0.34834  1.0000
  N   N4        1.0  0.26780  0.24387  0.84834  1.0000
