data_image0
_chemical_formula_structural       Hg4H32C40I8N16
_chemical_formula_sum              "Hg4 H32 C40 I8 N16"
_cell_length_a       8.5354
_cell_length_b       11.7288
_cell_length_c       13.6791
_cell_angle_alpha    90.0003
_cell_angle_beta     90.0002
_cell_angle_gamma    90.0003

_space_group_name_H-M_alt    "P 1"
_space_group_IT_number       1

loop_
  _space_group_symop_operation_xyz
  'x, y, z'

loop_
  _atom_site_type_symbol
  _atom_site_label
  _atom_site_symmetry_multiplicity
  _atom_site_fract_x
  _atom_site_fract_y
  _atom_site_fract_z
  _atom_site_occupancy
  Hg  Hg1       1.0  0.11821  0.55287  0.75000  1.0000
  Hg  Hg2       1.0  0.61820  0.94712  0.75000  1.0000
  Hg  Hg3       1.0  0.38180  0.05288  0.25000  1.0000
  Hg  Hg4       1.0  0.88180  0.44712  0.25000  1.0000
  H   H1        1.0  0.08180  0.32700  0.60784  1.0000
  H   H2        1.0  0.58181  0.17299  0.60785  1.0000
  H   H3        1.0  0.08181  0.32701  0.89216  1.0000
  H   H4        1.0  0.41820  0.82701  0.10785  1.0000
  H   H5        1.0  0.91819  0.67299  0.39216  1.0000
  H   H6        1.0  0.41819  0.82700  0.39215  1.0000
  H   H7        1.0  0.91819  0.67300  0.10785  1.0000
  H   H8        1.0  0.58181  0.17299  0.89216  1.0000
  H   H9        1.0  0.90456  0.22786  0.48811  1.0000
  H   H10       1.0  0.40456  0.27213  0.48812  1.0000
  H   H11       1.0  0.90456  0.22786  0.01189  1.0000
  H   H12       1.0  0.59544  0.72787  0.98812  1.0000
  H   H13       1.0  0.09544  0.77213  0.51189  1.0000
  H   H14       1.0  0.59543  0.72786  0.51188  1.0000
  H   H15       1.0  0.09544  0.77214  0.98812  1.0000
  H   H16       1.0  0.40457  0.27214  0.01188  1.0000
  H   H17       1.0  0.65190  0.32458  0.43978  1.0000
  H   H18       1.0  0.15190  0.17541  0.43979  1.0000
  H   H19       1.0  0.65191  0.32458  0.06021  1.0000
  H   H20       1.0  0.84809  0.82458  0.93979  1.0000
  H   H21       1.0  0.34810  0.67542  0.56022  1.0000
  H   H22       1.0  0.84809  0.82458  0.56021  1.0000
  H   H23       1.0  0.34810  0.67542  0.93979  1.0000
  H   H24       1.0  0.15191  0.17542  0.06021  1.0000
  H   H25       1.0  0.77391  0.59874  0.63659  1.0000
  H   H26       1.0  0.27391  0.90125  0.63659  1.0000
  H   H27       1.0  0.77392  0.59875  0.86341  1.0000
  H   H28       1.0  0.72609  0.09875  0.13659  1.0000
  H   H29       1.0  0.22609  0.40126  0.36341  1.0000
  H   H30       1.0  0.72608  0.09874  0.36340  1.0000
  H   H31       1.0  0.22608  0.40125  0.13659  1.0000
  H   H32       1.0  0.27392  0.90125  0.86341  1.0000
  C   C1        1.0  0.97008  0.36453  0.58569  1.0000
  C   C2        1.0  0.47008  0.13546  0.58570  1.0000
  C   C3        1.0  0.97008  0.36454  0.91431  1.0000
  C   C4        1.0  0.52992  0.86454  0.08569  1.0000
  C   C5        1.0  0.02992  0.63547  0.41431  1.0000
  C   C6        1.0  0.52992  0.86453  0.41430  1.0000
  C   C7        1.0  0.02993  0.63547  0.08570  1.0000
  C   C8        1.0  0.47008  0.13546  0.91431  1.0000
  C   C9        1.0  0.87109  0.31005  0.51911  1.0000
  C   C10       1.0  0.37108  0.18994  0.51911  1.0000
  C   C11       1.0  0.87109  0.31005  0.98089  1.0000
  C   C12       1.0  0.62891  0.81006  0.01911  1.0000
  C   C13       1.0  0.12891  0.68995  0.48089  1.0000
  C   C14       1.0  0.62891  0.81005  0.48089  1.0000
  C   C15       1.0  0.12892  0.68996  0.01911  1.0000
  C   C16       1.0  0.37109  0.18995  0.98089  1.0000
  C   C17       1.0  0.73080  0.36206  0.49368  1.0000
  C   C18       1.0  0.23080  0.13793  0.49368  1.0000
  C   C19       1.0  0.73080  0.36207  0.00632  1.0000
  C   C20       1.0  0.76920  0.86207  0.99368  1.0000
  C   C21       1.0  0.26920  0.63794  0.50632  1.0000
  C   C22       1.0  0.76919  0.86206  0.50632  1.0000
  C   C23       1.0  0.26920  0.63795  0.99368  1.0000
  C   C24       1.0  0.23080  0.13794  0.00632  1.0000
  C   C25       1.0  0.69246  0.46665  0.53773  1.0000
  C   C26       1.0  0.19246  0.03333  0.53774  1.0000
  C   C27       1.0  0.69247  0.46666  0.96227  1.0000
  C   C28       1.0  0.80754  0.96666  0.03773  1.0000
  C   C29       1.0  0.30754  0.53334  0.46227  1.0000
  C   C30       1.0  0.80753  0.96666  0.46226  1.0000
  C   C31       1.0  0.30754  0.53335  0.03773  1.0000
  C   C32       1.0  0.19247  0.03334  0.96227  1.0000
  C   C33       1.0  0.80008  0.51672  0.60221  1.0000
  C   C34       1.0  0.30008  0.98327  0.60221  1.0000
  C   C35       1.0  0.80008  0.51673  0.89779  1.0000
  C   C36       1.0  0.69992  0.01673  0.10221  1.0000
  C   C37       1.0  0.19992  0.48328  0.39779  1.0000
  C   C38       1.0  0.69992  0.01672  0.39779  1.0000
  C   C39       1.0  0.19993  0.48328  0.10221  1.0000
  C   C40       1.0  0.30008  0.98328  0.89779  1.0000
  I   I1        1.0  0.34992  0.39662  0.75000  1.0000
  I   I2        1.0  0.84992  0.10338  0.75000  1.0000
  I   I3        1.0  0.15008  0.89662  0.25000  1.0000
  I   I4        1.0  0.65008  0.60338  0.25000  1.0000
  I   I5        1.0  0.01211  0.76905  0.75000  1.0000
  I   I6        1.0  0.51211  0.73095  0.75000  1.0000
  I   I7        1.0  0.48790  0.26905  0.25000  1.0000
  I   I8        1.0  0.98790  0.23095  0.25000  1.0000
  N   N1        1.0  0.93577  0.46626  0.62527  1.0000
  N   N2        1.0  0.43577  0.03373  0.62527  1.0000
  N   N3        1.0  0.93577  0.46627  0.87473  1.0000
  N   N4        1.0  0.56423  0.96627  0.12527  1.0000
  N   N5        1.0  0.06423  0.53373  0.37473  1.0000
  N   N6        1.0  0.56423  0.96627  0.37473  1.0000
  N   N7        1.0  0.06423  0.53373  0.12526  1.0000
  N   N8        1.0  0.43577  0.03373  0.87474  1.0000
  N   N9        1.0  0.55365  0.52845  0.52061  1.0000
  N   N10       1.0  0.05364  0.97154  0.52061  1.0000
  N   N11       1.0  0.55365  0.52846  0.97939  1.0000
  N   N12       1.0  0.94635  0.02846  0.02061  1.0000
  N   N13       1.0  0.44635  0.47155  0.47939  1.0000
  N   N14       1.0  0.94636  0.02845  0.47939  1.0000
  N   N15       1.0  0.44636  0.47155  0.02061  1.0000
  N   N16       1.0  0.05364  0.97155  0.97939  1.0000
