data_image0
_chemical_formula_structural       Cu2H32C40N12O8
_chemical_formula_sum              "Cu2 H32 C40 N12 O8"
_cell_length_a       7.95043
_cell_length_b       11.4041
_cell_length_c       11.4042
_cell_angle_alpha    87.4154
_cell_angle_beta     70.6637
_cell_angle_gamma    70.6663

_space_group_name_H-M_alt    "P 1"
_space_group_IT_number       1

loop_
  _space_group_symop_operation_xyz
  'x, y, z'

loop_
  _atom_site_type_symbol
  _atom_site_label
  _atom_site_symmetry_multiplicity
  _atom_site_fract_x
  _atom_site_fract_y
  _atom_site_fract_z
  _atom_site_occupancy
  Cu  Cu1       1.0  0.44237  0.88824  0.14885  1.0000
  Cu  Cu2       1.0  0.94238  0.14885  0.88825  1.0000
  H   H1        1.0  0.48239  0.34672  0.34287  1.0000
  H   H2        1.0  0.98239  0.34287  0.34672  1.0000
  H   H3        1.0  0.68771  0.26312  0.22133  1.0000
  H   H4        1.0  0.18771  0.22133  0.26312  1.0000
  H   H5        1.0  0.68215  0.24942  0.38001  1.0000
  H   H6        1.0  0.18216  0.38002  0.24942  1.0000
  H   H7        1.0  0.32207  0.31802  0.54495  1.0000
  H   H8        1.0  0.82208  0.54495  0.31802  1.0000
  H   H9        1.0  0.30180  0.36417  0.75860  1.0000
  H   H10       1.0  0.80180  0.75860  0.36417  1.0000
  H   H11       1.0  0.41772  0.18991  0.88635  1.0000
  H   H12       1.0  0.91772  0.88635  0.18991  1.0000
  H   H13       1.0  0.53272  0.97162  0.80139  1.0000
  H   H14       1.0  0.03274  0.80139  0.97162  1.0000
  H   H15       1.0  0.55798  0.92480  0.58280  1.0000
  H   H16       1.0  0.05800  0.58281  0.92479  1.0000
  H   H17       1.0  0.60237  0.38759  0.92700  1.0000
  H   H18       1.0  0.10236  0.92700  0.38760  1.0000
  H   H19       1.0  0.36802  0.44439  0.92401  1.0000
  H   H20       1.0  0.86801  0.92400  0.44440  1.0000
  H   H21       1.0  0.41250  0.43383  0.06922  1.0000
  H   H22       1.0  0.91248  0.06922  0.43385  1.0000
  H   H23       1.0  0.62311  0.43532  0.74008  1.0000
  H   H24       1.0  0.12311  0.74008  0.43532  1.0000
  H   H25       1.0  0.62209  0.40026  0.53084  1.0000
  H   H26       1.0  0.12209  0.53084  0.40027  1.0000
  H   H27       1.0  0.49608  0.58062  0.41315  1.0000
  H   H28       1.0  0.99608  0.41314  0.58064  1.0000
  H   H29       1.0  0.38694  0.79584  0.50685  1.0000
  H   H30       1.0  0.88694  0.50685  0.79586  1.0000
  H   H31       1.0  0.36572  0.83097  0.72729  1.0000
  H   H32       1.0  0.86573  0.72729  0.83097  1.0000
  C   C1        1.0  0.57948  0.08889  0.08642  1.0000
  C   C2        1.0  0.07949  0.08642  0.08888  1.0000
  C   C3        1.0  0.53164  0.08190  0.22373  1.0000
  C   C4        1.0  0.03165  0.22372  0.08190  1.0000
  C   C5        1.0  0.53594  0.14991  0.32000  1.0000
  C   C6        1.0  0.03595  0.32000  0.14991  1.0000
  C   C7        1.0  0.60059  0.25803  0.31705  1.0000
  C   C8        1.0  0.10059  0.31705  0.25803  1.0000
  C   C9        1.0  0.44668  0.11875  0.55047  1.0000
  C   C10       1.0  0.94670  0.55047  0.11875  1.0000
  C   C11       1.0  0.37278  0.24222  0.59944  1.0000
  C   C12       1.0  0.87279  0.59944  0.24221  1.0000
  C   C13       1.0  0.36042  0.26750  0.72106  1.0000
  C   C14       1.0  0.86043  0.72106  0.26750  1.0000
  C   C15       1.0  0.42109  0.17072  0.79275  1.0000
  C   C16       1.0  0.92109  0.79275  0.17071  1.0000
  C   C17       1.0  0.48919  0.04707  0.74410  1.0000
  C   C18       1.0  0.98919  0.74410  0.04706  1.0000
  C   C19       1.0  0.50255  0.02052  0.62253  1.0000
  C   C20       1.0  0.00257  0.62253  0.02051  1.0000
  C   C21       1.0  0.42215  0.64885  0.20092  1.0000
  C   C22       1.0  0.92215  0.20093  0.64885  1.0000
  C   C23       1.0  0.45375  0.66013  0.06631  1.0000
  C   C24       1.0  0.95376  0.06631  0.66013  1.0000
  C   C25       1.0  0.46571  0.58460  0.97005  1.0000
  C   C26       1.0  0.96571  0.97005  0.58460  1.0000
  C   C27       1.0  0.46116  0.45578  0.97194  1.0000
  C   C28       1.0  0.96115  0.97194  0.45579  1.0000
  C   C29       1.0  0.48647  0.63554  0.74780  1.0000
  C   C30       1.0  0.98647  0.74780  0.63554  1.0000
  C   C31       1.0  0.56055  0.51418  0.69311  1.0000
  C   C32       1.0  0.06055  0.69312  0.51417  1.0000
  C   C33       1.0  0.56339  0.49532  0.57243  1.0000
  C   C34       1.0  0.06339  0.57243  0.49532  1.0000
  C   C35       1.0  0.49899  0.59572  0.50599  1.0000
  C   C36       1.0  0.99899  0.50599  0.59573  1.0000
  C   C37       1.0  0.43317  0.71714  0.56006  1.0000
  C   C38       1.0  0.93317  0.56006  0.71715  1.0000
  C   C39       1.0  0.42308  0.73767  0.68186  1.0000
  C   C40       1.0  0.92308  0.68187  0.73768  1.0000
  N   N1        1.0  0.46301  0.98976  0.27483  1.0000
  N   N2        1.0  0.96301  0.27483  0.98976  1.0000
  N   N3        1.0  0.42324  0.99359  0.39554  1.0000
  N   N4        1.0  0.92326  0.39554  0.99358  1.0000
  N   N5        1.0  0.46756  0.09169  0.42418  1.0000
  N   N6        1.0  0.96757  0.42417  0.09169  1.0000
  N   N7        1.0  0.46288  0.77104  0.02094  1.0000
  N   N8        1.0  0.96288  0.02094  0.77104  1.0000
  N   N9        1.0  0.47901  0.77263  0.90345  1.0000
  N   N10       1.0  0.97901  0.90345  0.77263  1.0000
  N   N11       1.0  0.47931  0.65893  0.87137  1.0000
  N   N12       1.0  0.97932  0.87137  0.65893  1.0000
  O   O1        1.0  0.55136  0.00328  0.03237  1.0000
  O   O2        1.0  0.05136  0.03237  0.00328  1.0000
  O   O3        1.0  0.63791  0.17338  0.03314  1.0000
  O   O4        1.0  0.13792  0.03314  0.17337  1.0000
  O   O5        1.0  0.39651  0.75228  0.26009  1.0000
  O   O6        1.0  0.89652  0.26009  0.75228  1.0000
  O   O7        1.0  0.41945  0.54923  0.24963  1.0000
  O   O8        1.0  0.91946  0.24963  0.54924  1.0000
