data_image0
_chemical_formula_structural       Cd2H52C74N6O12
_chemical_formula_sum              "Cd2 H52 C74 N6 O12"
_cell_length_a       11.6895
_cell_length_b       12.2712
_cell_length_c       12.3795
_cell_angle_alpha    79.2193
_cell_angle_beta     81.0626
_cell_angle_gamma    63.1471

_space_group_name_H-M_alt    "P 1"
_space_group_IT_number       1

loop_
  _space_group_symop_operation_xyz
  'x, y, z'

loop_
  _atom_site_type_symbol
  _atom_site_label
  _atom_site_symmetry_multiplicity
  _atom_site_fract_x
  _atom_site_fract_y
  _atom_site_fract_z
  _atom_site_occupancy
  Cd  Cd1       1.0  0.11518  0.67342  0.16504  1.0000
  Cd  Cd2       1.0  0.88483  0.32658  0.83496  1.0000
  H   H1        1.0  0.11901  0.65458  0.80090  1.0000
  H   H2        1.0  0.88099  0.34542  0.19911  1.0000
  H   H3        1.0  0.18218  0.53628  0.64337  1.0000
  H   H4        1.0  0.81782  0.46372  0.35664  1.0000
  H   H5        1.0  0.35597  0.54323  0.50146  1.0000
  H   H6        1.0  0.64402  0.45677  0.49854  1.0000
  H   H7        1.0  0.19699  0.30375  0.11877  1.0000
  H   H8        1.0  0.80301  0.69625  0.88123  1.0000
  H   H9        1.0  0.36908  0.88108  0.32455  1.0000
  H   H10       1.0  0.63092  0.11892  0.67545  1.0000
  H   H11       1.0  0.33143  0.91306  0.12508  1.0000
  H   H12       1.0  0.66856  0.08693  0.87491  1.0000
  H   H13       1.0  0.30570  0.65628  0.32801  1.0000
  H   H14       1.0  0.69430  0.34372  0.67199  1.0000
  H   H15       1.0  0.51440  0.66526  0.33241  1.0000
  H   H16       1.0  0.48560  0.33474  0.66759  1.0000
  H   H17       1.0  0.58367  0.63752  0.98331  1.0000
  H   H18       1.0  0.41633  0.36248  0.01669  1.0000
  H   H19       1.0  0.37467  0.62479  0.99421  1.0000
  H   H20       1.0  0.62533  0.37521  0.00579  1.0000
  H   H21       1.0  0.79654  0.52969  0.04877  1.0000
  H   H22       1.0  0.20347  0.47031  0.95123  1.0000
  H   H23       1.0  0.60226  0.81281  0.26287  1.0000
  H   H24       1.0  0.39774  0.18719  0.73713  1.0000
  H   H25       1.0  0.81239  0.82179  0.26292  1.0000
  H   H26       1.0  0.18761  0.17821  0.73708  1.0000
  H   H27       1.0  0.05275  0.95273  0.17926  1.0000
  H   H28       1.0  0.94725  0.04727  0.82074  1.0000
  H   H29       1.0  0.99613  0.80716  0.57171  1.0000
  H   H30       1.0  0.00387  0.19284  0.42829  1.0000
  H   H31       1.0  0.03068  0.68175  0.42502  1.0000
  H   H32       1.0  0.96931  0.31826  0.57498  1.0000
  H   H33       1.0  0.02255  0.09005  0.31431  1.0000
  H   H34       1.0  0.97744  0.90996  0.68568  1.0000
  H   H35       1.0  0.24102  0.12600  0.02524  1.0000
  H   H36       1.0  0.75898  0.87401  0.97476  1.0000
  H   H37       1.0  0.33032  0.13259  0.58671  1.0000
  H   H38       1.0  0.66969  0.86740  0.41329  1.0000
  H   H39       1.0  0.46253  0.67585  0.51683  1.0000
  H   H40       1.0  0.53746  0.32416  0.48317  1.0000
  H   H41       1.0  0.48621  0.81993  0.61282  1.0000
  H   H42       1.0  0.51379  0.18007  0.38719  1.0000
  H   H43       1.0  0.41332  0.95283  0.76151  1.0000
  H   H44       1.0  0.58668  0.04717  0.23848  1.0000
  H   H45       1.0  0.99765  0.55221  0.05835  1.0000
  H   H46       1.0  0.00235  0.44778  0.94166  1.0000
  H   H47       1.0  0.36943  0.95924  0.48851  1.0000
  H   H48       1.0  0.63057  0.04075  0.51149  1.0000
  H   H49       1.0  0.17080  0.94159  0.96941  1.0000
  H   H50       1.0  0.82920  0.05841  0.03059  1.0000
  H   H51       1.0  0.20922  0.43970  0.44909  1.0000
  H   H52       1.0  0.79078  0.56029  0.55091  1.0000
  C   C1        1.0  0.14786  0.78006  0.94535  1.0000
  C   C2        1.0  0.85215  0.21994  0.05465  1.0000
  C   C3        1.0  0.21913  0.80500  0.84096  1.0000
  C   C4        1.0  0.78087  0.19500  0.15904  1.0000
  C   C5        1.0  0.27118  0.88940  0.83852  1.0000
  C   C6        1.0  0.72882  0.11060  0.16148  1.0000
  C   C7        1.0  0.25319  0.73466  0.75065  1.0000
  C   C8        1.0  0.74681  0.26533  0.24935  1.0000
  C   C9        1.0  0.19352  0.65968  0.73852  1.0000
  C   C10       1.0  0.80648  0.34032  0.26148  1.0000
  C   C11       1.0  0.22924  0.59363  0.65010  1.0000
  C   C12       1.0  0.77076  0.40637  0.34990  1.0000
  C   C13       1.0  0.32716  0.59793  0.56934  1.0000
  C   C14       1.0  0.67283  0.40207  0.43066  1.0000
  C   C15       1.0  0.19826  0.42632  0.27870  1.0000
  C   C16       1.0  0.80174  0.57368  0.72131  1.0000
  C   C17       1.0  0.23960  0.29695  0.33278  1.0000
  C   C18       1.0  0.76040  0.70305  0.66722  1.0000
  C   C19       1.0  0.26107  0.19666  0.27511  1.0000
  C   C20       1.0  0.73893  0.80334  0.72489  1.0000
  C   C21       1.0  0.23586  0.21136  0.16329  1.0000
  C   C22       1.0  0.76414  0.78864  0.83671  1.0000
  C   C23       1.0  0.30978  0.07331  0.33273  1.0000
  C   C24       1.0  0.69022  0.92669  0.66727  1.0000
  C   C25       1.0  0.33398  0.97297  0.27733  1.0000
  C   C26       1.0  0.66602  0.02703  0.72267  1.0000
  C   C27       1.0  0.31180  0.99057  0.16774  1.0000
  C   C28       1.0  0.68820  0.00943  0.83225  1.0000
  C   C29       1.0  0.26352  0.27115  0.44553  1.0000
  C   C30       1.0  0.73648  0.72885  0.55447  1.0000
  C   C31       1.0  0.36991  0.65288  0.25339  1.0000
  C   C32       1.0  0.63008  0.34713  0.74661  1.0000
  C   C33       1.0  0.48497  0.65947  0.25526  1.0000
  C   C34       1.0  0.51503  0.34053  0.74474  1.0000
  C   C35       1.0  0.56367  0.65690  0.15723  1.0000
  C   C36       1.0  0.43634  0.34310  0.84276  1.0000
  C   C37       1.0  0.52522  0.64146  0.06160  1.0000
  C   C38       1.0  0.47478  0.35854  0.93840  1.0000
  C   C39       1.0  0.40857  0.63518  0.06715  1.0000
  C   C40       1.0  0.59144  0.36482  0.93285  1.0000
  C   C41       1.0  0.68305  0.66969  0.15607  1.0000
  C   C42       1.0  0.31695  0.33030  0.84393  1.0000
  C   C43       1.0  0.79519  0.59715  0.09562  1.0000
  C   C44       1.0  0.20482  0.40285  0.90439  1.0000
  C   C45       1.0  0.68810  0.75258  0.21699  1.0000
  C   C46       1.0  0.31191  0.24742  0.78301  1.0000
  C   C47       1.0  0.80406  0.75837  0.21710  1.0000
  C   C48       1.0  0.19594  0.24163  0.78290  1.0000
  C   C49       1.0  0.04036  0.92444  0.26745  1.0000
  C   C50       1.0  0.95963  0.07556  0.73254  1.0000
  C   C51       1.0  0.00788  0.96138  0.45756  1.0000
  C   C52       1.0  0.99211  0.03863  0.54244  1.0000
  C   C53       1.0  0.00837  0.84486  0.48632  1.0000
  C   C54       1.0  0.99162  0.15515  0.51368  1.0000
  C   C55       1.0  0.02716  0.77350  0.40468  1.0000
  C   C56       1.0  0.97284  0.22650  0.59532  1.0000
  C   C57       1.0  0.02309  0.00076  0.34447  1.0000
  C   C58       1.0  0.97690  0.99925  0.65553  1.0000
  C   C59       1.0  0.26100  0.11154  0.11121  1.0000
  C   C60       1.0  0.73900  0.88846  0.88879  1.0000
  C   C61       1.0  0.31141  0.14843  0.50042  1.0000
  C   C62       1.0  0.68860  0.85156  0.49958  1.0000
  C   C63       1.0  0.38596  0.67129  0.57778  1.0000
  C   C64       1.0  0.61403  0.32871  0.42222  1.0000
  C   C65       1.0  0.34970  0.74182  0.66628  1.0000
  C   C66       1.0  0.65029  0.25818  0.33373  1.0000
  C   C67       1.0  0.40814  0.81960  0.67369  1.0000
  C   C68       1.0  0.59186  0.18040  0.32631  1.0000
  C   C69       1.0  0.36845  0.89346  0.75541  1.0000
  C   C70       1.0  0.63155  0.10654  0.24459  1.0000
  C   C71       1.0  0.90695  0.60809  0.10134  1.0000
  C   C72       1.0  0.09305  0.39191  0.89866  1.0000
  C   C73       1.0  0.33365  0.05294  0.44540  1.0000
  C   C74       1.0  0.66635  0.94705  0.55459  1.0000
  N   N1        1.0  0.04433  0.81153  0.29656  1.0000
  N   N2        1.0  0.95567  0.18847  0.70344  1.0000
  N   N3        1.0  0.33081  0.64312  0.16066  1.0000
  N   N4        1.0  0.66919  0.35688  0.83934  1.0000
  N   N5        1.0  0.91176  0.68637  0.16138  1.0000
  N   N6        1.0  0.08825  0.31363  0.83862  1.0000
  O   O1        1.0  0.18963  0.45600  0.17528  1.0000
  O   O2        1.0  0.81037  0.54400  0.82472  1.0000
  O   O3        1.0  0.17221  0.51033  0.34120  1.0000
  O   O4        1.0  0.82779  0.48967  0.65880  1.0000
  O   O5        1.0  0.13929  0.67819  0.97008  1.0000
  O   O6        1.0  0.86072  0.32180  0.02992  1.0000
  O   O7        1.0  0.10787  0.85803  0.01584  1.0000
  O   O8        1.0  0.89213  0.14197  0.98416  1.0000
  O   O9        1.0  0.23665  0.96425  0.91586  1.0000
  O   O10       1.0  0.76335  0.03575  0.08415  1.0000
  O   O11       1.0  0.24510  0.35941  0.50535  1.0000
  O   O12       1.0  0.75490  0.64059  0.49465  1.0000
