data_image0
_chemical_formula_structural       Na4H12C8N20O6
_chemical_formula_sum              "Na4 H12 C8 N20 O6"
_cell_length_a       6.68601
_cell_length_b       7.03392
_cell_length_c       12.7906
_cell_angle_alpha    100.919
_cell_angle_beta     94.2614
_cell_angle_gamma    90.2111

_space_group_name_H-M_alt    "P 1"
_space_group_IT_number       1

loop_
  _space_group_symop_operation_xyz
  'x, y, z'

loop_
  _atom_site_type_symbol
  _atom_site_label
  _atom_site_symmetry_multiplicity
  _atom_site_fract_x
  _atom_site_fract_y
  _atom_site_fract_z
  _atom_site_occupancy
  Na  Na1       1.0  0.22876  0.83816  0.15984  1.0000
  Na  Na2       1.0  0.77124  0.16184  0.84016  1.0000
  Na  Na3       1.0  0.32753  0.81611  0.43100  1.0000
  Na  Na4       1.0  0.67247  0.18389  0.56900  1.0000
  H   H1        1.0  0.95418  0.97349  0.32341  1.0000
  H   H2        1.0  0.04582  0.02651  0.67659  1.0000
  H   H3        1.0  0.61493  0.96868  0.28652  1.0000
  H   H4        1.0  0.38507  0.03132  0.71349  1.0000
  H   H5        1.0  0.94874  0.74718  0.29713  1.0000
  H   H6        1.0  0.05126  0.25282  0.70287  1.0000
  H   H7        1.0  0.32802  0.20121  0.40350  1.0000
  H   H8        1.0  0.67198  0.79879  0.59650  1.0000
  H   H9        1.0  0.61034  0.74139  0.26311  1.0000
  H   H10       1.0  0.38966  0.25861  0.73689  1.0000
  H   H11       1.0  0.27307  0.26919  0.51943  1.0000
  H   H12       1.0  0.72693  0.73081  0.48057  1.0000
  C   C1        1.0  0.23110  0.32425  0.12206  1.0000
  C   C2        1.0  0.76890  0.67576  0.87794  1.0000
  C   C3        1.0  0.23398  0.67817  0.75966  1.0000
  C   C4        1.0  0.76600  0.32182  0.24034  1.0000
  C   C5        1.0  0.25802  0.73586  0.87200  1.0000
  C   C6        1.0  0.74197  0.26414  0.12800  1.0000
  C   C7        1.0  0.18989  0.28190  0.01012  1.0000
  C   C8        1.0  0.81011  0.71810  0.98988  1.0000
  N   N1        1.0  0.25528  0.50483  0.18059  1.0000
  N   N2        1.0  0.74471  0.49517  0.81941  1.0000
  N   N3        1.0  0.28627  0.47882  0.28144  1.0000
  N   N4        1.0  0.71373  0.52118  0.71856  1.0000
  N   N5        1.0  0.27991  0.78007  0.96473  1.0000
  N   N6        1.0  0.72010  0.21993  0.03527  1.0000
  N   N7        1.0  0.14898  0.24575  0.91818  1.0000
  N   N8        1.0  0.85102  0.75425  0.08182  1.0000
  N   N9        1.0  0.24594  0.18846  0.18392  1.0000
  N   N10       1.0  0.75405  0.81154  0.81608  1.0000
  N   N11       1.0  0.23137  0.80037  0.68966  1.0000
  N   N12       1.0  0.76863  0.19963  0.31034  1.0000
  N   N13       1.0  0.28063  0.29064  0.28294  1.0000
  N   N14       1.0  0.71937  0.70936  0.71705  1.0000
  N   N15       1.0  0.21919  0.49166  0.70843  1.0000
  N   N16       1.0  0.78082  0.50835  0.29157  1.0000
  N   N17       1.0  0.21564  0.68433  0.59314  1.0000
  N   N18       1.0  0.78435  0.31567  0.40686  1.0000
  N   N19       1.0  0.20767  0.50172  0.60466  1.0000
  N   N20       1.0  0.79233  0.49828  0.39534  1.0000
  O   O1        1.0  0.52391  0.85458  0.27647  1.0000
  O   O2        1.0  0.47609  0.14542  0.72353  1.0000
  O   O3        1.0  0.04001  0.85986  0.31945  1.0000
  O   O4        1.0  0.95999  0.14014  0.68055  1.0000
  O   O5        1.0  0.34544  0.16484  0.47522  1.0000
  O   O6        1.0  0.65455  0.83515  0.52478  1.0000
