data_image0
_chemical_formula_structural       Ag4H52C40N12Cl4O16
_chemical_formula_sum              "Ag4 H52 C40 N12 Cl4 O16"
_cell_length_a       7.57639
_cell_length_b       9.93967
_cell_length_c       17.6538
_cell_angle_alpha    102.986
_cell_angle_beta     90
_cell_angle_gamma    90.0001

_space_group_name_H-M_alt    "P 1"
_space_group_IT_number       1

loop_
  _space_group_symop_operation_xyz
  'x, y, z'

loop_
  _atom_site_type_symbol
  _atom_site_label
  _atom_site_symmetry_multiplicity
  _atom_site_fract_x
  _atom_site_fract_y
  _atom_site_fract_z
  _atom_site_occupancy
  Ag  Ag1       1.0  0.41562  0.37705  0.69116  1.0000
  Ag  Ag2       1.0  0.08438  0.37705  0.19115  1.0000
  Ag  Ag3       1.0  0.58438  0.62295  0.30885  1.0000
  Ag  Ag4       1.0  0.91562  0.62295  0.80885  1.0000
  H   H1        1.0  0.97033  0.07483  0.64515  1.0000
  H   H2        1.0  0.52966  0.07483  0.14515  1.0000
  H   H3        1.0  0.02966  0.92517  0.35485  1.0000
  H   H4        1.0  0.47034  0.92517  0.85485  1.0000
  H   H5        1.0  0.07443  0.91434  0.65053  1.0000
  H   H6        1.0  0.42557  0.91435  0.15052  1.0000
  H   H7        1.0  0.92557  0.08566  0.34948  1.0000
  H   H8        1.0  0.57444  0.08566  0.84948  1.0000
  H   H9        1.0  0.07665  0.97214  0.56082  1.0000
  H   H10       1.0  0.42335  0.97214  0.06082  1.0000
  H   H11       1.0  0.92335  0.02786  0.43918  1.0000
  H   H12       1.0  0.57665  0.02786  0.93918  1.0000
  H   H13       1.0  0.40066  0.95944  0.55737  1.0000
  H   H14       1.0  0.09934  0.95944  0.05737  1.0000
  H   H15       1.0  0.59934  0.04056  0.44263  1.0000
  H   H16       1.0  0.90066  0.04056  0.94263  1.0000
  H   H17       1.0  0.39730  0.89802  0.64616  1.0000
  H   H18       1.0  0.10270  0.89802  0.14616  1.0000
  H   H19       1.0  0.60270  0.10198  0.35384  1.0000
  H   H20       1.0  0.89730  0.10198  0.85384  1.0000
  H   H21       1.0  0.52488  0.04879  0.64021  1.0000
  H   H22       1.0  0.97512  0.04879  0.14021  1.0000
  H   H23       1.0  0.47512  0.95121  0.35979  1.0000
  H   H24       1.0  0.02488  0.95121  0.85979  1.0000
  H   H25       1.0  0.37726  0.17116  0.75398  1.0000
  H   H26       1.0  0.12274  0.17117  0.25398  1.0000
  H   H27       1.0  0.62274  0.82883  0.24602  1.0000
  H   H28       1.0  0.87726  0.82883  0.74602  1.0000
  H   H29       1.0  0.24534  0.02186  0.75670  1.0000
  H   H30       1.0  0.25465  0.02187  0.25670  1.0000
  H   H31       1.0  0.75465  0.97814  0.24330  1.0000
  H   H32       1.0  0.74535  0.97814  0.74330  1.0000
  H   H33       1.0  0.13995  0.18532  0.75579  1.0000
  H   H34       1.0  0.36004  0.18532  0.25579  1.0000
  H   H35       1.0  0.86005  0.81468  0.24421  1.0000
  H   H36       1.0  0.63995  0.81468  0.74421  1.0000
  H   H37       1.0  0.36762  0.25128  0.41276  1.0000
  H   H38       1.0  0.13238  0.25128  0.91276  1.0000
  H   H39       1.0  0.63238  0.74872  0.58724  1.0000
  H   H40       1.0  0.86762  0.74872  0.08724  1.0000
  H   H41       1.0  0.36834  0.47419  0.37088  1.0000
  H   H42       1.0  0.13167  0.47420  0.87088  1.0000
  H   H43       1.0  0.63167  0.52580  0.62912  1.0000
  H   H44       1.0  0.86833  0.52580  0.12912  1.0000
  H   H45       1.0  0.11378  0.67155  0.58542  1.0000
  H   H46       1.0  0.38622  0.67155  0.08542  1.0000
  H   H47       1.0  0.88622  0.32845  0.41458  1.0000
  H   H48       1.0  0.61378  0.32845  0.91458  1.0000
  H   H49       1.0  0.10859  0.44757  0.62547  1.0000
  H   H50       1.0  0.39141  0.44757  0.12547  1.0000
  H   H51       1.0  0.89141  0.55243  0.37453  1.0000
  H   H52       1.0  0.60859  0.55243  0.87453  1.0000
  C   C1        1.0  0.07899  0.00386  0.62400  1.0000
  C   C2        1.0  0.42101  0.00386  0.12400  1.0000
  C   C3        1.0  0.92101  0.99614  0.37600  1.0000
  C   C4        1.0  0.57899  0.99614  0.87600  1.0000
  C   C5        1.0  0.40580  0.98877  0.62067  1.0000
  C   C6        1.0  0.09420  0.98877  0.12067  1.0000
  C   C7        1.0  0.59420  0.01123  0.37933  1.0000
  C   C8        1.0  0.90580  0.01123  0.87933  1.0000
  C   C9        1.0  0.25249  0.11754  0.73591  1.0000
  C   C10       1.0  0.24751  0.11755  0.23591  1.0000
  C   C11       1.0  0.74751  0.88245  0.26409  1.0000
  C   C12       1.0  0.75249  0.88245  0.76409  1.0000
  C   C13       1.0  0.24611  0.19752  0.54469  1.0000
  C   C14       1.0  0.25389  0.19752  0.04469  1.0000
  C   C15       1.0  0.75389  0.80248  0.45531  1.0000
  C   C16       1.0  0.74611  0.80248  0.95531  1.0000
  C   C17       1.0  0.24483  0.33551  0.52301  1.0000
  C   C18       1.0  0.25517  0.33551  0.02301  1.0000
  C   C19       1.0  0.75517  0.66449  0.47699  1.0000
  C   C20       1.0  0.74483  0.66449  0.97699  1.0000
  C   C21       1.0  0.31413  0.34401  0.45076  1.0000
  C   C22       1.0  0.18587  0.34401  0.95076  1.0000
  C   C23       1.0  0.68587  0.65599  0.54924  1.0000
  C   C24       1.0  0.81413  0.65599  0.04924  1.0000
  C   C25       1.0  0.31512  0.46864  0.42733  1.0000
  C   C26       1.0  0.18488  0.46864  0.92733  1.0000
  C   C27       1.0  0.68488  0.53136  0.57267  1.0000
  C   C28       1.0  0.81512  0.53136  0.07267  1.0000
  C   C29       1.0  0.24655  0.58635  0.47706  1.0000
  C   C30       1.0  0.25346  0.58635  0.97706  1.0000
  C   C31       1.0  0.75346  0.41365  0.52294  1.0000
  C   C32       1.0  0.74654  0.41365  0.02294  1.0000
  C   C33       1.0  0.17374  0.58015  0.54880  1.0000
  C   C34       1.0  0.32626  0.58015  0.04880  1.0000
  C   C35       1.0  0.82626  0.41985  0.45120  1.0000
  C   C36       1.0  0.67374  0.41985  0.95120  1.0000
  C   C37       1.0  0.17208  0.45430  0.57112  1.0000
  C   C38       1.0  0.32792  0.45431  0.07112  1.0000
  C   C39       1.0  0.82792  0.54570  0.42887  1.0000
  C   C40       1.0  0.67208  0.54570  0.92887  1.0000
  N   N1        1.0  0.25632  0.20956  0.62281  1.0000
  N   N2        1.0  0.24368  0.20956  0.12281  1.0000
  N   N3        1.0  0.74368  0.79044  0.37719  1.0000
  N   N4        1.0  0.75632  0.79044  0.87719  1.0000
  N   N5        1.0  0.24905  0.07926  0.64891  1.0000
  N   N6        1.0  0.25095  0.07926  0.14891  1.0000
  N   N7        1.0  0.75095  0.92074  0.35109  1.0000
  N   N8        1.0  0.74905  0.92074  0.85109  1.0000
  N   N9        1.0  0.77240  0.32569  0.75759  1.0000
  N   N10       1.0  0.72760  0.32569  0.25759  1.0000
  N   N11       1.0  0.22760  0.67431  0.24241  1.0000
  N   N12       1.0  0.27240  0.67431  0.74241  1.0000
  Cl  Cl1       1.0  0.24627  0.74194  0.44818  1.0000
  Cl  Cl2       1.0  0.25373  0.74194  0.94818  1.0000
  Cl  Cl3       1.0  0.75373  0.25806  0.55182  1.0000
  Cl  Cl4       1.0  0.74626  0.25806  0.05182  1.0000
  O   O1        1.0  0.23876  0.08889  0.49240  1.0000
  O   O2        1.0  0.26123  0.08889  0.99240  1.0000
  O   O3        1.0  0.76122  0.91112  0.50760  1.0000
  O   O4        1.0  0.73878  0.91112  0.00760  1.0000
  O   O5        1.0  0.68429  0.43085  0.74566  1.0000
  O   O6        1.0  0.81571  0.43085  0.24566  1.0000
  O   O7        1.0  0.31571  0.56914  0.25434  1.0000
  O   O8        1.0  0.18429  0.56915  0.75434  1.0000
  O   O9        1.0  0.92873  0.34580  0.78132  1.0000
  O   O10       1.0  0.57127  0.34580  0.28132  1.0000
  O   O11       1.0  0.07127  0.65420  0.21868  1.0000
  O   O12       1.0  0.42872  0.65420  0.71868  1.0000
  O   O13       1.0  0.70032  0.20899  0.74621  1.0000
  O   O14       1.0  0.79968  0.20899  0.24621  1.0000
  O   O15       1.0  0.29968  0.79101  0.25379  1.0000
  O   O16       1.0  0.20032  0.79101  0.75379  1.0000
