data_image0
_chemical_formula_structural       Co2H32C36O12F4
_chemical_formula_sum              "Co2 H32 C36 O12 F4"
_cell_length_a       5.36809
_cell_length_b       8.92612
_cell_length_c       18.1731
_cell_angle_alpha    97.1524
_cell_angle_beta     89.9994
_cell_angle_gamma    90.0016

_space_group_name_H-M_alt    "P 1"
_space_group_IT_number       1

loop_
  _space_group_symop_operation_xyz
  'x, y, z'

loop_
  _atom_site_type_symbol
  _atom_site_label
  _atom_site_symmetry_multiplicity
  _atom_site_fract_x
  _atom_site_fract_y
  _atom_site_fract_z
  _atom_site_occupancy
  Co  Co1       1.0  0.00000  1.00000  0.50000  1.0000
  Co  Co2       1.0  0.50000  0.50000  0.50000  1.0000
  H   H1        1.0  0.83064  0.40616  0.82079  1.0000
  H   H2        1.0  0.33069  0.09381  0.17919  1.0000
  H   H3        1.0  0.16935  0.59383  0.17921  1.0000
  H   H4        1.0  0.66932  0.90619  0.82081  1.0000
  H   H5        1.0  0.41377  0.72555  0.96856  1.0000
  H   H6        1.0  0.91375  0.77442  0.03144  1.0000
  H   H7        1.0  0.58624  0.27444  0.03144  1.0000
  H   H8        1.0  0.08626  0.22557  0.96857  1.0000
  H   H9        1.0  0.11177  0.75836  0.86675  1.0000
  H   H10       1.0  0.61174  0.74165  0.13326  1.0000
  H   H11       1.0  0.88822  0.24164  0.13326  1.0000
  H   H12       1.0  0.38827  0.25835  0.86674  1.0000
  H   H13       1.0  0.16830  0.61435  0.74177  1.0000
  H   H14       1.0  0.66835  0.88568  0.25824  1.0000
  H   H15       1.0  0.83166  0.38565  0.25824  1.0000
  H   H16       1.0  0.33166  0.11433  0.74176  1.0000
  H   H17       1.0  0.38426  0.44190  0.65724  1.0000
  H   H18       1.0  0.88433  0.05810  0.34276  1.0000
  H   H19       1.0  0.61571  0.55810  0.34276  1.0000
  H   H20       1.0  0.11569  0.94191  0.65724  1.0000
  H   H21       1.0  0.86744  0.29867  0.70864  1.0000
  H   H22       1.0  0.36753  0.20130  0.29135  1.0000
  H   H23       1.0  0.13251  0.70130  0.29136  1.0000
  H   H24       1.0  0.63248  0.79870  0.70865  1.0000
  H   H25       1.0  0.51338  0.99275  0.43844  1.0000
  H   H26       1.0  0.01336  0.50724  0.56156  1.0000
  H   H27       1.0  0.48664  0.00726  0.56156  1.0000
  H   H28       1.0  0.98664  0.49276  0.43844  1.0000
  H   H29       1.0  0.63159  0.15159  0.47186  1.0000
  H   H30       1.0  0.13156  0.34840  0.52813  1.0000
  H   H31       1.0  0.36842  0.84842  0.52814  1.0000
  H   H32       1.0  0.86845  0.65160  0.47186  1.0000
  C   C1        1.0  0.67126  0.48201  0.82893  1.0000
  C   C2        1.0  0.17131  0.01798  0.17106  1.0000
  C   C3        1.0  0.32870  0.51799  0.17107  1.0000
  C   C4        1.0  0.82870  0.98203  0.82895  1.0000
  C   C5        1.0  0.63226  0.56305  0.89795  1.0000
  C   C6        1.0  0.13224  0.93692  0.10203  1.0000
  C   C7        1.0  0.36775  0.43694  0.10204  1.0000
  C   C8        1.0  0.86777  0.06308  0.89797  1.0000
  C   C9        1.0  0.43489  0.66333  0.91347  1.0000
  C   C10       1.0  0.93487  0.83667  0.08653  1.0000
  C   C11       1.0  0.56511  0.33667  0.08653  1.0000
  C   C12       1.0  0.06516  0.16333  0.91348  1.0000
  C   C13       1.0  0.26785  0.68062  0.85628  1.0000
  C   C14       1.0  0.76783  0.81937  0.14372  1.0000
  C   C15       1.0  0.73215  0.31937  0.14372  1.0000
  C   C16       1.0  0.23218  0.18063  0.85629  1.0000
  C   C17       1.0  0.29982  0.59973  0.78612  1.0000
  C   C18       1.0  0.79986  0.90027  0.21388  1.0000
  C   C19       1.0  0.70015  0.40027  0.21388  1.0000
  C   C20       1.0  0.20015  0.09973  0.78612  1.0000
  C   C21       1.0  0.50223  0.49997  0.77123  1.0000
  C   C22       1.0  0.00228  0.00002  0.22877  1.0000
  C   C23       1.0  0.49774  0.50002  0.22877  1.0000
  C   C24       1.0  0.99773  0.99998  0.77123  1.0000
  C   C25       1.0  0.53056  0.42146  0.69646  1.0000
  C   C26       1.0  0.03065  0.07852  0.30353  1.0000
  C   C27       1.0  0.46940  0.57853  0.30354  1.0000
  C   C28       1.0  0.96937  0.92148  0.69647  1.0000
  C   C29       1.0  0.71922  0.32857  0.67204  1.0000
  C   C30       1.0  0.21932  0.17141  0.32796  1.0000
  C   C31       1.0  0.28075  0.67142  0.32796  1.0000
  C   C32       1.0  0.78071  0.82859  0.67205  1.0000
  C   C33       1.0  0.73726  0.25126  0.59592  1.0000
  C   C34       1.0  0.23731  0.24874  0.40407  1.0000
  C   C35       1.0  0.26273  0.74875  0.40407  1.0000
  C   C36       1.0  0.76271  0.75126  0.59594  1.0000
  O   O1        1.0  0.86802  0.13005  0.58897  1.0000
  O   O2        1.0  0.36807  0.36995  0.41102  1.0000
  O   O3        1.0  0.13197  0.86995  0.41102  1.0000
  O   O4        1.0  0.63194  0.63005  0.58899  1.0000
  O   O5        1.0  0.62801  0.29759  0.53986  1.0000
  O   O6        1.0  0.12804  0.20241  0.46013  1.0000
  O   O7        1.0  0.37198  0.70241  0.46014  1.0000
  O   O8        1.0  0.87196  0.79759  0.53987  1.0000
  O   O9        1.0  0.66849  0.05043  0.44252  1.0000
  O   O10       1.0  0.16846  0.44956  0.55747  1.0000
  O   O11       1.0  0.33152  0.94957  0.55748  1.0000
  O   O12       1.0  0.83154  0.55045  0.44252  1.0000
  F   F1        1.0  0.79600  0.54384  0.95381  1.0000
  F   F2        1.0  0.29598  0.95613  0.04617  1.0000
  F   F3        1.0  0.20401  0.45617  0.04618  1.0000
  F   F4        1.0  0.70404  0.04387  0.95383  1.0000
