data_image0
_chemical_formula_structural       H28Pb2C18O8
_chemical_formula_sum              "H28 Pb2 C18 O8"
_cell_length_a       4.78421
_cell_length_b       7.34167
_cell_length_c       14.9126
_cell_angle_alpha    90.0002
_cell_angle_beta     90.4896
_cell_angle_gamma    90

_space_group_name_H-M_alt    "P 1"
_space_group_IT_number       1

loop_
  _space_group_symop_operation_xyz
  'x, y, z'

loop_
  _atom_site_type_symbol
  _atom_site_label
  _atom_site_symmetry_multiplicity
  _atom_site_fract_x
  _atom_site_fract_y
  _atom_site_fract_z
  _atom_site_occupancy
  H   H1        1.0  0.52196  0.13272  0.20653  1.0000
  H   H2        1.0  0.52196  0.36728  0.20653  1.0000
  H   H3        1.0  0.47804  0.86727  0.79348  1.0000
  H   H4        1.0  0.47804  0.63272  0.79347  1.0000
  H   H5        1.0  0.97290  0.36904  0.11653  1.0000
  H   H6        1.0  0.97290  0.13096  0.11653  1.0000
  H   H7        1.0  0.02710  0.63095  0.88347  1.0000
  H   H8        1.0  0.02710  0.86903  0.88347  1.0000
  H   H9        1.0  0.50749  0.36944  0.03516  1.0000
  H   H10       1.0  0.50749  0.13056  0.03516  1.0000
  H   H11       1.0  0.49251  0.63056  0.96484  1.0000
  H   H12       1.0  0.49251  0.86944  0.96484  1.0000
  H   H13       1.0  0.95159  0.36947  0.94513  1.0000
  H   H14       1.0  0.95159  0.13052  0.94513  1.0000
  H   H15       1.0  0.04840  0.63052  0.05487  1.0000
  H   H16       1.0  0.04840  0.86948  0.05487  1.0000
  H   H17       1.0  0.48699  0.13050  0.86409  1.0000
  H   H18       1.0  0.48699  0.36950  0.86409  1.0000
  H   H19       1.0  0.51300  0.86951  0.13591  1.0000
  H   H20       1.0  0.51301  0.63050  0.13591  1.0000
  H   H21       1.0  0.92815  0.12931  0.77321  1.0000
  H   H22       1.0  0.92815  0.37069  0.77321  1.0000
  H   H23       1.0  0.07186  0.87069  0.22679  1.0000
  H   H24       1.0  0.07186  0.62931  0.22679  1.0000
  H   H25       1.0  0.46825  0.12803  0.69137  1.0000
  H   H26       1.0  0.46825  0.37196  0.69137  1.0000
  H   H27       1.0  0.53175  0.87197  0.30863  1.0000
  H   H28       1.0  0.53175  0.62803  0.30863  1.0000
  Pb  Pb1       1.0  0.20908  0.25000  0.44463  1.0000
  Pb  Pb2       1.0  0.79093  0.75000  0.55537  1.0000
  C   C1        1.0  0.83751  0.25000  0.28892  1.0000
  C   C2        1.0  0.16249  0.75001  0.71108  1.0000
  C   C3        1.0  0.66457  0.25000  0.20366  1.0000
  C   C4        1.0  0.33544  0.75000  0.79634  1.0000
  C   C5        1.0  0.83304  0.25000  0.11748  1.0000
  C   C6        1.0  0.16696  0.75000  0.88252  1.0000
  C   C7        1.0  0.64722  0.25000  0.03374  1.0000
  C   C8        1.0  0.35278  0.75000  0.96626  1.0000
  C   C9        1.0  0.81197  0.25000  0.94644  1.0000
  C   C10       1.0  0.18803  0.75000  0.05356  1.0000
  C   C11       1.0  0.62646  0.25000  0.86261  1.0000
  C   C12       1.0  0.37354  0.75000  0.13739  1.0000
  C   C13       1.0  0.79150  0.25000  0.77533  1.0000
  C   C14       1.0  0.20850  0.75000  0.22467  1.0000
  C   C15       1.0  0.60164  0.25000  0.69152  1.0000
  C   C16       1.0  0.39837  0.75000  0.30848  1.0000
  C   C17       1.0  0.77671  0.25000  0.60747  1.0000
  C   C18       1.0  0.22328  0.75000  0.39252  1.0000
  O   O1        1.0  0.71906  0.25001  0.36592  1.0000
  O   O2        1.0  0.28094  0.75002  0.63408  1.0000
  O   O3        1.0  0.10257  0.25000  0.28284  1.0000
  O   O4        1.0  0.89743  0.75001  0.71716  1.0000
  O   O5        1.0  0.85369  0.09897  0.57320  1.0000
  O   O6        1.0  0.85368  0.40104  0.57320  1.0000
  O   O7        1.0  0.14631  0.90104  0.42680  1.0000
  O   O8        1.0  0.14629  0.59897  0.42680  1.0000
