data_image0
_chemical_formula_structural       Pr4H56C60O28
_chemical_formula_sum              "Pr4 H56 C60 O28"
_cell_length_a       10.4759
_cell_length_b       12.0524
_cell_length_c       12.4055
_cell_angle_alpha    105.964
_cell_angle_beta     97.6295
_cell_angle_gamma    92.1506

_space_group_name_H-M_alt    "P 1"
_space_group_IT_number       1

loop_
  _space_group_symop_operation_xyz
  'x, y, z'

loop_
  _atom_site_type_symbol
  _atom_site_label
  _atom_site_symmetry_multiplicity
  _atom_site_fract_x
  _atom_site_fract_y
  _atom_site_fract_z
  _atom_site_occupancy
  Pr  Pr1       1.0  0.97172  0.97314  0.31873  1.0000
  Pr  Pr2       1.0  0.02828  0.02686  0.68127  1.0000
  Pr  Pr3       1.0  0.69263  0.96106  0.04573  1.0000
  Pr  Pr4       1.0  0.30737  0.03894  0.95427  1.0000
  H   H1        1.0  0.06813  0.36523  0.93993  1.0000
  H   H2        1.0  0.93187  0.63477  0.06007  1.0000
  H   H3        1.0  0.11459  0.34422  0.80628  1.0000
  H   H4        1.0  0.88541  0.65578  0.19372  1.0000
  H   H5        1.0  0.37992  0.42288  0.83165  1.0000
  H   H6        1.0  0.62008  0.57712  0.16836  1.0000
  H   H7        1.0  0.51259  0.61105  0.90874  1.0000
  H   H8        1.0  0.48741  0.38895  0.09126  1.0000
  H   H9        1.0  0.44149  0.76887  0.05570  1.0000
  H   H10       1.0  0.55851  0.23114  0.94430  1.0000
  H   H11       1.0  0.10800  0.55099  0.05852  1.0000
  H   H12       1.0  0.89201  0.44901  0.94148  1.0000
  H   H13       1.0  0.29449  0.80713  0.22530  1.0000
  H   H14       1.0  0.70551  0.19287  0.77470  1.0000
  H   H15       1.0  0.13927  0.73676  0.18775  1.0000
  H   H16       1.0  0.86073  0.26325  0.81225  1.0000
  H   H17       1.0  0.86484  0.27651  0.12690  1.0000
  H   H18       1.0  0.13516  0.72349  0.87310  1.0000
  H   H19       1.0  0.81184  0.32158  0.25793  1.0000
  H   H20       1.0  0.18816  0.67842  0.74207  1.0000
  H   H21       1.0  0.12852  0.30559  0.14018  1.0000
  H   H22       1.0  0.87149  0.69441  0.85982  1.0000
  H   H23       1.0  0.30236  0.46423  0.20352  1.0000
  H   H24       1.0  0.69764  0.53577  0.79647  1.0000
  H   H25       1.0  0.28490  0.63650  0.36526  1.0000
  H   H26       1.0  0.71510  0.36350  0.63474  1.0000
  H   H27       1.0  0.90655  0.49914  0.38634  1.0000
  H   H28       1.0  0.09345  0.50085  0.61366  1.0000
  H   H29       1.0  0.00451  0.67586  0.52817  1.0000
  H   H30       1.0  0.99549  0.32414  0.47183  1.0000
  H   H31       1.0  0.16939  0.71721  0.53719  1.0000
  H   H32       1.0  0.83061  0.28279  0.46281  1.0000
  H   H33       1.0  0.36152  0.83651  0.69991  1.0000
  H   H34       1.0  0.63847  0.16349  0.30009  1.0000
  H   H35       1.0  0.41378  0.71031  0.73221  1.0000
  H   H36       1.0  0.58622  0.28969  0.26780  1.0000
  H   H37       1.0  0.63421  0.64150  0.67378  1.0000
  H   H38       1.0  0.36579  0.35849  0.32622  1.0000
  H   H39       1.0  0.75633  0.59480  0.51278  1.0000
  H   H40       1.0  0.24367  0.40520  0.48722  1.0000
  H   H41       1.0  0.71171  0.68934  0.35718  1.0000
  H   H42       1.0  0.28829  0.31066  0.64282  1.0000
  H   H43       1.0  0.41865  0.87524  0.52811  1.0000
  H   H44       1.0  0.58135  0.12476  0.47189  1.0000
  H   H45       1.0  0.45212  0.90084  0.35456  1.0000
  H   H46       1.0  0.54788  0.09916  0.64545  1.0000
  H   H47       1.0  0.49408  0.77591  0.25820  1.0000
  H   H48       1.0  0.50592  0.22409  0.74181  1.0000
  H   H49       1.0  0.24975  0.08051  0.36916  1.0000
  H   H50       1.0  0.75025  0.91948  0.63084  1.0000
  H   H51       1.0  0.23446  0.04450  0.48075  1.0000
  H   H52       1.0  0.76554  0.95550  0.51924  1.0000
  H   H53       1.0  0.97222  0.91032  0.01998  1.0000
  H   H54       1.0  0.02778  0.08968  0.98002  1.0000
  H   H55       1.0  0.90678  0.93915  0.90721  1.0000
  H   H56       1.0  0.09322  0.06085  0.09279  1.0000
  C   C1        1.0  0.21636  0.25471  0.91196  1.0000
  C   C2        1.0  0.78364  0.74529  0.08804  1.0000
  C   C3        1.0  0.15375  0.36146  0.89645  1.0000
  C   C4        1.0  0.84625  0.63854  0.10356  1.0000
  C   C5        1.0  0.23454  0.47442  0.94031  1.0000
  C   C6        1.0  0.76546  0.52558  0.05969  1.0000
  C   C7        1.0  0.34762  0.49258  0.89670  1.0000
  C   C8        1.0  0.65238  0.50742  0.10330  1.0000
  C   C9        1.0  0.42174  0.59797  0.93880  1.0000
  C   C10       1.0  0.57826  0.40204  0.06120  1.0000
  C   C11       1.0  0.38293  0.68690  0.02358  1.0000
  C   C12       1.0  0.61708  0.31310  0.97642  1.0000
  C   C13       1.0  0.26811  0.67189  0.06602  1.0000
  C   C14       1.0  0.73189  0.32811  0.93398  1.0000
  C   C15       1.0  0.19575  0.56501  0.02393  1.0000
  C   C16       1.0  0.80425  0.43499  0.97607  1.0000
  C   C17       1.0  0.21895  0.76832  0.15231  1.0000
  C   C18       1.0  0.78105  0.23168  0.84769  1.0000
  C   C19       1.0  0.17819  0.86887  0.10738  1.0000
  C   C20       1.0  0.82181  0.13113  0.89261  1.0000
  C   C21       1.0  0.93164  0.18198  0.24119  1.0000
  C   C22       1.0  0.06836  0.81802  0.75881  1.0000
  C   C23       1.0  0.89836  0.29574  0.21852  1.0000
  C   C24       1.0  0.10164  0.70426  0.78148  1.0000
  C   C25       1.0  0.00513  0.39147  0.25858  1.0000
  C   C26       1.0  0.99487  0.60853  0.74142  1.0000
  C   C27       1.0  0.11736  0.38296  0.20766  1.0000
  C   C28       1.0  0.88264  0.61704  0.79234  1.0000
  C   C29       1.0  0.21657  0.47126  0.24534  1.0000
  C   C30       1.0  0.78343  0.52874  0.75466  1.0000
  C   C31       1.0  0.20622  0.56822  0.33512  1.0000
  C   C32       1.0  0.79378  0.43178  0.66488  1.0000
  C   C33       1.0  0.09420  0.57917  0.38630  1.0000
  C   C34       1.0  0.90580  0.42083  0.61370  1.0000
  C   C35       1.0  0.99446  0.49058  0.34704  1.0000
  C   C36       1.0  0.00554  0.50942  0.65296  1.0000
  C   C37       1.0  0.07930  0.68800  0.47706  1.0000
  C   C38       1.0  0.92070  0.31200  0.52294  1.0000
  C   C39       1.0  0.04337  0.78781  0.42984  1.0000
  C   C40       1.0  0.95663  0.21219  0.57015  1.0000
  C   C41       1.0  0.53018  0.86125  0.82239  1.0000
  C   C42       1.0  0.46982  0.13875  0.17761  1.0000
  C   C43       1.0  0.44760  0.78979  0.71331  1.0000
  C   C44       1.0  0.55240  0.21020  0.28669  1.0000
  C   C45       1.0  0.51774  0.76103  0.61219  1.0000
  C   C46       1.0  0.48226  0.23897  0.38781  1.0000
  C   C47       1.0  0.61282  0.68202  0.60590  1.0000
  C   C48       1.0  0.38717  0.31798  0.39410  1.0000
  C   C49       1.0  0.68217  0.65620  0.51487  1.0000
  C   C50       1.0  0.31783  0.34380  0.48513  1.0000
  C   C51       1.0  0.65713  0.70930  0.42837  1.0000
  C   C52       1.0  0.34287  0.29069  0.57163  1.0000
  C   C53       1.0  0.56208  0.78878  0.43255  1.0000
  C   C54       1.0  0.43792  0.21122  0.56745  1.0000
  C   C55       1.0  0.49318  0.81375  0.52484  1.0000
  C   C56       1.0  0.50682  0.18625  0.47516  1.0000
  C   C57       1.0  0.53079  0.84314  0.33783  1.0000
  C   C58       1.0  0.46921  0.15686  0.66217  1.0000
  C   C59       1.0  0.63811  0.91319  0.30736  1.0000
  C   C60       1.0  0.36189  0.08681  0.69264  1.0000
  O   O1        1.0  0.16426  0.15544  0.84715  1.0000
  O   O2        1.0  0.83574  0.84456  0.15285  1.0000
  O   O3        1.0  0.31140  0.25864  0.98714  1.0000
  O   O4        1.0  0.68859  0.74136  0.01286  1.0000
  O   O5        1.0  0.09218  0.93275  0.15253  1.0000
  O   O6        1.0  0.90782  0.06725  0.84746  1.0000
  O   O7        1.0  0.22902  0.88653  0.02652  1.0000
  O   O8        1.0  0.77097  0.11347  0.97348  1.0000
  O   O9        1.0  0.84432  0.09493  0.20588  1.0000
  O   O10       1.0  0.15568  0.90507  0.79412  1.0000
  O   O11       1.0  0.03846  0.17073  0.29575  1.0000
  O   O12       1.0  0.96154  0.82927  0.70425  1.0000
  O   O13       1.0  0.03685  0.88874  0.49801  1.0000
  O   O14       1.0  0.96315  0.11126  0.50199  1.0000
  O   O15       1.0  0.01969  0.77266  0.32395  1.0000
  O   O16       1.0  0.98031  0.22734  0.67605  1.0000
  O   O17       1.0  0.47352  0.89635  0.91148  1.0000
  O   O18       1.0  0.52648  0.10365  0.08852  1.0000
  O   O19       1.0  0.64980  0.88229  0.82824  1.0000
  O   O20       1.0  0.35021  0.11771  0.17176  1.0000
  O   O21       1.0  0.60893  0.94133  0.21664  1.0000
  O   O22       1.0  0.39107  0.05867  0.78336  1.0000
  O   O23       1.0  0.74762  0.94031  0.37181  1.0000
  O   O24       1.0  0.25238  0.05969  0.62819  1.0000
  O   O25       1.0  0.21140  0.02014  0.39645  1.0000
  O   O26       1.0  0.78861  0.97986  0.60355  1.0000
  O   O27       1.0  0.89508  0.89471  0.96180  1.0000
  O   O28       1.0  0.10491  0.10529  0.03820  1.0000
