data_image0
_chemical_formula_structural       Cd2H30C24N2O10
_chemical_formula_sum              "Cd2 H30 C24 N2 O10"
_cell_length_a       5.82527
_cell_length_b       9.76489
_cell_length_c       11.8475
_cell_angle_alpha    102.136
_cell_angle_beta     103.761
_cell_angle_gamma    93.0468

_space_group_name_H-M_alt    "P 1"
_space_group_IT_number       1

loop_
  _space_group_symop_operation_xyz
  'x, y, z'

loop_
  _atom_site_type_symbol
  _atom_site_label
  _atom_site_symmetry_multiplicity
  _atom_site_fract_x
  _atom_site_fract_y
  _atom_site_fract_z
  _atom_site_occupancy
  Cd  Cd1       1.0  0.21342  0.59459  0.75448  1.0000
  Cd  Cd2       1.0  0.78657  0.40541  0.24552  1.0000
  H   H1        1.0  0.62258  0.04602  0.93578  1.0000
  H   H2        1.0  0.37745  0.95398  0.06423  1.0000
  H   H3        1.0  0.85746  0.94080  0.94203  1.0000
  H   H4        1.0  0.14255  0.05919  0.05797  1.0000
  H   H5        1.0  0.09202  0.91356  0.79220  1.0000
  H   H6        1.0  0.90799  0.08645  0.20779  1.0000
  H   H7        1.0  0.21528  0.00774  0.63439  1.0000
  H   H8        1.0  0.78472  0.99226  0.36560  1.0000
  H   H9        1.0  0.98736  0.18204  0.54330  1.0000
  H   H10       1.0  0.01263  0.81795  0.45669  1.0000
  H   H11       1.0  0.50790  0.16573  0.76704  1.0000
  H   H12       1.0  0.49211  0.83427  0.23296  1.0000
  H   H13       1.0  0.44994  0.21587  0.50397  1.0000
  H   H14       1.0  0.55003  0.78413  0.49605  1.0000
  H   H15       1.0  0.69495  0.34311  0.54465  1.0000
  H   H16       1.0  0.30502  0.65688  0.45534  1.0000
  H   H17       1.0  0.30523  0.42743  0.97730  1.0000
  H   H18       1.0  0.69477  0.57258  0.02270  1.0000
  H   H19       1.0  0.10271  0.31120  0.85416  1.0000
  H   H20       1.0  0.89728  0.68881  0.14584  1.0000
  H   H21       1.0  0.04905  0.27096  0.04964  1.0000
  H   H22       1.0  0.95095  0.72904  0.95037  1.0000
  H   H23       1.0  0.78989  0.32242  0.96404  1.0000
  H   H24       1.0  0.21011  0.67758  0.03595  1.0000
  H   H25       1.0  0.81420  0.61537  0.55285  1.0000
  H   H26       1.0  0.18580  0.38464  0.44716  1.0000
  H   H27       1.0  0.74136  0.69290  0.67229  1.0000
  H   H28       1.0  0.25863  0.30711  0.32771  1.0000
  H   H29       1.0  0.85104  0.49081  0.83585  1.0000
  H   H30       1.0  0.14896  0.50919  0.16415  1.0000
  C   C1        1.0  0.53341  0.83586  0.82937  1.0000
  C   C2        1.0  0.46659  0.16414  0.17063  1.0000
  C   C3        1.0  0.70545  0.96989  0.87970  1.0000
  C   C4        1.0  0.29457  0.03011  0.12030  1.0000
  C   C5        1.0  0.78879  0.03171  0.78847  1.0000
  C   C6        1.0  0.21122  0.96829  0.21154  1.0000
  C   C7        1.0  0.99009  0.98905  0.75168  1.0000
  C   C8        1.0  0.00992  0.01095  0.24831  1.0000
  C   C9        1.0  0.06030  0.04286  0.66365  1.0000
  C   C10       1.0  0.93970  0.95714  0.33635  1.0000
  C   C11       1.0  0.93145  0.14031  0.61208  1.0000
  C   C12       1.0  0.06855  0.85970  0.38792  1.0000
  C   C13       1.0  0.72956  0.18483  0.64761  1.0000
  C   C14       1.0  0.27043  0.81516  0.35240  1.0000
  C   C15       1.0  0.66201  0.13055  0.73678  1.0000
  C   C16       1.0  0.33798  0.86944  0.26322  1.0000
  C   C17       1.0  0.58239  0.28025  0.58228  1.0000
  C   C18       1.0  0.41760  0.71974  0.41773  1.0000
  C   C19       1.0  0.45486  0.38495  0.65191  1.0000
  C   C20       1.0  0.54513  0.61505  0.34809  1.0000
  C   C21       1.0  0.11612  0.39987  0.93052  1.0000
  C   C22       1.0  0.88388  0.60013  0.06948  1.0000
  C   C23       1.0  0.97521  0.35866  0.01379  1.0000
  C   C24       1.0  0.02479  0.64135  0.98621  1.0000
  N   N1        1.0  0.02526  0.52225  0.88524  1.0000
  N   N2        1.0  0.97473  0.47775  0.11476  1.0000
  O   O1        1.0  0.51098  0.76403  0.72314  1.0000
  O   O2        1.0  0.48901  0.23598  0.27687  1.0000
  O   O3        1.0  0.41503  0.79771  0.89749  1.0000
  O   O4        1.0  0.58498  0.20228  0.10252  1.0000
  O   O5        1.0  0.52926  0.43093  0.76398  1.0000
  O   O6        1.0  0.47073  0.56908  0.23603  1.0000
  O   O7        1.0  0.27002  0.42947  0.59245  1.0000
  O   O8        1.0  0.72998  0.57054  0.40755  1.0000
  O   O9        1.0  0.86275  0.63825  0.64253  1.0000
  O   O10       1.0  0.13725  0.36175  0.35747  1.0000
