data_image0
_chemical_formula_structural       Cd2H16C20I4N4Cl4
_chemical_formula_sum              "Cd2 H16 C20 I4 N4 Cl4"
_cell_length_a       4.17086
_cell_length_b       12.3802
_cell_length_c       14.5177
_cell_angle_alpha    90.0006
_cell_angle_beta     90
_cell_angle_gamma    85.4812

_space_group_name_H-M_alt    "P 1"
_space_group_IT_number       1

loop_
  _space_group_symop_operation_xyz
  'x, y, z'

loop_
  _atom_site_type_symbol
  _atom_site_label
  _atom_site_symmetry_multiplicity
  _atom_site_fract_x
  _atom_site_fract_y
  _atom_site_fract_z
  _atom_site_occupancy
  Cd  Cd1       1.0  0.99999  1.00000  1.00000  1.0000
  Cd  Cd2       1.0  1.00000  0.50000  0.50000  1.0000
  H   H1        1.0  0.77917  0.89765  0.80301  1.0000
  H   H2        1.0  0.77918  0.39764  0.69699  1.0000
  H   H3        1.0  0.22081  0.10235  0.19698  1.0000
  H   H4        1.0  0.22085  0.60236  0.30302  1.0000
  H   H5        1.0  0.95645  0.10477  0.57150  1.0000
  H   H6        1.0  0.95649  0.60476  0.92850  1.0000
  H   H7        1.0  0.04357  0.89523  0.42849  1.0000
  H   H8        1.0  0.04351  0.39525  0.07150  1.0000
  H   H9        1.0  0.17506  0.23401  0.68347  1.0000
  H   H10       1.0  0.17508  0.73400  0.81652  1.0000
  H   H11       1.0  0.82497  0.76598  0.31652  1.0000
  H   H12       1.0  0.82491  0.26601  0.18347  1.0000
  H   H13       1.0  0.17897  0.18835  0.85234  1.0000
  H   H14       1.0  0.17896  0.68833  0.64766  1.0000
  H   H15       1.0  0.82104  0.81165  0.14766  1.0000
  H   H16       1.0  0.82102  0.31167  0.35234  1.0000
  C   C1        1.0  0.86633  0.97129  0.77424  1.0000
  C   C2        1.0  0.86636  0.47128  0.72576  1.0000
  C   C3        1.0  0.13366  0.02871  0.22576  1.0000
  C   C4        1.0  0.13365  0.52872  0.27424  1.0000
  C   C5        1.0  0.85212  0.99195  0.67974  1.0000
  C   C6        1.0  0.85215  0.49194  0.82026  1.0000
  C   C7        1.0  0.14787  0.00805  0.32025  1.0000
  C   C8        1.0  0.14786  0.50807  0.17975  1.0000
  C   C9        1.0  0.96367  0.08709  0.64507  1.0000
  C   C10       1.0  0.96370  0.58708  0.85493  1.0000
  C   C11       1.0  0.03635  0.91291  0.35492  1.0000
  C   C12       1.0  0.03630  0.41293  0.14507  1.0000
  C   C13       1.0  0.08300  0.15909  0.70781  1.0000
  C   C14       1.0  0.08303  0.65909  0.79219  1.0000
  C   C15       1.0  0.91701  0.84090  0.29219  1.0000
  C   C16       1.0  0.91696  0.34092  0.20782  1.0000
  C   C17       1.0  0.08702  0.13400  0.80132  1.0000
  C   C18       1.0  0.08702  0.63399  0.69867  1.0000
  C   C19       1.0  0.91298  0.86600  0.19867  1.0000
  C   C20       1.0  0.91296  0.36602  0.30133  1.0000
  I   I1        1.0  0.47261  0.16913  0.02850  1.0000
  I   I2        1.0  0.47261  0.66913  0.47150  1.0000
  I   I3        1.0  0.52738  0.83087  0.97149  1.0000
  I   I4        1.0  0.52739  0.33087  0.52850  1.0000
  N   N1        1.0  0.98197  0.04132  0.83381  1.0000
  N   N2        1.0  0.98197  0.54131  0.66619  1.0000
  N   N3        1.0  0.01803  0.95868  0.16618  1.0000
  N   N4        1.0  0.01803  0.45868  0.33381  1.0000
  Cl  Cl1       1.0  0.69738  0.89787  0.60742  1.0000
  Cl  Cl2       1.0  0.69742  0.39785  0.89258  1.0000
  Cl  Cl3       1.0  0.30261  0.10214  0.39257  1.0000
  Cl  Cl4       1.0  0.30259  0.60215  0.10743  1.0000
