data_image0
_chemical_formula_structural       Co2H14C14N14O4
_chemical_formula_sum              "Co2 H14 C14 N14 O4"
_cell_length_a       6.18229
_cell_length_b       8.34297
_cell_length_c       10.6485
_cell_angle_alpha    107.595
_cell_angle_beta     103.619
_cell_angle_gamma    95.6382

_space_group_name_H-M_alt    "P 1"
_space_group_IT_number       1

loop_
  _space_group_symop_operation_xyz
  'x, y, z'

loop_
  _atom_site_type_symbol
  _atom_site_label
  _atom_site_symmetry_multiplicity
  _atom_site_fract_x
  _atom_site_fract_y
  _atom_site_fract_z
  _atom_site_occupancy
  Co  Co1       1.0  0.00000  1.00000  0.00000  1.0000
  Co  Co2       1.0  0.50000  1.00000  1.00000  1.0000
  H   H1        1.0  0.72859  0.60234  0.12743  1.0000
  H   H2        1.0  0.27141  0.39766  0.87257  1.0000
  H   H3        1.0  0.86082  0.42397  0.13718  1.0000
  H   H4        1.0  0.13919  0.57603  0.86282  1.0000
  H   H5        1.0  0.02220  0.61189  0.13374  1.0000
  H   H6        1.0  0.97781  0.38812  0.86626  1.0000
  H   H7        1.0  0.65290  0.74454  0.31649  1.0000
  H   H8        1.0  0.34710  0.25545  0.68351  1.0000
  H   H9        1.0  0.75031  0.87515  0.57078  1.0000
  H   H10       1.0  0.24969  0.12485  0.42922  1.0000
  H   H11       1.0  0.37102  0.67309  0.59607  1.0000
  H   H12       1.0  0.62898  0.32691  0.40392  1.0000
  H   H13       1.0  0.24845  0.54561  0.33706  1.0000
  H   H14       1.0  0.75155  0.45439  0.66294  1.0000
  C   C1        1.0  0.88574  0.56406  0.16978  1.0000
  C   C2        1.0  0.11427  0.43594  0.83022  1.0000
  C   C3        1.0  0.80788  0.72915  0.38225  1.0000
  C   C4        1.0  0.19211  0.27084  0.61775  1.0000
  C   C5        1.0  0.86275  0.79985  0.52348  1.0000
  C   C6        1.0  0.13725  0.20015  0.47652  1.0000
  C   C7        1.0  0.06671  0.77944  0.60351  1.0000
  C   C8        1.0  0.93329  0.22056  0.39649  1.0000
  C   C9        1.0  0.21004  0.68831  0.53668  1.0000
  C   C10       1.0  0.78996  0.31170  0.46332  1.0000
  C   C11       1.0  0.14614  0.61808  0.39565  1.0000
  C   C12       1.0  0.85386  0.38193  0.60435  1.0000
  C   C13       1.0  0.13269  0.85473  0.75566  1.0000
  C   C14       1.0  0.86731  0.14527  0.24434  1.0000
  N   N1        1.0  0.36591  0.87997  0.29990  1.0000
  N   N2        1.0  0.63410  0.12003  0.70010  1.0000
  N   N3        1.0  0.31064  0.86224  0.18250  1.0000
  N   N4        1.0  0.68936  0.13776  0.81749  1.0000
  N   N5        1.0  0.25381  0.84340  0.06196  1.0000
  N   N6        1.0  0.74619  0.15661  0.93804  1.0000
  N   N7        1.0  0.27379  0.15228  0.01072  1.0000
  N   N8        1.0  0.72620  0.84772  0.98927  1.0000
  N   N9        1.0  0.32911  0.29670  0.09218  1.0000
  N   N10       1.0  0.67089  0.70329  0.90782  1.0000
  N   N11       1.0  0.38282  0.43770  0.16619  1.0000
  N   N12       1.0  0.61718  0.56230  0.83381  1.0000
  N   N13       1.0  0.94670  0.63823  0.32033  1.0000
  N   N14       1.0  0.05330  0.36177  0.67967  1.0000
  O   O1        1.0  0.34446  0.87826  0.81452  1.0000
  O   O2        1.0  0.65554  0.12174  0.18548  1.0000
  O   O3        1.0  0.97223  0.88594  0.81109  1.0000
  O   O4        1.0  0.02777  0.11407  0.18891  1.0000
