data_image0
_chemical_formula_structural       Cd2H16C20N4Cl8
_chemical_formula_sum              "Cd2 H16 C20 N4 Cl8"
_cell_length_a       3.8456
_cell_length_b       11.58
_cell_length_c       14.2381
_cell_angle_alpha    89.9995
_cell_angle_beta     90
_cell_angle_gamma    89.3865

_space_group_name_H-M_alt    "P 1"
_space_group_IT_number       1

loop_
  _space_group_symop_operation_xyz
  'x, y, z'

loop_
  _atom_site_type_symbol
  _atom_site_label
  _atom_site_symmetry_multiplicity
  _atom_site_fract_x
  _atom_site_fract_y
  _atom_site_fract_z
  _atom_site_occupancy
  Cd  Cd1       1.0  0.00001  0.00000  0.00000  1.0000
  Cd  Cd2       1.0  1.00000  0.50000  0.50000  1.0000
  H   H1        1.0  0.73739  0.89531  0.80285  1.0000
  H   H2        1.0  0.73738  0.39531  0.69714  1.0000
  H   H3        1.0  0.26262  0.10469  0.19716  1.0000
  H   H4        1.0  0.26265  0.60470  0.30284  1.0000
  H   H5        1.0  0.97858  0.12310  0.57117  1.0000
  H   H6        1.0  0.97858  0.62310  0.92884  1.0000
  H   H7        1.0  0.02140  0.87689  0.42884  1.0000
  H   H8        1.0  0.02141  0.37689  0.07117  1.0000
  H   H9        1.0  0.23852  0.25729  0.68752  1.0000
  H   H10       1.0  0.23851  0.75730  0.81248  1.0000
  H   H11       1.0  0.76149  0.74270  0.31248  1.0000
  H   H12       1.0  0.76150  0.24270  0.18752  1.0000
  H   H13       1.0  0.23674  0.20232  0.85959  1.0000
  H   H14       1.0  0.23674  0.70233  0.64041  1.0000
  H   H15       1.0  0.76325  0.79768  0.14041  1.0000
  H   H16       1.0  0.76327  0.29768  0.35959  1.0000
  C   C1        1.0  0.84864  0.97417  0.77447  1.0000
  C   C2        1.0  0.84863  0.47418  0.72553  1.0000
  C   C3        1.0  0.15138  0.02582  0.22553  1.0000
  C   C4        1.0  0.15139  0.52581  0.27446  1.0000
  C   C5        1.0  0.84359  0.99846  0.67852  1.0000
  C   C6        1.0  0.84358  0.49846  0.82148  1.0000
  C   C7        1.0  0.15640  0.00154  0.32149  1.0000
  C   C8        1.0  0.15644  0.50154  0.17850  1.0000
  C   C9        1.0  0.98088  0.10188  0.64569  1.0000
  C   C10       1.0  0.98086  0.60188  0.85431  1.0000
  C   C11       1.0  0.01912  0.89812  0.35432  1.0000
  C   C12       1.0  0.01914  0.39811  0.14568  1.0000
  C   C13       1.0  0.12376  0.17688  0.71130  1.0000
  C   C14       1.0  0.12376  0.67688  0.78870  1.0000
  C   C15       1.0  0.87623  0.82312  0.28870  1.0000
  C   C16       1.0  0.87624  0.32312  0.21131  1.0000
  C   C17       1.0  0.12337  0.14707  0.80605  1.0000
  C   C18       1.0  0.12337  0.64707  0.69395  1.0000
  C   C19       1.0  0.87662  0.85293  0.19395  1.0000
  C   C20       1.0  0.87663  0.35293  0.30606  1.0000
  N   N1        1.0  0.98702  0.04750  0.83676  1.0000
  N   N2        1.0  0.98702  0.54750  0.66324  1.0000
  N   N3        1.0  0.01298  0.95250  0.16325  1.0000
  N   N4        1.0  0.01299  0.45251  0.33676  1.0000
  Cl  Cl1       1.0  0.49043  0.15590  0.02903  1.0000
  Cl  Cl2       1.0  0.49043  0.65590  0.47097  1.0000
  Cl  Cl3       1.0  0.50957  0.84411  0.97097  1.0000
  Cl  Cl4       1.0  0.50957  0.34411  0.52903  1.0000
  Cl  Cl5       1.0  0.67103  0.89843  0.60193  1.0000
  Cl  Cl6       1.0  0.67103  0.39843  0.89806  1.0000
  Cl  Cl7       1.0  0.32895  0.10157  0.39807  1.0000
  Cl  Cl8       1.0  0.32895  0.60156  0.10192  1.0000
