data_image0
_chemical_formula_structural       Cd2H16C20Br4N4Cl4
_chemical_formula_sum              "Cd2 H16 C20 Br4 N4 Cl4"
_cell_length_a       3.89275
_cell_length_b       11.6656
_cell_length_c       14.3967
_cell_angle_alpha    90.0004
_cell_angle_beta     90.0006
_cell_angle_gamma    88.8566

_space_group_name_H-M_alt    "P 1"
_space_group_IT_number       1

loop_
  _space_group_symop_operation_xyz
  'x, y, z'

loop_
  _atom_site_type_symbol
  _atom_site_label
  _atom_site_symmetry_multiplicity
  _atom_site_fract_x
  _atom_site_fract_y
  _atom_site_fract_z
  _atom_site_occupancy
  Cd  Cd1       1.0  0.00000  1.00000  0.00000  1.0000
  Cd  Cd2       1.0  0.99999  0.50000  0.50000  1.0000
  H   H1        1.0  0.73937  0.89630  0.80519  1.0000
  H   H2        1.0  0.73935  0.39630  0.69481  1.0000
  H   H3        1.0  0.26063  0.10370  0.19481  1.0000
  H   H4        1.0  0.26064  0.60370  0.30519  1.0000
  H   H5        1.0  0.97926  0.12288  0.57651  1.0000
  H   H6        1.0  0.97927  0.62287  0.92350  1.0000
  H   H7        1.0  0.02074  0.87712  0.42349  1.0000
  H   H8        1.0  0.02074  0.37712  0.07651  1.0000
  H   H9        1.0  0.23950  0.25421  0.69220  1.0000
  H   H10       1.0  0.23952  0.75420  0.80781  1.0000
  H   H11       1.0  0.76049  0.74580  0.30780  1.0000
  H   H12       1.0  0.76049  0.24579  0.19220  1.0000
  H   H13       1.0  0.24050  0.19796  0.86169  1.0000
  H   H14       1.0  0.24052  0.69796  0.63832  1.0000
  H   H15       1.0  0.75948  0.80204  0.13831  1.0000
  H   H16       1.0  0.75949  0.30204  0.36169  1.0000
  C   C1        1.0  0.85066  0.97398  0.77700  1.0000
  C   C2        1.0  0.85063  0.47398  0.72300  1.0000
  C   C3        1.0  0.14933  0.02602  0.22300  1.0000
  C   C4        1.0  0.14937  0.52602  0.27700  1.0000
  C   C5        1.0  0.84666  0.99882  0.68231  1.0000
  C   C6        1.0  0.84663  0.49882  0.81769  1.0000
  C   C7        1.0  0.15334  0.00118  0.31769  1.0000
  C   C8        1.0  0.15337  0.50119  0.18231  1.0000
  C   C9        1.0  0.98202  0.10119  0.65011  1.0000
  C   C10       1.0  0.98199  0.60118  0.84989  1.0000
  C   C11       1.0  0.01798  0.89882  0.34988  1.0000
  C   C12       1.0  0.01803  0.39882  0.15011  1.0000
  C   C13       1.0  0.12537  0.17459  0.71519  1.0000
  C   C14       1.0  0.12538  0.67458  0.78482  1.0000
  C   C15       1.0  0.87464  0.82541  0.28481  1.0000
  C   C16       1.0  0.87464  0.32542  0.21518  1.0000
  C   C17       1.0  0.12609  0.14414  0.80869  1.0000
  C   C18       1.0  0.12607  0.64414  0.69131  1.0000
  C   C19       1.0  0.87388  0.85587  0.19131  1.0000
  C   C20       1.0  0.87392  0.35586  0.30869  1.0000
  Br  Br1       1.0  0.66598  0.88972  0.59852  1.0000
  Br  Br2       1.0  0.66600  0.38972  0.90148  1.0000
  Br  Br3       1.0  0.33401  0.11028  0.40148  1.0000
  Br  Br4       1.0  0.33401  0.61028  0.09852  1.0000
  N   N1        1.0  0.98911  0.04595  0.83877  1.0000
  N   N2        1.0  0.98910  0.54595  0.66123  1.0000
  N   N3        1.0  0.01088  0.95405  0.16122  1.0000
  N   N4        1.0  0.01089  0.45405  0.33877  1.0000
  Cl  Cl1       1.0  0.48693  0.15411  0.02966  1.0000
  Cl  Cl2       1.0  0.48693  0.65411  0.47034  1.0000
  Cl  Cl3       1.0  0.51307  0.84589  0.97034  1.0000
  Cl  Cl4       1.0  0.51306  0.34590  0.52966  1.0000
