data_image0
_chemical_formula_structural       Cd2H28C24Br4N4
_chemical_formula_sum              "Cd2 H28 C24 Br4 N4"
_cell_length_a       3.99617
_cell_length_b       11.4721
_cell_length_c       14.8502
_cell_angle_alpha    90.0004
_cell_angle_beta     89.9999
_cell_angle_gamma    88.0326

_space_group_name_H-M_alt    "P 1"
_space_group_IT_number       1

loop_
  _space_group_symop_operation_xyz
  'x, y, z'

loop_
  _atom_site_type_symbol
  _atom_site_label
  _atom_site_symmetry_multiplicity
  _atom_site_fract_x
  _atom_site_fract_y
  _atom_site_fract_z
  _atom_site_occupancy
  Cd  Cd1       1.0  0.00001  0.00002  0.00001  1.0000
  Cd  Cd2       1.0  0.00001  0.50000  0.50000  1.0000
  H   H1        1.0  0.74632  0.90290  0.80624  1.0000
  H   H2        1.0  0.74634  0.40290  0.69377  1.0000
  H   H3        1.0  0.25367  0.09709  0.19375  1.0000
  H   H4        1.0  0.25366  0.59710  0.30623  1.0000
  H   H5        1.0  0.01567  0.13600  0.59132  1.0000
  H   H6        1.0  0.01564  0.63602  0.90868  1.0000
  H   H7        1.0  0.98441  0.86399  0.40869  1.0000
  H   H8        1.0  0.98431  0.36399  0.09131  1.0000
  H   H9        1.0  0.26329  0.26252  0.70669  1.0000
  H   H10       1.0  0.26328  0.76254  0.79332  1.0000
  H   H11       1.0  0.73679  0.73746  0.29332  1.0000
  H   H12       1.0  0.73673  0.23747  0.20668  1.0000
  H   H13       1.0  0.23890  0.20217  0.87054  1.0000
  H   H14       1.0  0.23890  0.70216  0.62947  1.0000
  H   H15       1.0  0.76108  0.79782  0.12948  1.0000
  H   H16       1.0  0.76109  0.29783  0.37053  1.0000
  H   H17       1.0  0.90715  0.88627  0.57677  1.0000
  H   H18       1.0  0.90714  0.38626  0.92323  1.0000
  H   H19       1.0  0.09286  0.11374  0.42322  1.0000
  H   H20       1.0  0.09283  0.61373  0.07677  1.0000
  H   H21       1.0  0.53057  0.97188  0.57811  1.0000
  H   H22       1.0  0.53055  0.47189  0.92189  1.0000
  H   H23       1.0  0.46945  0.02812  0.42188  1.0000
  H   H24       1.0  0.46942  0.52812  0.07811  1.0000
  H   H25       1.0  0.58860  0.85363  0.65453  1.0000
  H   H26       1.0  0.58860  0.35363  0.84548  1.0000
  H   H27       1.0  0.41140  0.14637  0.34547  1.0000
  H   H28       1.0  0.41137  0.64636  0.15452  1.0000
  C   C1        1.0  0.86000  0.98155  0.78065  1.0000
  C   C2        1.0  0.86003  0.48156  0.71935  1.0000
  C   C3        1.0  0.14000  0.01844  0.21935  1.0000
  C   C4        1.0  0.13996  0.51844  0.28065  1.0000
  C   C5        1.0  0.86180  0.00673  0.68849  1.0000
  C   C6        1.0  0.86183  0.50673  0.81151  1.0000
  C   C7        1.0  0.13817  0.99327  0.31151  1.0000
  C   C8        1.0  0.13817  0.49326  0.18848  1.0000
  C   C9        1.0  0.00865  0.11043  0.66205  1.0000
  C   C10       1.0  0.00862  0.61043  0.83796  1.0000
  C   C11       1.0  0.99139  0.88957  0.33796  1.0000
  C   C12       1.0  0.99136  0.38957  0.16204  1.0000
  C   C13       1.0  0.14504  0.18244  0.72683  1.0000
  C   C14       1.0  0.14505  0.68245  0.77317  1.0000
  C   C15       1.0  0.85498  0.81754  0.27317  1.0000
  C   C16       1.0  0.85495  0.31755  0.22682  1.0000
  C   C17       1.0  0.13178  0.15002  0.81700  1.0000
  C   C18       1.0  0.13181  0.65001  0.68301  1.0000
  C   C19       1.0  0.86821  0.84998  0.18300  1.0000
  C   C20       1.0  0.86821  0.34998  0.31699  1.0000
  C   C21       1.0  0.71403  0.92540  0.62132  1.0000
  C   C22       1.0  0.71405  0.42541  0.87868  1.0000
  C   C23       1.0  0.28596  0.07460  0.37867  1.0000
  C   C24       1.0  0.28594  0.57459  0.12132  1.0000
  Br  Br1       1.0  0.48632  0.16861  0.03236  1.0000
  Br  Br2       1.0  0.48630  0.66860  0.46765  1.0000
  Br  Br3       1.0  0.51364  0.83143  0.96766  1.0000
  Br  Br4       1.0  0.51372  0.33141  0.53235  1.0000
  N   N1        1.0  0.99176  0.05087  0.84347  1.0000
  N   N2        1.0  0.99179  0.55088  0.65654  1.0000
  N   N3        1.0  0.00823  0.94912  0.15654  1.0000
  N   N4        1.0  0.00824  0.44912  0.34347  1.0000
