data_image0
_chemical_formula_structural       Cd2H16C20Br8N4
_chemical_formula_sum              "Cd2 H16 C20 Br8 N4"
_cell_length_a       4.00175
_cell_length_b       11.6938
_cell_length_c       14.6602
_cell_angle_alpha    90.0002
_cell_angle_beta     90.0011
_cell_angle_gamma    87.3397

_space_group_name_H-M_alt    "P 1"
_space_group_IT_number       1

loop_
  _space_group_symop_operation_xyz
  'x, y, z'

loop_
  _atom_site_type_symbol
  _atom_site_label
  _atom_site_symmetry_multiplicity
  _atom_site_fract_x
  _atom_site_fract_y
  _atom_site_fract_z
  _atom_site_occupancy
  Cd  Cd1       1.0  0.00000  1.00000  0.00000  1.0000
  Cd  Cd2       1.0  0.00000  0.50000  0.50000  1.0000
  H   H1        1.0  0.74418  0.90010  0.80617  1.0000
  H   H2        1.0  0.74421  0.40011  0.69384  1.0000
  H   H3        1.0  0.25581  0.09989  0.19384  1.0000
  H   H4        1.0  0.25580  0.59989  0.30617  1.0000
  H   H5        1.0  0.99245  0.12018  0.58081  1.0000
  H   H6        1.0  0.99257  0.62021  0.91919  1.0000
  H   H7        1.0  0.00748  0.87981  0.41919  1.0000
  H   H8        1.0  0.00752  0.37981  0.08081  1.0000
  H   H9        1.0  0.24403  0.24994  0.69450  1.0000
  H   H10       1.0  0.24407  0.74997  0.80548  1.0000
  H   H11       1.0  0.75596  0.75005  0.30549  1.0000
  H   H12       1.0  0.75594  0.25005  0.19451  1.0000
  H   H13       1.0  0.23528  0.19656  0.86074  1.0000
  H   H14       1.0  0.23526  0.69657  0.63925  1.0000
  H   H15       1.0  0.76472  0.80343  0.13926  1.0000
  H   H16       1.0  0.76471  0.30343  0.36075  1.0000
  C   C1        1.0  0.85417  0.97640  0.77862  1.0000
  C   C2        1.0  0.85423  0.47641  0.72138  1.0000
  C   C3        1.0  0.14581  0.02360  0.22138  1.0000
  C   C4        1.0  0.14581  0.52360  0.27862  1.0000
  C   C5        1.0  0.85301  0.00017  0.68546  1.0000
  C   C6        1.0  0.85310  0.50018  0.81454  1.0000
  C   C7        1.0  0.14693  0.99982  0.31454  1.0000
  C   C8        1.0  0.14696  0.49982  0.18547  1.0000
  C   C9        1.0  0.99100  0.09974  0.65329  1.0000
  C   C10       1.0  0.99109  0.59977  0.84670  1.0000
  C   C11       1.0  0.00896  0.90025  0.34670  1.0000
  C   C12       1.0  0.00898  0.40025  0.15330  1.0000
  C   C13       1.0  0.12903  0.17218  0.71709  1.0000
  C   C14       1.0  0.12907  0.67221  0.78290  1.0000
  C   C15       1.0  0.87094  0.82780  0.28290  1.0000
  C   C16       1.0  0.87095  0.32780  0.21710  1.0000
  C   C17       1.0  0.12450  0.14310  0.80914  1.0000
  C   C18       1.0  0.12449  0.64312  0.69085  1.0000
  C   C19       1.0  0.87550  0.85689  0.19086  1.0000
  C   C20       1.0  0.87550  0.35689  0.30915  1.0000
  Br  Br1       1.0  0.47652  0.16417  0.03080  1.0000
  Br  Br2       1.0  0.47650  0.66417  0.46919  1.0000
  Br  Br3       1.0  0.52348  0.83583  0.96920  1.0000
  Br  Br4       1.0  0.52350  0.33583  0.53081  1.0000
  Br  Br5       1.0  0.67311  0.89340  0.60334  1.0000
  Br  Br6       1.0  0.67326  0.39341  0.89667  1.0000
  Br  Br7       1.0  0.32679  0.10660  0.39667  1.0000
  Br  Br8       1.0  0.32684  0.60659  0.10334  1.0000
  N   N1        1.0  0.98904  0.04702  0.83933  1.0000
  N   N2        1.0  0.98903  0.54703  0.66066  1.0000
  N   N3        1.0  0.01096  0.95297  0.16066  1.0000
  N   N4        1.0  0.01095  0.45298  0.33934  1.0000
