data_image0
_chemical_formula_structural       Cd2H16C20I4Br4N4
_chemical_formula_sum              "Cd2 H16 C20 I4 Br4 N4"
_cell_length_a       4.16676
_cell_length_b       12.3207
_cell_length_c       14.7829
_cell_angle_alpha    90.0005
_cell_angle_beta     89.9994
_cell_angle_gamma    86.2636

_space_group_name_H-M_alt    "P 1"
_space_group_IT_number       1

loop_
  _space_group_symop_operation_xyz
  'x, y, z'

loop_
  _atom_site_type_symbol
  _atom_site_label
  _atom_site_symmetry_multiplicity
  _atom_site_fract_x
  _atom_site_fract_y
  _atom_site_fract_z
  _atom_site_occupancy
  Cd  Cd1       1.0  0.99999  0.00000  0.00000  1.0000
  Cd  Cd2       1.0  1.00000  0.50000  0.50000  1.0000
  H   H1        1.0  0.77814  0.90010  0.80551  1.0000
  H   H2        1.0  0.77812  0.40009  0.69449  1.0000
  H   H3        1.0  0.22189  0.09991  0.19450  1.0000
  H   H4        1.0  0.22184  0.59990  0.30550  1.0000
  H   H5        1.0  0.96559  0.11187  0.58053  1.0000
  H   H6        1.0  0.96558  0.61185  0.91947  1.0000
  H   H7        1.0  0.03444  0.88813  0.41947  1.0000
  H   H8        1.0  0.03442  0.38814  0.08052  1.0000
  H   H9        1.0  0.18750  0.23997  0.69221  1.0000
  H   H10       1.0  0.18748  0.73996  0.80780  1.0000
  H   H11       1.0  0.81250  0.76004  0.30779  1.0000
  H   H12       1.0  0.81253  0.26003  0.19220  1.0000
  H   H13       1.0  0.18931  0.19137  0.85727  1.0000
  H   H14       1.0  0.18928  0.69137  0.64273  1.0000
  H   H15       1.0  0.81069  0.80865  0.14273  1.0000
  H   H16       1.0  0.81072  0.30862  0.35726  1.0000
  C   C1        1.0  0.86775  0.97457  0.77791  1.0000
  C   C2        1.0  0.86772  0.47456  0.72208  1.0000
  C   C3        1.0  0.13228  0.02544  0.22210  1.0000
  C   C4        1.0  0.13225  0.52544  0.27791  1.0000
  C   C5        1.0  0.85550  0.99695  0.68545  1.0000
  C   C6        1.0  0.85545  0.49694  0.81455  1.0000
  C   C7        1.0  0.14454  0.00305  0.31456  1.0000
  C   C8        1.0  0.14451  0.50305  0.18544  1.0000
  C   C9        1.0  0.97049  0.09299  0.65256  1.0000
  C   C10       1.0  0.97047  0.59298  0.84744  1.0000
  C   C11       1.0  0.02954  0.90702  0.34744  1.0000
  C   C12       1.0  0.02953  0.40702  0.15255  1.0000
  C   C13       1.0  0.09239  0.16434  0.71511  1.0000
  C   C14       1.0  0.09236  0.66432  0.78490  1.0000
  C   C15       1.0  0.90762  0.83567  0.28490  1.0000
  C   C16       1.0  0.90763  0.33566  0.21510  1.0000
  C   C17       1.0  0.09522  0.13758  0.80661  1.0000
  C   C18       1.0  0.09519  0.63757  0.69340  1.0000
  C   C19       1.0  0.90478  0.86243  0.19340  1.0000
  C   C20       1.0  0.90479  0.36242  0.30660  1.0000
  I   I1        1.0  0.47798  0.16969  0.03088  1.0000
  I   I2        1.0  0.47799  0.66970  0.46913  1.0000
  I   I3        1.0  0.52200  0.83031  0.96912  1.0000
  I   I4        1.0  0.52201  0.33031  0.53087  1.0000
  Br  Br1       1.0  0.68591  0.89335  0.60584  1.0000
  Br  Br2       1.0  0.68586  0.39334  0.89416  1.0000
  Br  Br3       1.0  0.31412  0.10665  0.39417  1.0000
  Br  Br4       1.0  0.31409  0.60666  0.10583  1.0000
  N   N1        1.0  0.98566  0.04409  0.83741  1.0000
  N   N2        1.0  0.98564  0.54409  0.66259  1.0000
  N   N3        1.0  0.01436  0.95592  0.16260  1.0000
  N   N4        1.0  0.01434  0.45590  0.33740  1.0000
