data_image0
_chemical_formula_structural       Cd2H16C20N4Cl4
_chemical_formula_sum              "Cd2 H16 C20 N4 Cl4"
_cell_length_a       3.77671
_cell_length_b       11.8
_cell_length_c       11.8635
_cell_angle_alpha    89.9999
_cell_angle_beta     90.0001
_cell_angle_gamma    90.0001

_space_group_name_H-M_alt    "P 1"
_space_group_IT_number       1

loop_
  _space_group_symop_operation_xyz
  'x, y, z'

loop_
  _atom_site_type_symbol
  _atom_site_label
  _atom_site_symmetry_multiplicity
  _atom_site_fract_x
  _atom_site_fract_y
  _atom_site_fract_z
  _atom_site_occupancy
  Cd  Cd1       1.0  0.50000  0.25000  0.25000  1.0000
  Cd  Cd2       1.0  0.50000  0.75000  0.75000  1.0000
  H   H1        1.0  0.68393  0.04273  0.08593  1.0000
  H   H2        1.0  0.31607  0.54273  0.58593  1.0000
  H   H3        1.0  0.68392  0.54273  0.91407  1.0000
  H   H4        1.0  0.68394  0.95727  0.58593  1.0000
  H   H5        1.0  0.31609  0.95727  0.91407  1.0000
  H   H6        1.0  0.68392  0.45727  0.41407  1.0000
  H   H7        1.0  0.31607  0.45727  0.08593  1.0000
  H   H8        1.0  0.31608  0.04273  0.41407  1.0000
  H   H9        1.0  0.68558  0.83131  0.07701  1.0000
  H   H10       1.0  0.31442  0.33131  0.57701  1.0000
  H   H11       1.0  0.68557  0.33131  0.92299  1.0000
  H   H12       1.0  0.68558  0.16870  0.57701  1.0000
  H   H13       1.0  0.31442  0.16869  0.92299  1.0000
  H   H14       1.0  0.68557  0.66869  0.42299  1.0000
  H   H15       1.0  0.31441  0.66869  0.07702  1.0000
  H   H16       1.0  0.31442  0.83131  0.42299  1.0000
  C   C1        1.0  0.59913  0.99184  0.15786  1.0000
  C   C2        1.0  0.40087  0.49184  0.65786  1.0000
  C   C3        1.0  0.59912  0.49184  0.84214  1.0000
  C   C4        1.0  0.59913  0.00817  0.65786  1.0000
  C   C5        1.0  0.40089  0.00816  0.84214  1.0000
  C   C6        1.0  0.59912  0.50816  0.34214  1.0000
  C   C7        1.0  0.40087  0.50816  0.15786  1.0000
  C   C8        1.0  0.40088  0.99184  0.34214  1.0000
  C   C9        1.0  0.59996  0.87408  0.15387  1.0000
  C   C10       1.0  0.40004  0.37408  0.65387  1.0000
  C   C11       1.0  0.59993  0.37408  0.84613  1.0000
  C   C12       1.0  0.59995  0.12592  0.65387  1.0000
  C   C13       1.0  0.40006  0.12592  0.84613  1.0000
  C   C14       1.0  0.59995  0.62592  0.34613  1.0000
  C   C15       1.0  0.40005  0.62592  0.15387  1.0000
  C   C16       1.0  0.40006  0.87408  0.34613  1.0000
  C   C17       1.0  0.50001  0.81262  0.25000  1.0000
  C   C18       1.0  0.49999  0.31262  0.75000  1.0000
  C   C19       1.0  0.49999  0.18738  0.75000  1.0000
  C   C20       1.0  0.50001  0.68738  0.25001  1.0000
  N   N1        1.0  0.50000  0.05011  0.25000  1.0000
  N   N2        1.0  0.49999  0.55011  0.75000  1.0000
  N   N3        1.0  0.50001  0.94989  0.75000  1.0000
  N   N4        1.0  0.50000  0.44989  0.25000  1.0000
  Cl  Cl1       1.0  1.00000  0.25000  0.09179  1.0000
  Cl  Cl2       1.0  0.00000  0.75000  0.59179  1.0000
  Cl  Cl3       1.0  0.00000  0.75000  0.90821  1.0000
  Cl  Cl4       1.0  1.00000  0.25000  0.40821  1.0000
