data_image0
_chemical_formula_structural       Cd2H16C20Br4N4
_chemical_formula_sum              "Cd2 H16 C20 Br4 N4"
_cell_length_a       3.90139
_cell_length_b       11.829
_cell_length_c       12.4233
_cell_angle_alpha    90.0003
_cell_angle_beta     89.9994
_cell_angle_gamma    90.0003

_space_group_name_H-M_alt    "P 1"
_space_group_IT_number       1

loop_
  _space_group_symop_operation_xyz
  'x, y, z'

loop_
  _atom_site_type_symbol
  _atom_site_label
  _atom_site_symmetry_multiplicity
  _atom_site_fract_x
  _atom_site_fract_y
  _atom_site_fract_z
  _atom_site_occupancy
  Cd  Cd1       1.0  0.50003  0.25000  0.25000  1.0000
  Cd  Cd2       1.0  0.49999  0.75001  0.75000  1.0000
  H   H1        1.0  0.65622  0.04198  0.09095  1.0000
  H   H2        1.0  0.34378  0.54199  0.59094  1.0000
  H   H3        1.0  0.65620  0.54198  0.90903  1.0000
  H   H4        1.0  0.65620  0.95802  0.59096  1.0000
  H   H5        1.0  0.34378  0.95801  0.90906  1.0000
  H   H6        1.0  0.65621  0.45802  0.40905  1.0000
  H   H7        1.0  0.34378  0.45801  0.09095  1.0000
  H   H8        1.0  0.34381  0.04199  0.40904  1.0000
  H   H9        1.0  0.66205  0.83147  0.08301  1.0000
  H   H10       1.0  0.33794  0.33149  0.58302  1.0000
  H   H11       1.0  0.66205  0.33147  0.91700  1.0000
  H   H12       1.0  0.66204  0.16853  0.58301  1.0000
  H   H13       1.0  0.33796  0.16852  0.91699  1.0000
  H   H14       1.0  0.66206  0.66852  0.41699  1.0000
  H   H15       1.0  0.33793  0.66852  0.08302  1.0000
  H   H16       1.0  0.33797  0.83148  0.41698  1.0000
  C   C1        1.0  0.58440  0.99142  0.16090  1.0000
  C   C2        1.0  0.41563  0.49142  0.66091  1.0000
  C   C3        1.0  0.58440  0.49143  0.83911  1.0000
  C   C4        1.0  0.58439  0.00858  0.66090  1.0000
  C   C5        1.0  0.41562  0.00859  0.83910  1.0000
  C   C6        1.0  0.58438  0.50858  0.33910  1.0000
  C   C7        1.0  0.41560  0.50857  0.16090  1.0000
  C   C8        1.0  0.41562  0.99142  0.33910  1.0000
  C   C9        1.0  0.58643  0.87399  0.15728  1.0000
  C   C10       1.0  0.41356  0.37398  0.65727  1.0000
  C   C11       1.0  0.58641  0.37400  0.84272  1.0000
  C   C12       1.0  0.58640  0.12601  0.65729  1.0000
  C   C13       1.0  0.41356  0.12602  0.84273  1.0000
  C   C14       1.0  0.58643  0.62601  0.34272  1.0000
  C   C15       1.0  0.41358  0.62602  0.15727  1.0000
  C   C16       1.0  0.41357  0.87398  0.34273  1.0000
  C   C17       1.0  0.50001  0.81250  0.25000  1.0000
  C   C18       1.0  0.49997  0.31250  0.74999  1.0000
  C   C19       1.0  0.49998  0.18750  0.75001  1.0000
  C   C20       1.0  0.50001  0.68749  0.25000  1.0000
  Br  Br1       1.0  0.00001  0.25000  0.08872  1.0000
  Br  Br2       1.0  1.00000  0.75000  0.58872  1.0000
  Br  Br3       1.0  0.00000  0.75000  0.91129  1.0000
  Br  Br4       1.0  0.00000  0.25000  0.41126  1.0000
  N   N1        1.0  0.50002  0.04957  0.24999  1.0000
  N   N2        1.0  0.50001  0.54958  0.75000  1.0000
  N   N3        1.0  0.50000  0.95043  0.75001  1.0000
  N   N4        1.0  0.49999  0.45041  0.25001  1.0000
