data_image0
_chemical_formula_structural       Mn4H32C64N32
_chemical_formula_sum              "Mn4 H32 C64 N32"
_cell_length_a       9.86046
_cell_length_b       10.8403
_cell_length_c       14.4588
_cell_angle_alpha    89.9684
_cell_angle_beta     98.3086
_cell_angle_gamma    90.0062

_space_group_name_H-M_alt    "P 1"
_space_group_IT_number       1

loop_
  _space_group_symop_operation_xyz
  'x, y, z'

loop_
  _atom_site_type_symbol
  _atom_site_label
  _atom_site_symmetry_multiplicity
  _atom_site_fract_x
  _atom_site_fract_y
  _atom_site_fract_z
  _atom_site_occupancy
  Mn  Mn1       1.0  0.15158  0.41278  0.23661  1.0000
  Mn  Mn2       1.0  0.84870  0.91263  0.26300  1.0000
  Mn  Mn3       1.0  0.84871  0.58732  0.76311  1.0000
  Mn  Mn4       1.0  0.15156  0.08727  0.73674  1.0000
  H   H1        1.0  0.12121  0.71078  0.25793  1.0000
  H   H2        1.0  0.87877  0.21073  0.24212  1.0000
  H   H3        1.0  0.87882  0.28925  0.74214  1.0000
  H   H4        1.0  0.12123  0.78922  0.75797  1.0000
  H   H5        1.0  0.26753  0.88893  0.32125  1.0000
  H   H6        1.0  0.73250  0.38890  0.17876  1.0000
  H   H7        1.0  0.73254  0.11112  0.67881  1.0000
  H   H8        1.0  0.26756  0.61103  0.82130  1.0000
  H   H9        1.0  0.50715  0.84770  0.40149  1.0000
  H   H10       1.0  0.49287  0.34773  0.09848  1.0000
  H   H11       1.0  0.49294  0.15233  0.59852  1.0000
  H   H12       1.0  0.50720  0.65222  0.90153  1.0000
  H   H13       1.0  0.68962  0.69131  0.45719  1.0000
  H   H14       1.0  0.31036  0.19135  0.04284  1.0000
  H   H15       1.0  0.31041  0.30874  0.54287  1.0000
  H   H16       1.0  0.68966  0.80860  0.95723  1.0000
  H   H17       1.0  0.76711  0.47294  0.46703  1.0000
  H   H18       1.0  0.23288  0.97300  0.03304  1.0000
  H   H19       1.0  0.23292  0.52709  0.53304  1.0000
  H   H20       1.0  0.76713  0.02696  0.96703  1.0000
  H   H21       1.0  0.71689  0.24818  0.43085  1.0000
  H   H22       1.0  0.28314  0.74817  0.06922  1.0000
  H   H23       1.0  0.28317  0.75187  0.56919  1.0000
  H   H24       1.0  0.71690  0.25177  0.93082  1.0000
  H   H25       1.0  0.54980  0.08914  0.36197  1.0000
  H   H26       1.0  0.45026  0.58910  0.13807  1.0000
  H   H27       1.0  0.45031  0.91090  0.63806  1.0000
  H   H28       1.0  0.54980  0.41085  0.86196  1.0000
  H   H29       1.0  0.31648  0.15758  0.28303  1.0000
  H   H30       1.0  0.68366  0.65749  0.21690  1.0000
  H   H31       1.0  0.68363  0.84243  0.71697  1.0000
  H   H32       1.0  0.31640  0.34247  0.78314  1.0000
  C   C1        1.0  0.22516  0.69610  0.29361  1.0000
  C   C2        1.0  0.77483  0.19605  0.20643  1.0000
  C   C3        1.0  0.77488  0.30395  0.70646  1.0000
  C   C4        1.0  0.22519  0.80389  0.79365  1.0000
  C   C5        1.0  0.30808  0.79563  0.32953  1.0000
  C   C6        1.0  0.69193  0.29560  0.17048  1.0000
  C   C7        1.0  0.69198  0.20443  0.67053  1.0000
  C   C8        1.0  0.30812  0.70433  0.82958  1.0000
  C   C9        1.0  0.43930  0.77281  0.37406  1.0000
  C   C10       1.0  0.56071  0.27282  0.12594  1.0000
  C   C11       1.0  0.56076  0.22723  0.62598  1.0000
  C   C12       1.0  0.43935  0.72713  0.87410  1.0000
  C   C13       1.0  0.48812  0.65009  0.38200  1.0000
  C   C14       1.0  0.51189  0.15010  0.11802  1.0000
  C   C15       1.0  0.51193  0.34994  0.61805  1.0000
  C   C16       1.0  0.48814  0.84985  0.88203  1.0000
  C   C17       1.0  0.62241  0.61761  0.42681  1.0000
  C   C18       1.0  0.37759  0.11763  0.07322  1.0000
  C   C19       1.0  0.37763  0.38243  0.57324  1.0000
  C   C20       1.0  0.62244  0.88232  0.92684  1.0000
  C   C21       1.0  0.66521  0.49752  0.43199  1.0000
  C   C22       1.0  0.33479  0.99755  0.06806  1.0000
  C   C23       1.0  0.33483  0.50252  0.56807  1.0000
  C   C24       1.0  0.66523  0.00241  0.93200  1.0000
  C   C25       1.0  0.57665  0.40028  0.39285  1.0000
  C   C26       1.0  0.42338  0.90027  0.10718  1.0000
  C   C27       1.0  0.42341  0.59976  0.60720  1.0000
  C   C28       1.0  0.57664  0.09967  0.89287  1.0000
  C   C29       1.0  0.61457  0.27440  0.39747  1.0000
  C   C30       1.0  0.38546  0.77439  0.10258  1.0000
  C   C31       1.0  0.38549  0.72564  0.60258  1.0000
  C   C32       1.0  0.61457  0.22556  0.89746  1.0000
  C   C33       1.0  0.52145  0.18626  0.35967  1.0000
  C   C34       1.0  0.47862  0.68622  0.14035  1.0000
  C   C35       1.0  0.47863  0.81377  0.64036  1.0000
  C   C36       1.0  0.52142  0.31373  0.85969  1.0000
  C   C37       1.0  0.39161  0.22398  0.31574  1.0000
  C   C38       1.0  0.60849  0.72391  0.18421  1.0000
  C   C39       1.0  0.60848  0.77605  0.68428  1.0000
  C   C40       1.0  0.39156  0.27604  0.81582  1.0000
  C   C41       1.0  0.44250  0.42921  0.34824  1.0000
  C   C42       1.0  0.55755  0.92917  0.15175  1.0000
  C   C43       1.0  0.55755  0.57082  0.65180  1.0000
  C   C44       1.0  0.44249  0.07078  0.84829  1.0000
  C   C45       1.0  0.39735  0.55575  0.34318  1.0000
  C   C46       1.0  0.60267  0.05572  0.15684  1.0000
  C   C47       1.0  0.60270  0.44429  0.65688  1.0000
  C   C48       1.0  0.39736  0.94423  0.84321  1.0000
  C   C49       1.0  0.02471  0.35235  0.43170  1.0000
  C   C50       1.0  0.97514  0.85209  0.06811  1.0000
  C   C51       1.0  0.97513  0.64795  0.56819  1.0000
  C   C52       1.0  0.02461  0.14765  0.93179  1.0000
  C   C53       1.0  0.04293  0.29307  0.58695  1.0000
  C   C54       1.0  0.95651  0.79269  0.91284  1.0000
  C   C55       1.0  0.95671  0.70730  0.41288  1.0000
  C   C56       1.0  0.04300  0.20698  0.08697  1.0000
  C   C57       1.0  0.23561  0.44460  0.03213  1.0000
  C   C58       1.0  0.76426  0.94463  0.46798  1.0000
  C   C59       1.0  0.76442  0.55542  0.96785  1.0000
  C   C60       1.0  0.23576  0.05536  0.53200  1.0000
  C   C61       1.0  0.10414  0.45325  0.88677  1.0000
  C   C62       1.0  0.89571  0.95328  0.61337  1.0000
  C   C63       1.0  0.89591  0.54697  0.11321  1.0000
  C   C64       1.0  0.10429  0.04654  0.38664  1.0000
  N   N1        1.0  0.26814  0.57972  0.30077  1.0000
  N   N2        1.0  0.73188  0.07966  0.19926  1.0000
  N   N3        1.0  0.73191  0.42033  0.69928  1.0000
  N   N4        1.0  0.26815  0.92027  0.80079  1.0000
  N   N5        1.0  0.35313  0.34161  0.30992  1.0000
  N   N6        1.0  0.64696  0.84155  0.19001  1.0000
  N   N7        1.0  0.64694  0.65841  0.69010  1.0000
  N   N8        1.0  0.35308  0.15840  0.81002  1.0000
  N   N9        1.0  0.05405  0.37017  0.35658  1.0000
  N   N10       1.0  0.94612  0.87028  0.14327  1.0000
  N   N11       1.0  0.94596  0.62972  0.64332  1.0000
  N   N12       1.0  0.05388  0.12988  0.85666  1.0000
  N   N13       1.0  0.97822  0.33733  0.51009  1.0000
  N   N14       1.0  0.02134  0.83663  0.98972  1.0000
  N   N15       1.0  0.02148  0.66348  0.48984  1.0000
  N   N16       1.0  0.97822  0.16259  0.01021  1.0000
  N   N17       1.0  0.09173  0.25394  0.66063  1.0000
  N   N18       1.0  0.90760  0.75381  0.83911  1.0000
  N   N19       1.0  0.90785  0.74611  0.33908  1.0000
  N   N20       1.0  0.09188  0.24619  0.16057  1.0000
  N   N21       1.0  0.26795  0.45668  0.11371  1.0000
  N   N22       1.0  0.73200  0.95630  0.38637  1.0000
  N   N23       1.0  0.73201  0.54311  0.88630  1.0000
  N   N24       1.0  0.26801  0.04385  0.61363  1.0000
  N   N25       1.0  0.21250  0.42324  0.94339  1.0000
  N   N26       1.0  0.78709  0.92381  0.55684  1.0000
  N   N27       1.0  0.78764  0.57710  0.05656  1.0000
  N   N28       1.0  0.21298  0.07596  0.44312  1.0000
  N   N29       1.0  0.01131  0.47584  0.82810  1.0000
  N   N30       1.0  0.98862  0.97549  0.67206  1.0000
  N   N31       1.0  0.98869  0.52435  0.17192  1.0000
  N   N32       1.0  0.01133  0.02432  0.32800  1.0000
