data_image0
_chemical_formula_structural       Cu2H16C24N10Cl2O8
_chemical_formula_sum              "Cu2 H16 C24 N10 Cl2 O8"
_cell_length_a       8.44023
_cell_length_b       8.44168
_cell_length_c       11.6223
_cell_angle_alpha    96.8433
_cell_angle_beta     107.563
_cell_angle_gamma    114.884

_space_group_name_H-M_alt    "P 1"
_space_group_IT_number       1

loop_
  _space_group_symop_operation_xyz
  'x, y, z'

loop_
  _atom_site_type_symbol
  _atom_site_label
  _atom_site_symmetry_multiplicity
  _atom_site_fract_x
  _atom_site_fract_y
  _atom_site_fract_z
  _atom_site_occupancy
  Cu  Cu1       1.0  0.47543  0.51270  0.57275  1.0000
  Cu  Cu2       1.0  0.56004  0.09765  0.07290  1.0000
  H   H1        1.0  0.52339  0.22332  0.69165  1.0000
  H   H2        1.0  0.96780  0.16784  0.19138  1.0000
  H   H3        1.0  0.30452  0.94359  0.72796  1.0000
  H   H4        1.0  0.28419  0.42253  0.22772  1.0000
  H   H5        1.0  0.96126  0.87399  0.67422  1.0000
  H   H6        1.0  0.30065  0.71225  0.17419  1.0000
  H   H7        1.0  0.85815  0.08108  0.58548  1.0000
  H   H8        1.0  0.00518  0.72736  0.08578  1.0000
  H   H9        1.0  0.78398  0.25239  0.48247  1.0000
  H   H10       1.0  0.73052  0.69893  0.98287  1.0000
  H   H11       1.0  0.73839  0.48431  0.38890  1.0000
  H   H12       1.0  0.40496  0.65098  0.88918  1.0000
  H   H13       1.0  0.02544  0.75842  0.38982  1.0000
  H   H14       1.0  0.13159  0.36487  0.88996  1.0000
  H   H15       1.0  0.34061  0.77155  0.47509  1.0000
  H   H16       1.0  0.20359  0.13494  0.97526  1.0000
  C   C1        1.0  0.37465  0.18552  0.66781  1.0000
  C   C2        1.0  0.98210  0.29283  0.16766  1.0000
  C   C3        1.0  0.25049  0.02962  0.68777  1.0000
  C   C4        1.0  0.15814  0.43667  0.18758  1.0000
  C   C5        1.0  0.06306  0.99195  0.65823  1.0000
  C   C6        1.0  0.16654  0.59469  0.15824  1.0000
  C   C7        1.0  0.00349  0.10793  0.60722  1.0000
  C   C8        1.0  0.99972  0.60366  0.10744  1.0000
  C   C9        1.0  0.13319  0.25863  0.58595  1.0000
  C   C10       1.0  0.82752  0.45290  0.08615  1.0000
  C   C11       1.0  0.08693  0.38665  0.52795  1.0000
  C   C12       1.0  0.64156  0.44137  0.02820  1.0000
  C   C13       1.0  0.90541  0.36812  0.48005  1.0000
  C   C14       1.0  0.61231  0.57504  0.98038  1.0000
  C   C15       1.0  0.88051  0.50038  0.42780  1.0000
  C   C16       1.0  0.42778  0.54778  0.92810  1.0000
  C   C17       1.0  0.03717  0.64989  0.42745  1.0000
  C   C18       1.0  0.27780  0.39081  0.92771  1.0000
  C   C19       1.0  0.21447  0.65904  0.47508  1.0000
  C   C20       1.0  0.31619  0.26114  0.97537  1.0000
  C   C21       1.0  0.87105  0.58328  0.74470  1.0000
  C   C22       1.0  0.66117  0.87371  0.24460  1.0000
  C   C23       1.0  0.17336  0.76957  0.89740  1.0000
  C   C24       1.0  0.62774  0.72387  0.39717  1.0000
  N   N1        1.0  0.31644  0.29672  0.61878  1.0000
  N   N2        1.0  0.82200  0.30234  0.11884  1.0000
  N   N3        1.0  0.23703  0.52889  0.52187  1.0000
  N   N4        1.0  0.49313  0.28531  0.02216  1.0000
  N   N5        1.0  0.71141  0.53030  0.67986  1.0000
  N   N6        1.0  0.64957  0.96881  0.18002  1.0000
  N   N7        1.0  0.04308  0.62366  0.80908  1.0000
  N   N8        1.0  0.68493  0.76573  0.30869  1.0000
  N   N9        1.0  0.30476  0.89336  0.97963  1.0000
  N   N10       1.0  0.58645  0.67460  0.47942  1.0000
  Cl  Cl1       1.0  0.73333  0.00927  0.83254  1.0000
  Cl  Cl2       1.0  0.32312  0.09892  0.33257  1.0000
  O   O1        1.0  0.65307  0.90674  0.70058  1.0000
  O   O2        1.0  0.29300  0.04700  0.20050  1.0000
  O   O3        1.0  0.57972  0.95468  0.87959  1.0000
  O   O4        1.0  0.42485  0.29959  0.37953  1.0000
  O   O5        1.0  0.87813  0.96857  0.90650  1.0000
  O   O6        1.0  0.43804  0.02815  0.40632  1.0000
  O   O7        1.0  0.81548  0.20420  0.84452  1.0000
  O   O8        1.0  0.14045  0.02889  0.34498  1.0000
