data_image0
_chemical_formula_structural       Li4H60C32S4N16O12
_chemical_formula_sum              "Li4 H60 C32 S4 N16 O12"
_cell_length_a       8.54327
_cell_length_b       9.04909
_cell_length_c       17.3422
_cell_angle_alpha    90
_cell_angle_beta     90.0002
_cell_angle_gamma    113.532

_space_group_name_H-M_alt    "P 1"
_space_group_IT_number       1

loop_
  _space_group_symop_operation_xyz
  'x, y, z'

loop_
  _atom_site_type_symbol
  _atom_site_label
  _atom_site_symmetry_multiplicity
  _atom_site_fract_x
  _atom_site_fract_y
  _atom_site_fract_z
  _atom_site_occupancy
  Li  Li1       1.0  0.69867  0.23290  0.07899  1.0000
  Li  Li2       1.0  0.19866  0.73290  0.42101  1.0000
  Li  Li3       1.0  0.30133  0.76710  0.92101  1.0000
  Li  Li4       1.0  0.80134  0.26710  0.57899  1.0000
  H   H1        1.0  0.75412  0.85743  0.28668  1.0000
  H   H2        1.0  0.25413  0.35743  0.21332  1.0000
  H   H3        1.0  0.24588  0.14256  0.71332  1.0000
  H   H4        1.0  0.74588  0.64257  0.78668  1.0000
  H   H5        1.0  0.58105  0.77499  0.34614  1.0000
  H   H6        1.0  0.08107  0.27500  0.15386  1.0000
  H   H7        1.0  0.41895  0.22501  0.65386  1.0000
  H   H8        1.0  0.91894  0.72500  0.84614  1.0000
  H   H9        1.0  0.13899  0.08806  0.25232  1.0000
  H   H10       1.0  0.63899  0.58806  0.24767  1.0000
  H   H11       1.0  0.86102  0.91194  0.74768  1.0000
  H   H12       1.0  0.36101  0.41193  0.75233  1.0000
  H   H13       1.0  0.23537  0.14856  0.34441  1.0000
  H   H14       1.0  0.73537  0.64856  0.15559  1.0000
  H   H15       1.0  0.76464  0.85145  0.65558  1.0000
  H   H16       1.0  0.26462  0.35143  0.84441  1.0000
  H   H17       1.0  0.12154  0.94066  0.32319  1.0000
  H   H18       1.0  0.62155  0.44066  0.17681  1.0000
  H   H19       1.0  0.87846  0.05934  0.67681  1.0000
  H   H20       1.0  0.37845  0.55933  0.82320  1.0000
  H   H21       1.0  0.96732  0.11220  0.01964  1.0000
  H   H22       1.0  0.46732  0.61220  0.48037  1.0000
  H   H23       1.0  0.03268  0.88780  0.98036  1.0000
  H   H24       1.0  0.53269  0.38780  0.51964  1.0000
  H   H25       1.0  0.03632  0.30774  0.97560  1.0000
  H   H26       1.0  0.53632  0.80774  0.52440  1.0000
  H   H27       1.0  0.96368  0.69226  0.02440  1.0000
  H   H28       1.0  0.46368  0.19226  0.47560  1.0000
  H   H29       1.0  0.96477  0.12989  0.91626  1.0000
  H   H30       1.0  0.46477  0.62990  0.58375  1.0000
  H   H31       1.0  0.03522  0.87010  0.08375  1.0000
  H   H32       1.0  0.53523  0.37010  0.41625  1.0000
  H   H33       1.0  0.74110  0.21036  0.86246  1.0000
  H   H34       1.0  0.24109  0.71038  0.63754  1.0000
  H   H35       1.0  0.25890  0.78964  0.13754  1.0000
  H   H36       1.0  0.75890  0.28963  0.36246  1.0000
  H   H37       1.0  0.82511  0.38531  0.92351  1.0000
  H   H38       1.0  0.32510  0.88533  0.57649  1.0000
  H   H39       1.0  0.17489  0.61469  0.07649  1.0000
  H   H40       1.0  0.67489  0.11468  0.42351  1.0000
  H   H41       1.0  0.52374  0.32188  0.89261  1.0000
  H   H42       1.0  0.02373  0.82189  0.60738  1.0000
  H   H43       1.0  0.47625  0.67811  0.10739  1.0000
  H   H44       1.0  0.97626  0.17811  0.39261  1.0000
  H   H45       1.0  0.46011  0.12129  0.92914  1.0000
  H   H46       1.0  0.96010  0.62130  0.57085  1.0000
  H   H47       1.0  0.53989  0.87870  0.07086  1.0000
  H   H48       1.0  0.03989  0.37870  0.42914  1.0000
  H   H49       1.0  0.38909  0.32974  0.09195  1.0000
  H   H50       1.0  0.88908  0.82972  0.40804  1.0000
  H   H51       1.0  0.61091  0.67028  0.90804  1.0000
  H   H52       1.0  0.11091  0.17026  0.59195  1.0000
  H   H53       1.0  0.28889  0.16820  0.02538  1.0000
  H   H54       1.0  0.78887  0.66820  0.47462  1.0000
  H   H55       1.0  0.71112  0.83180  0.97462  1.0000
  H   H56       1.0  0.21112  0.33179  0.52538  1.0000
  H   H57       1.0  0.34904  0.37453  0.99513  1.0000
  H   H58       1.0  0.84903  0.87453  0.50487  1.0000
  H   H59       1.0  0.65096  0.62546  0.00487  1.0000
  H   H60       1.0  0.15096  0.12546  0.49512  1.0000
  C   C1        1.0  0.65558  0.02720  0.21178  1.0000
  C   C2        1.0  0.15557  0.52720  0.28823  1.0000
  C   C3        1.0  0.34443  0.97280  0.78822  1.0000
  C   C4        1.0  0.84443  0.47280  0.71177  1.0000
  C   C5        1.0  0.44603  0.96432  0.31543  1.0000
  C   C6        1.0  0.94603  0.46431  0.18457  1.0000
  C   C7        1.0  0.55398  0.03569  0.68458  1.0000
  C   C8        1.0  0.05397  0.53568  0.81543  1.0000
  C   C9        1.0  0.36679  0.04766  0.26923  1.0000
  C   C10       1.0  0.86679  0.54766  0.23077  1.0000
  C   C11       1.0  0.63322  0.95234  0.73077  1.0000
  C   C12       1.0  0.13321  0.45234  0.76923  1.0000
  C   C13       1.0  0.20699  0.05689  0.29880  1.0000
  C   C14       1.0  0.70700  0.55689  0.20121  1.0000
  C   C15       1.0  0.79301  0.94311  0.70120  1.0000
  C   C16       1.0  0.29299  0.44310  0.79880  1.0000
  C   C17       1.0  0.94604  0.18060  0.97163  1.0000
  C   C18       1.0  0.44604  0.68061  0.52837  1.0000
  C   C19       1.0  0.05396  0.81940  0.02837  1.0000
  C   C20       1.0  0.55396  0.31940  0.47164  1.0000
  C   C21       1.0  0.73333  0.25859  0.92019  1.0000
  C   C22       1.0  0.23332  0.75860  0.57981  1.0000
  C   C23       1.0  0.26667  0.74141  0.07981  1.0000
  C   C24       1.0  0.76668  0.24141  0.42019  1.0000
  C   C25       1.0  0.55507  0.24633  0.93471  1.0000
  C   C26       1.0  0.05506  0.74634  0.56529  1.0000
  C   C27       1.0  0.44493  0.75367  0.06529  1.0000
  C   C28       1.0  0.94493  0.25366  0.43471  1.0000
  C   C29       1.0  0.38403  0.29289  0.03170  1.0000
  C   C30       1.0  0.88402  0.79289  0.46830  1.0000
  C   C31       1.0  0.61597  0.70711  0.96830  1.0000
  C   C32       1.0  0.11597  0.20710  0.53169  1.0000
  S   S1        1.0  0.82944  0.00702  0.17427  1.0000
  S   S2        1.0  0.32943  0.50702  0.32573  1.0000
  S   S3        1.0  0.17057  0.99298  0.82573  1.0000
  S   S4        1.0  0.67057  0.49299  0.67427  1.0000
  N   N1        1.0  0.58991  0.95600  0.28234  1.0000
  N   N2        1.0  0.08991  0.45600  0.21766  1.0000
  N   N3        1.0  0.41010  0.04401  0.71766  1.0000
  N   N4        1.0  0.91009  0.54400  0.78234  1.0000
  N   N5        1.0  0.67392  0.87985  0.32505  1.0000
  N   N6        1.0  0.17393  0.37985  0.17495  1.0000
  N   N7        1.0  0.32608  0.12015  0.67495  1.0000
  N   N8        1.0  0.82608  0.62015  0.82505  1.0000
  N   N9        1.0  0.57480  0.10747  0.17414  1.0000
  N   N10       1.0  0.07480  0.60747  0.32586  1.0000
  N   N11       1.0  0.42520  0.89252  0.82586  1.0000
  N   N12       1.0  0.92520  0.39254  0.67414  1.0000
  N   N13       1.0  0.43165  0.11585  0.20255  1.0000
  N   N14       1.0  0.93166  0.61585  0.29745  1.0000
  N   N15       1.0  0.56835  0.88415  0.79744  1.0000
  N   N16       1.0  0.06835  0.38416  0.70255  1.0000
  O   O1        1.0  0.39602  0.90200  0.38034  1.0000
  O   O2        1.0  0.89602  0.40200  0.11966  1.0000
  O   O3        1.0  0.60399  0.09800  0.61966  1.0000
  O   O4        1.0  0.10398  0.59799  0.88034  1.0000
  O   O5        1.0  0.77368  0.16660  0.97861  1.0000
  O   O6        1.0  0.27367  0.66661  0.52139  1.0000
  O   O7        1.0  0.22632  0.83340  0.02139  1.0000
  O   O8        1.0  0.72633  0.33340  0.47861  1.0000
  O   O9        1.0  0.55049  0.30244  0.01181  1.0000
  O   O10       1.0  0.05048  0.80245  0.48819  1.0000
  O   O11       1.0  0.44951  0.69756  0.98819  1.0000
  O   O12       1.0  0.94950  0.19755  0.51181  1.0000
