data_image0
_chemical_formula_structural       Ag6H58C36N16O14
_chemical_formula_sum              "Ag6 H58 C36 N16 O14"
_cell_length_a       11.2974
_cell_length_b       11.6641
_cell_length_c       11.8194
_cell_angle_alpha    119.566
_cell_angle_beta     90
_cell_angle_gamma    90

_space_group_name_H-M_alt    "P 1"
_space_group_IT_number       1

loop_
  _space_group_symop_operation_xyz
  'x, y, z'

loop_
  _atom_site_type_symbol
  _atom_site_label
  _atom_site_symmetry_multiplicity
  _atom_site_fract_x
  _atom_site_fract_y
  _atom_site_fract_z
  _atom_site_occupancy
  Ag  Ag1       1.0  0.53300  0.16459  0.50291  1.0000
  Ag  Ag2       1.0  0.03300  0.83541  0.49709  1.0000
  Ag  Ag3       1.0  0.53300  0.66168  0.49709  1.0000
  Ag  Ag4       1.0  0.03300  0.33832  0.50291  1.0000
  Ag  Ag5       1.0  0.69189  0.18633  0.00000  1.0000
  Ag  Ag6       1.0  0.19189  0.81367  1.00000  1.0000
  H   H1        1.0  0.84589  0.09989  0.57497  1.0000
  H   H2        1.0  0.34589  0.90011  0.42503  1.0000
  H   H3        1.0  0.84589  0.52492  0.42503  1.0000
  H   H4        1.0  0.34589  0.47508  0.57497  1.0000
  H   H5        1.0  0.79794  0.94678  0.43523  1.0000
  H   H6        1.0  0.29794  0.05322  0.56477  1.0000
  H   H7        1.0  0.79794  0.51155  0.56477  1.0000
  H   H8        1.0  0.29794  0.48845  0.43523  1.0000
  H   H9        1.0  0.59727  0.86777  0.43559  1.0000
  H   H10       1.0  0.09727  0.13223  0.56441  1.0000
  H   H11       1.0  0.59727  0.43218  0.56441  1.0000
  H   H12       1.0  0.09727  0.56782  0.43559  1.0000
  H   H13       1.0  0.50671  0.95892  0.57610  1.0000
  H   H14       1.0  0.00671  0.04108  0.42389  1.0000
  H   H15       1.0  0.50671  0.38281  0.42390  1.0000
  H   H16       1.0  0.00671  0.61719  0.57610  1.0000
  H   H17       1.0  0.57432  0.15851  0.75689  1.0000
  H   H18       1.0  0.07432  0.84149  0.24311  1.0000
  H   H19       1.0  0.57432  0.40162  0.24311  1.0000
  H   H20       1.0  0.07432  0.59838  0.75689  1.0000
  H   H21       1.0  0.72161  0.21611  0.75590  1.0000
  H   H22       1.0  0.22161  0.78389  0.24410  1.0000
  H   H23       1.0  0.72161  0.46021  0.24410  1.0000
  H   H24       1.0  0.22161  0.53979  0.75590  1.0000
  H   H25       1.0  0.67417  0.87547  0.78706  1.0000
  H   H26       1.0  0.17417  0.12453  0.21294  1.0000
  H   H27       1.0  0.67417  0.08842  0.21295  1.0000
  H   H28       1.0  0.17417  0.91158  0.78705  1.0000
  H   H29       1.0  0.54840  0.96307  0.77452  1.0000
  H   H30       1.0  0.04840  0.03693  0.22548  1.0000
  H   H31       1.0  0.54840  0.18855  0.22549  1.0000
  H   H32       1.0  0.04840  0.81145  0.77451  1.0000
  H   H33       1.0  0.87308  0.95983  0.78826  1.0000
  H   H34       1.0  0.37308  0.04016  0.21174  1.0000
  H   H35       1.0  0.87308  0.17158  0.21174  1.0000
  H   H36       1.0  0.37308  0.82842  0.78825  1.0000
  H   H37       1.0  0.88872  0.10641  0.77401  1.0000
  H   H38       1.0  0.38872  0.89359  0.22599  1.0000
  H   H39       1.0  0.88872  0.33240  0.22599  1.0000
  H   H40       1.0  0.38872  0.66760  0.77401  1.0000
  H   H41       1.0  0.80315  0.75925  0.60498  1.0000
  H   H42       1.0  0.30315  0.24075  0.39502  1.0000
  H   H43       1.0  0.80315  0.15427  0.39502  1.0000
  H   H44       1.0  0.30315  0.84573  0.60498  1.0000
  H   H45       1.0  0.77396  0.75416  0.45399  1.0000
  H   H46       1.0  0.27396  0.24584  0.54601  1.0000
  H   H47       1.0  0.77396  0.30018  0.54602  1.0000
  H   H48       1.0  0.27396  0.69982  0.45398  1.0000
  H   H49       1.0  0.29143  0.32087  0.88159  1.0000
  H   H50       1.0  0.79143  0.67913  0.11841  1.0000
  H   H51       1.0  0.29143  0.43928  0.11841  1.0000
  H   H52       1.0  0.79143  0.56072  0.88159  1.0000
  H   H53       1.0  0.27798  0.47761  0.89013  1.0000
  H   H54       1.0  0.77798  0.52239  0.10987  1.0000
  H   H55       1.0  0.27798  0.58748  0.10987  1.0000
  H   H56       1.0  0.77798  0.41252  0.89013  1.0000
  H   H57       1.0  0.57318  0.53783  1.00000  1.0000
  H   H58       1.0  0.07317  0.46217  0.00000  1.0000
  C   C1        1.0  0.79303  0.00994  0.54130  1.0000
  C   C2        1.0  0.29303  0.99006  0.45870  1.0000
  C   C3        1.0  0.79303  0.46865  0.45870  1.0000
  C   C4        1.0  0.29303  0.53135  0.54130  1.0000
  C   C5        1.0  0.59779  0.92941  0.54192  1.0000
  C   C6        1.0  0.09779  0.07059  0.45808  1.0000
  C   C7        1.0  0.59780  0.38749  0.45808  1.0000
  C   C8        1.0  0.09779  0.61251  0.54192  1.0000
  C   C9        1.0  0.66585  0.12891  0.72522  1.0000
  C   C10       1.0  0.16585  0.87109  0.27478  1.0000
  C   C11       1.0  0.66585  0.40368  0.27478  1.0000
  C   C12       1.0  0.16585  0.59632  0.72522  1.0000
  C   C13       1.0  0.64009  0.93270  0.74299  1.0000
  C   C14       1.0  0.14009  0.06730  0.25701  1.0000
  C   C15       1.0  0.64010  0.18971  0.25701  1.0000
  C   C16       1.0  0.14009  0.81029  0.74299  1.0000
  C   C17       1.0  0.83736  0.01578  0.74346  1.0000
  C   C18       1.0  0.33736  0.98422  0.25655  1.0000
  C   C19       1.0  0.83736  0.27233  0.25655  1.0000
  C   C20       1.0  0.33736  0.72767  0.74345  1.0000
  C   C21       1.0  0.76904  0.81548  0.55993  1.0000
  C   C22       1.0  0.26904  0.18452  0.44007  1.0000
  C   C23       1.0  0.76904  0.25556  0.44008  1.0000
  C   C24       1.0  0.26904  0.74444  0.55992  1.0000
  C   C25       1.0  0.40363  0.34579  0.74869  1.0000
  C   C26       1.0  0.90363  0.65421  0.25132  1.0000
  C   C27       1.0  0.40363  0.59710  0.25132  1.0000
  C   C28       1.0  0.90362  0.40290  0.74868  1.0000
  C   C29       1.0  0.34055  0.40080  0.87908  1.0000
  C   C30       1.0  0.84055  0.59920  0.12092  1.0000
  C   C31       1.0  0.34055  0.52172  0.12092  1.0000
  C   C32       1.0  0.84055  0.47828  0.87908  1.0000
  C   C33       1.0  0.42275  0.46433  1.00000  1.0000
  C   C34       1.0  0.92275  0.53567  0.00000  1.0000
  C   C35       1.0  0.50786  0.35919  1.00000  1.0000
  C   C36       1.0  0.00786  0.64081  1.00000  1.0000
  N   N1        1.0  0.66929  0.04822  0.58229  1.0000
  N   N2        1.0  0.16929  0.95178  0.41771  1.0000
  N   N3        1.0  0.66929  0.46593  0.41771  1.0000
  N   N4        1.0  0.16929  0.53407  0.58229  1.0000
  N   N5        1.0  0.71284  0.05356  0.78774  1.0000
  N   N6        1.0  0.21284  0.94644  0.21226  1.0000
  N   N7        1.0  0.71284  0.26582  0.21226  1.0000
  N   N8        1.0  0.21284  0.73417  0.78774  1.0000
  N   N9        1.0  0.64353  0.84985  0.59966  1.0000
  N   N10       1.0  0.14353  0.15015  0.40034  1.0000
  N   N11       1.0  0.64353  0.25019  0.40034  1.0000
  N   N12       1.0  0.14353  0.74981  0.59966  1.0000
  N   N13       1.0  0.84235  0.93388  0.60094  1.0000
  N   N14       1.0  0.34235  0.06612  0.39905  1.0000
  N   N15       1.0  0.84235  0.33293  0.39906  1.0000
  N   N16       1.0  0.34235  0.66707  0.60094  1.0000
  O   O1        1.0  0.46731  0.25839  1.00000  1.0000
  O   O2        1.0  0.96731  0.74161  1.00000  1.0000
  O   O3        1.0  0.61826  0.38510  1.00000  1.0000
  O   O4        1.0  0.11826  0.61490  0.00000  1.0000
  O   O5        1.0  0.42440  0.41913  0.70028  1.0000
  O   O6        1.0  0.92440  0.58087  0.29972  1.0000
  O   O7        1.0  0.42440  0.71885  0.29972  1.0000
  O   O8        1.0  0.92440  0.28115  0.70028  1.0000
  O   O9        1.0  0.42968  0.22190  0.69192  1.0000
  O   O10       1.0  0.92969  0.77810  0.30808  1.0000
  O   O11       1.0  0.42969  0.52998  0.30808  1.0000
  O   O12       1.0  0.92968  0.47002  0.69192  1.0000
  O   O13       1.0  0.49111  0.56693  1.00000  1.0000
  O   O14       1.0  0.99111  0.43307  1.00000  1.0000
