data_image0
_chemical_formula_structural       Cd4H12C24N4O12
_chemical_formula_sum              "Cd4 H12 C24 N4 O12"
_cell_length_a       8.68084
_cell_length_b       9.02689
_cell_length_c       10.1396
_cell_angle_alpha    112.703
_cell_angle_beta     90.0039
_cell_angle_gamma    118.733

_space_group_name_H-M_alt    "P 1"
_space_group_IT_number       1

loop_
  _space_group_symop_operation_xyz
  'x, y, z'

loop_
  _atom_site_type_symbol
  _atom_site_label
  _atom_site_symmetry_multiplicity
  _atom_site_fract_x
  _atom_site_fract_y
  _atom_site_fract_z
  _atom_site_occupancy
  Cd  Cd1       1.0  0.27578  0.99996  0.75003  1.0000
  Cd  Cd2       1.0  0.72422  0.00004  0.24997  1.0000
  Cd  Cd3       1.0  0.00000  1.00000  1.00000  1.0000
  Cd  Cd4       1.0  0.00000  0.00000  0.50000  1.0000
  H   H1        1.0  0.98876  0.51329  0.21777  1.0000
  H   H2        1.0  0.47538  0.48680  0.28200  1.0000
  H   H3        1.0  0.01124  0.48671  0.78222  1.0000
  H   H4        1.0  0.52462  0.51320  0.71800  1.0000
  H   H5        1.0  0.58360  0.97464  0.87435  1.0000
  H   H6        1.0  0.60897  0.02546  0.62559  1.0000
  H   H7        1.0  0.41640  0.02536  0.12565  1.0000
  H   H8        1.0  0.39103  0.97454  0.37441  1.0000
  H   H9        1.0  0.58620  0.45511  0.92087  1.0000
  H   H10       1.0  0.13104  0.54497  0.57888  1.0000
  H   H11       1.0  0.41380  0.54488  0.07913  1.0000
  H   H12       1.0  0.86896  0.45503  0.42112  1.0000
  C   C1        1.0  0.88069  0.71832  0.15585  1.0000
  C   C2        1.0  0.16249  0.28166  0.34404  1.0000
  C   C3        1.0  0.11931  0.28168  0.84415  1.0000
  C   C4        1.0  0.83751  0.71835  0.65596  1.0000
  C   C5        1.0  0.80006  0.50916  0.07667  1.0000
  C   C6        1.0  0.29079  0.49087  0.42306  1.0000
  C   C7        1.0  0.19994  0.49084  0.92333  1.0000
  C   C8        1.0  0.70921  0.50913  0.57694  1.0000
  C   C9        1.0  0.87187  0.42536  0.12539  1.0000
  C   C10       1.0  0.44639  0.57474  0.37435  1.0000
  C   C11       1.0  0.12813  0.57465  0.87461  1.0000
  C   C12       1.0  0.55361  0.42526  0.62565  1.0000
  C   C13       1.0  0.79321  0.22918  0.05557  1.0000
  C   C14       1.0  0.56397  0.77091  0.44422  1.0000
  C   C15       1.0  0.20679  0.77082  0.94443  1.0000
  C   C16       1.0  0.43603  0.22909  0.55578  1.0000
  C   C17       1.0  0.64481  0.12662  0.93507  1.0000
  C   C18       1.0  0.51814  0.87351  0.56474  1.0000
  C   C19       1.0  0.35519  0.87337  0.06493  1.0000
  C   C20       1.0  0.48186  0.12649  0.43526  1.0000
  C   C21       1.0  0.64846  0.39510  0.95944  1.0000
  C   C22       1.0  0.25327  0.60498  0.54025  1.0000
  C   C23       1.0  0.35154  0.60490  0.04056  1.0000
  C   C24       1.0  0.74673  0.39502  0.45976  1.0000
  N   N1        1.0  0.57277  0.20710  0.89110  1.0000
  N   N2        1.0  0.36557  0.79298  0.60864  1.0000
  N   N3        1.0  0.42722  0.79290  0.10890  1.0000
  N   N4        1.0  0.63443  0.20702  0.39136  1.0000
  O   O1        1.0  0.81614  0.78922  0.09975  1.0000
  O   O2        1.0  0.02712  0.21079  0.40022  1.0000
  O   O3        1.0  0.18387  0.21078  0.90025  1.0000
  O   O4        1.0  0.97288  0.78921  0.59978  1.0000
  O   O5        1.0  0.00297  0.80731  0.27096  1.0000
  O   O6        1.0  0.19583  0.19255  0.22905  1.0000
  O   O7        1.0  0.99703  0.19269  0.72904  1.0000
  O   O8        1.0  0.80417  0.80746  0.77095  1.0000
  O   O9        1.0  0.85217  0.14299  0.10280  1.0000
  O   O10       1.0  0.70918  0.85702  0.39708  1.0000
  O   O11       1.0  0.14783  0.85701  0.89720  1.0000
  O   O12       1.0  0.29082  0.14298  0.60291  1.0000
