data_image0
_chemical_formula_structural       Cu4H16C24N4O8
_chemical_formula_sum              "Cu4 H16 C24 N4 O8"
_cell_length_a       7.18244
_cell_length_b       7.18371
_cell_length_c       13.8686
_cell_angle_alpha    82.5557
_cell_angle_beta     74.9851
_cell_angle_gamma    60.0203

_space_group_name_H-M_alt    "P 1"
_space_group_IT_number       1

loop_
  _space_group_symop_operation_xyz
  'x, y, z'

loop_
  _atom_site_type_symbol
  _atom_site_label
  _atom_site_symmetry_multiplicity
  _atom_site_fract_x
  _atom_site_fract_y
  _atom_site_fract_z
  _atom_site_occupancy
  Cu  Cu1       1.0  0.93911  0.70798  0.51580  1.0000
  Cu  Cu2       1.0  0.16181  0.29290  0.48422  1.0000
  Cu  Cu3       1.0  0.20444  0.20757  0.98413  1.0000
  Cu  Cu4       1.0  0.39642  0.79252  0.01593  1.0000
  H   H1        1.0  0.78582  0.61109  0.72087  1.0000
  H   H2        1.0  0.11725  0.38888  0.27911  1.0000
  H   H3        1.0  0.25628  0.11108  0.77904  1.0000
  H   H4        1.0  0.14672  0.88967  0.22104  1.0000
  H   H5        1.0  0.28939  0.73590  0.56047  1.0000
  H   H6        1.0  0.58459  0.26532  0.43955  1.0000
  H   H7        1.0  0.59964  0.23500  0.93961  1.0000
  H   H8        1.0  0.77523  0.76381  0.06042  1.0000
  H   H9        1.0  0.39819  0.74106  0.71481  1.0000
  H   H10       1.0  0.85324  0.25953  0.28515  1.0000
  H   H11       1.0  0.86294  0.24044  0.78529  1.0000
  H   H12       1.0  0.88959  0.75850  0.21467  1.0000
  H   H13       1.0  0.87919  0.60993  0.88258  1.0000
  H   H14       1.0  0.37140  0.38953  0.11736  1.0000
  H   H15       1.0  0.51147  0.11010  0.61735  1.0000
  H   H16       1.0  0.23946  0.89035  0.38267  1.0000
  C   C1        1.0  0.91986  0.63951  0.72309  1.0000
  C   C2        1.0  0.28192  0.36045  0.27689  1.0000
  C   C3        1.0  0.39256  0.13950  0.77685  1.0000
  C   C4        1.0  0.30939  0.86080  0.22320  1.0000
  C   C5        1.0  0.20234  0.70697  0.63263  1.0000
  C   C6        1.0  0.54095  0.29377  0.36739  1.0000
  C   C7        1.0  0.58476  0.20635  0.86743  1.0000
  C   C8        1.0  0.65930  0.79295  0.13258  1.0000
  C   C9        1.0  0.26184  0.71140  0.71937  1.0000
  C   C10       1.0  0.69177  0.28905  0.28063  1.0000
  C   C11       1.0  0.73098  0.21099  0.78071  1.0000
  C   C12       1.0  0.72343  0.78847  0.21928  1.0000
  C   C13       1.0  0.14472  0.67996  0.81162  1.0000
  C   C14       1.0  0.63568  0.31998  0.18836  1.0000
  C   C15       1.0  0.70598  0.17996  0.68842  1.0000
  C   C16       1.0  0.57499  0.81997  0.31158  1.0000
  C   C17       1.0  0.97197  0.64031  0.81258  1.0000
  C   C18       1.0  0.42439  0.35939  0.18738  1.0000
  C   C19       1.0  0.53423  0.14035  0.68737  1.0000
  C   C20       1.0  0.36252  0.85985  0.31264  1.0000
  C   C21       1.0  0.20271  0.68686  0.90710  1.0000
  C   C22       1.0  0.79632  0.31281  0.09288  1.0000
  C   C23       1.0  0.85954  0.18698  0.59295  1.0000
  C   C24       1.0  0.64018  0.81282  0.40703  1.0000
  N   N1        1.0  0.03122  0.67481  0.63401  1.0000
  N   N2        1.0  0.33920  0.32568  0.36600  1.0000
  N   N3        1.0  0.41491  0.17447  0.86597  1.0000
  N   N4        1.0  0.45589  0.82540  0.13406  1.0000
  O   O1        1.0  0.11802  0.62838  0.98739  1.0000
  O   O2        1.0  0.73373  0.37112  0.01253  1.0000
  O   O3        1.0  0.85506  0.12877  0.51262  1.0000
  O   O4        1.0  0.49734  0.87059  0.48741  1.0000
  O   O5        1.0  0.34264  0.75595  0.89709  1.0000
  O   O6        1.0  0.99521  0.24401  0.10296  1.0000
  O   O7        1.0  0.98955  0.25590  0.60306  1.0000
  O   O8        1.0  0.84913  0.74432  0.39688  1.0000
