data_image0
_chemical_formula_structural       Zn2H36C52N8O10
_chemical_formula_sum              "Zn2 H36 C52 N8 O10"
_cell_length_a       10.2346
_cell_length_b       10.972
_cell_length_c       11.6804
_cell_angle_alpha    84.3715
_cell_angle_beta     77.867
_cell_angle_gamma    62.1774

_space_group_name_H-M_alt    "P 1"
_space_group_IT_number       1

loop_
  _space_group_symop_operation_xyz
  'x, y, z'

loop_
  _atom_site_type_symbol
  _atom_site_label
  _atom_site_symmetry_multiplicity
  _atom_site_fract_x
  _atom_site_fract_y
  _atom_site_fract_z
  _atom_site_occupancy
  Zn  Zn1       1.0  0.20412  0.59157  0.25003  1.0000
  Zn  Zn2       1.0  0.79588  0.40843  0.74997  1.0000
  H   H1        1.0  0.19796  0.08377  0.77338  1.0000
  H   H2        1.0  0.71789  0.08367  0.72664  1.0000
  H   H3        1.0  0.80204  0.91623  0.22662  1.0000
  H   H4        1.0  0.28211  0.91633  0.27336  1.0000
  H   H5        1.0  0.08965  0.95734  0.91849  1.0000
  H   H6        1.0  0.95250  0.95730  0.58143  1.0000
  H   H7        1.0  0.91035  0.04266  0.08151  1.0000
  H   H8        1.0  0.04750  0.04270  0.41857  1.0000
  H   H9        1.0  0.54216  0.29506  0.67893  1.0000
  H   H10       1.0  0.16279  0.29531  0.82097  1.0000
  H   H11       1.0  0.45784  0.70494  0.32107  1.0000
  H   H12       1.0  0.83721  0.70469  0.17903  1.0000
  H   H13       1.0  0.61605  0.87083  0.89840  1.0000
  H   H14       1.0  0.51266  0.87075  0.60179  1.0000
  H   H15       1.0  0.38395  0.12917  0.10160  1.0000
  H   H16       1.0  0.48734  0.12925  0.39821  1.0000
  H   H17       1.0  0.71518  0.22646  0.48505  1.0000
  H   H18       1.0  0.05852  0.22659  0.01468  1.0000
  H   H19       1.0  0.28482  0.77354  0.51495  1.0000
  H   H20       1.0  0.94148  0.77341  0.98532  1.0000
  H   H21       1.0  0.50580  0.74391  0.04478  1.0000
  H   H22       1.0  0.74993  0.74388  0.45526  1.0000
  H   H23       1.0  0.49420  0.25609  0.95522  1.0000
  H   H24       1.0  0.25007  0.25612  0.54474  1.0000
  H   H25       1.0  0.53099  0.40065  0.17222  1.0000
  H   H26       1.0  0.06856  0.40033  0.32772  1.0000
  H   H27       1.0  0.46901  0.59935  0.82778  1.0000
  H   H28       1.0  0.93144  0.59967  0.67228  1.0000
  H   H29       1.0  0.24351  0.50122  0.49500  1.0000
  H   H30       1.0  0.25509  0.50144  0.00506  1.0000
  H   H31       1.0  0.75650  0.49878  0.50500  1.0000
  H   H32       1.0  0.74491  0.49856  0.99494  1.0000
  H   H33       1.0  0.75241  0.24808  0.26500  1.0000
  H   H34       1.0  0.99969  0.24798  0.23475  1.0000
  H   H35       1.0  0.24759  0.75192  0.73500  1.0000
  H   H36       1.0  0.00031  0.75202  0.76525  1.0000
  C   C1        1.0  0.29216  0.84030  0.98921  1.0000
  C   C2        1.0  0.86702  0.84030  0.51081  1.0000
  C   C3        1.0  0.70784  0.15970  0.01079  1.0000
  C   C4        1.0  0.13298  0.15969  0.48919  1.0000
  C   C5        1.0  0.26513  0.00881  0.83260  1.0000
  C   C6        1.0  0.72556  0.00874  0.66745  1.0000
  C   C7        1.0  0.73487  0.99119  0.16740  1.0000
  C   C8        1.0  0.27444  0.99126  0.33254  1.0000
  C   C9        1.0  0.20534  0.93728  0.91359  1.0000
  C   C10       1.0  0.85686  0.93725  0.58640  1.0000
  C   C11       1.0  0.79466  0.06272  0.08641  1.0000
  C   C12       1.0  0.14314  0.06275  0.41360  1.0000
  C   C13       1.0  0.22754  0.76254  0.07447  1.0000
  C   C14       1.0  0.00949  0.76251  0.42558  1.0000
  C   C15       1.0  0.77246  0.23746  0.92553  1.0000
  C   C16       1.0  0.99051  0.23749  0.57442  1.0000
  C   C17       1.0  0.44607  0.34992  0.63434  1.0000
  C   C18       1.0  0.20393  0.35023  0.86555  1.0000
  C   C19       1.0  0.55393  0.65008  0.36566  1.0000
  C   C20       1.0  0.79607  0.64977  0.13445  1.0000
  C   C21       1.0  0.47479  0.35893  0.50696  1.0000
  C   C22       1.0  0.16621  0.35918  0.99292  1.0000
  C   C23       1.0  0.52521  0.64107  0.49304  1.0000
  C   C24       1.0  0.83379  0.64082  0.00708  1.0000
  C   C25       1.0  0.41346  0.98236  0.82748  1.0000
  C   C26       1.0  0.60367  0.98231  0.67266  1.0000
  C   C27       1.0  0.58654  0.01764  0.17252  1.0000
  C   C28       1.0  0.39633  0.01769  0.32733  1.0000
  C   C29       1.0  0.50157  0.88720  0.90304  1.0000
  C   C30       1.0  0.61078  0.88709  0.59714  1.0000
  C   C31       1.0  0.49843  0.11280  0.09696  1.0000
  C   C32       1.0  0.38922  0.11291  0.40286  1.0000
  C   C33       1.0  0.62036  0.28797  0.44096  1.0000
  C   C34       1.0  0.09176  0.28808  0.05885  1.0000
  C   C35       1.0  0.37964  0.71203  0.55904  1.0000
  C   C36       1.0  0.90824  0.71192  0.94115  1.0000
  C   C37       1.0  0.44039  0.81707  0.98381  1.0000
  C   C38       1.0  0.74207  0.81701  0.51629  1.0000
  C   C39       1.0  0.55961  0.18293  0.01619  1.0000
  C   C40       1.0  0.25793  0.18299  0.48371  1.0000
  C   C41       1.0  0.51926  0.38537  0.26672  1.0000
  C   C42       1.0  0.09553  0.38521  0.23320  1.0000
  C   C43       1.0  0.48074  0.61463  0.73327  1.0000
  C   C44       1.0  0.90447  0.61479  0.76680  1.0000
  C   C45       1.0  0.35765  0.44203  0.44708  1.0000
  C   C46       1.0  0.20025  0.44217  0.05291  1.0000
  C   C47       1.0  0.64235  0.55797  0.55292  1.0000
  C   C48       1.0  0.79975  0.55783  0.94709  1.0000
  C   C49       1.0  0.64161  0.30122  0.31944  1.0000
  C   C50       1.0  0.05729  0.30119  0.18038  1.0000
  C   C51       1.0  0.35839  0.69878  0.68055  1.0000
  C   C52       1.0  0.94271  0.69881  0.81962  1.0000
  N   N1        1.0  0.30933  0.40660  0.69139  1.0000
  N   N2        1.0  0.28409  0.40674  0.80848  1.0000
  N   N3        1.0  0.69067  0.59340  0.30861  1.0000
  N   N4        1.0  0.71591  0.59326  0.19151  1.0000
  N   N5        1.0  0.37970  0.45537  0.33050  1.0000
  N   N6        1.0  0.16497  0.45531  0.16951  1.0000
  N   N7        1.0  0.62030  0.54463  0.66950  1.0000
  N   N8        1.0  0.83504  0.54469  0.83049  1.0000
  O   O1        1.0  0.47078  0.05798  0.75010  1.0000
  O   O2        1.0  0.52922  0.94202  0.24990  1.0000
  O   O3        1.0  0.09448  0.78419  0.08133  1.0000
  O   O4        1.0  0.12091  0.78411  0.41886  1.0000
  O   O5        1.0  0.90552  0.21581  0.91867  1.0000
  O   O6        1.0  0.87909  0.21589  0.58114  1.0000
  O   O7        1.0  0.31750  0.67204  0.13937  1.0000
  O   O8        1.0  0.01011  0.67212  0.36056  1.0000
  O   O9        1.0  0.68250  0.32796  0.86063  1.0000
  O   O10       1.0  0.98989  0.32788  0.63944  1.0000
