data_image0
_chemical_formula_structural       H24Pb2C26N8Cl4O2
_chemical_formula_sum              "H24 Pb2 C26 N8 Cl4 O2"
_cell_length_a       7.83721
_cell_length_b       8.69683
_cell_length_c       11.0477
_cell_angle_alpha    100.844
_cell_angle_beta     93.0656
_cell_angle_gamma    95.1053

_space_group_name_H-M_alt    "P 1"
_space_group_IT_number       1

loop_
  _space_group_symop_operation_xyz
  'x, y, z'

loop_
  _atom_site_type_symbol
  _atom_site_label
  _atom_site_symmetry_multiplicity
  _atom_site_fract_x
  _atom_site_fract_y
  _atom_site_fract_z
  _atom_site_occupancy
  H   H1        1.0  0.19773  0.85156  0.31816  1.0000
  H   H2        1.0  0.80227  0.14844  0.68184  1.0000
  H   H3        1.0  0.77953  0.74597  0.53920  1.0000
  H   H4        1.0  0.22047  0.25403  0.46079  1.0000
  H   H5        1.0  0.59936  0.89578  0.41878  1.0000
  H   H6        1.0  0.40064  0.10422  0.58122  1.0000
  H   H7        1.0  0.72867  0.01548  0.25160  1.0000
  H   H8        1.0  0.27133  0.98452  0.74840  1.0000
  H   H9        1.0  0.31297  0.63016  0.67640  1.0000
  H   H10       1.0  0.68703  0.36984  0.32360  1.0000
  H   H11       1.0  0.50194  0.19951  0.01442  1.0000
  H   H12       1.0  0.49806  0.80049  0.98558  1.0000
  H   H13       1.0  0.64415  0.33407  0.86136  1.0000
  H   H14       1.0  0.35585  0.66593  0.13864  1.0000
  H   H15       1.0  0.04046  0.37869  0.94769  1.0000
  H   H16       1.0  0.95954  0.62131  0.05232  1.0000
  H   H17       1.0  0.47638  0.50156  0.74840  1.0000
  H   H18       1.0  0.52362  0.49845  0.25161  1.0000
  H   H19       1.0  0.38847  0.72696  0.47497  1.0000
  H   H20       1.0  0.61153  0.27304  0.52502  1.0000
  H   H21       1.0  0.25345  0.61276  0.34709  1.0000
  H   H22       1.0  0.74655  0.38724  0.65291  1.0000
  H   H23       1.0  0.30748  0.53181  0.47807  1.0000
  H   H24       1.0  0.69252  0.46819  0.52193  1.0000
  Pb  Pb1       1.0  0.12442  0.15623  0.15967  1.0000
  Pb  Pb2       1.0  0.87559  0.84377  0.84033  1.0000
  C   C1        1.0  0.06504  0.85584  0.34310  1.0000
  C   C2        1.0  0.93496  0.14415  0.65690  1.0000
  C   C3        1.0  0.00457  0.78312  0.43795  1.0000
  C   C4        1.0  0.99542  0.21689  0.56205  1.0000
  C   C5        1.0  0.83326  0.79859  0.46573  1.0000
  C   C6        1.0  0.16675  0.20142  0.53427  1.0000
  C   C7        1.0  0.73247  0.88188  0.39906  1.0000
  C   C8        1.0  0.26753  0.11812  0.60094  1.0000
  C   C9        1.0  0.80414  0.94955  0.30619  1.0000
  C   C10       1.0  0.19587  0.05045  0.69381  1.0000
  C   C11       1.0  0.43118  0.27224  0.96332  1.0000
  C   C12       1.0  0.56882  0.72776  0.03668  1.0000
  C   C13       1.0  0.50971  0.34735  0.87690  1.0000
  C   C14       1.0  0.49028  0.65265  0.12310  1.0000
  C   C15       1.0  0.24238  0.45285  0.83873  1.0000
  C   C16       1.0  0.75762  0.54715  0.16127  1.0000
  C   C17       1.0  0.17452  0.37356  0.92733  1.0000
  C   C18       1.0  0.82548  0.62645  0.07266  1.0000
  C   C19       1.0  0.41489  0.43955  0.81417  1.0000
  C   C20       1.0  0.58511  0.56045  0.18583  1.0000
  C   C21       1.0  0.12067  0.53767  0.77393  1.0000
  C   C22       1.0  0.87933  0.46233  0.22607  1.0000
  C   C23       1.0  0.11909  0.69768  0.50592  1.0000
  C   C24       1.0  0.88091  0.30232  0.49408  1.0000
  C   C25       1.0  0.27592  0.63976  0.44781  1.0000
  C   C26       1.0  0.72408  0.36024  0.55219  1.0000
  N   N1        1.0  0.96819  0.93738  0.27976  1.0000
  N   N2        1.0  0.03181  0.06263  0.72024  1.0000
  N   N3        1.0  0.26684  0.28667  0.98847  1.0000
  N   N4        1.0  0.73316  0.71333  0.01153  1.0000
  N   N5        1.0  0.07275  0.67664  0.61357  1.0000
  N   N6        1.0  0.92725  0.32336  0.38643  1.0000
  N   N7        1.0  0.18206  0.60350  0.67993  1.0000
  N   N8        1.0  0.81795  0.39650  0.32006  1.0000
  Cl  Cl1       1.0  0.19266  0.88249  0.99847  1.0000
  Cl  Cl2       1.0  0.80734  0.11751  0.00153  1.0000
  Cl  Cl3       1.0  0.44979  0.20210  0.29475  1.0000
  Cl  Cl4       1.0  0.55021  0.79790  0.70524  1.0000
  O   O1        1.0  0.96749  0.53899  0.80010  1.0000
  O   O2        1.0  0.03251  0.46101  0.19990  1.0000
