data_image0
_chemical_formula_structural       Na2Cu4H38C24O24
_chemical_formula_sum              "Na2 Cu4 H38 C24 O24"
_cell_length_a       8.05251
_cell_length_b       11.5756
_cell_length_c       11.5755
_cell_angle_alpha    101.832
_cell_angle_beta     104.952
_cell_angle_gamma    104.952

_space_group_name_H-M_alt    "P 1"
_space_group_IT_number       1

loop_
  _space_group_symop_operation_xyz
  'x, y, z'

loop_
  _atom_site_type_symbol
  _atom_site_label
  _atom_site_symmetry_multiplicity
  _atom_site_fract_x
  _atom_site_fract_y
  _atom_site_fract_z
  _atom_site_occupancy
  Na  Na1       1.0  0.25000  0.60507  0.39493  1.0000
  Na  Na2       1.0  0.75000  0.39493  0.60507  1.0000
  Cu  Cu1       1.0  0.95560  0.48672  0.09563  1.0000
  Cu  Cu2       1.0  0.54440  0.90437  0.51328  1.0000
  Cu  Cu3       1.0  0.04440  0.51327  0.90435  1.0000
  Cu  Cu4       1.0  0.45560  0.09564  0.48673  1.0000
  H   H1        1.0  0.60564  0.23716  0.26972  1.0000
  H   H2        1.0  0.89436  0.73028  0.76284  1.0000
  H   H3        1.0  0.39436  0.76284  0.73029  1.0000
  H   H4        1.0  0.10564  0.26972  0.23716  1.0000
  H   H5        1.0  0.70520  0.25584  0.14885  1.0000
  H   H6        1.0  0.79480  0.85115  0.74416  1.0000
  H   H7        1.0  0.29480  0.74416  0.85116  1.0000
  H   H8        1.0  0.20520  0.14885  0.25584  1.0000
  H   H9        1.0  0.56623  0.34434  0.18212  1.0000
  H   H10       1.0  0.93378  0.81788  0.65567  1.0000
  H   H11       1.0  0.43378  0.65566  0.81789  1.0000
  H   H12       1.0  0.06622  0.18212  0.34434  1.0000
  H   H13       1.0  0.14656  0.14624  0.93689  1.0000
  H   H14       1.0  0.35344  0.06311  0.85376  1.0000
  H   H15       1.0  0.85344  0.85375  0.06310  1.0000
  H   H16       1.0  0.64656  0.93689  0.14625  1.0000
  H   H17       1.0  0.94827  0.08991  0.97856  1.0000
  H   H18       1.0  0.55172  0.02144  0.91010  1.0000
  H   H19       1.0  0.05172  0.91010  0.02143  1.0000
  H   H20       1.0  0.44828  0.97856  0.08990  1.0000
  H   H21       1.0  0.92891  0.08971  0.82025  1.0000
  H   H22       1.0  0.57108  0.17975  0.91029  1.0000
  H   H23       1.0  0.07109  0.91027  0.17974  1.0000
  H   H24       1.0  0.42892  0.82025  0.08972  1.0000
  H   H25       1.0  0.59026  0.70102  0.24346  1.0000
  H   H26       1.0  0.90975  0.75655  0.29899  1.0000
  H   H27       1.0  0.40973  0.29898  0.75655  1.0000
  H   H28       1.0  0.09026  0.24345  0.70101  1.0000
  H   H29       1.0  0.55301  0.55420  0.27290  1.0000
  H   H30       1.0  0.94698  0.72710  0.44580  1.0000
  H   H31       1.0  0.44697  0.44580  0.72710  1.0000
  H   H32       1.0  0.05302  0.27290  0.55420  1.0000
  H   H33       1.0  0.61718  0.57529  0.13820  1.0000
  H   H34       1.0  0.88282  0.86180  0.42472  1.0000
  H   H35       1.0  0.38283  0.42472  0.86181  1.0000
  H   H36       1.0  0.11717  0.13820  0.57528  1.0000
  H   H37       1.0  1.00000  0.50000  0.50000  1.0000
  H   H38       1.0  0.50000  0.50000  0.50000  1.0000
  C   C1        1.0  0.83137  0.40702  0.31662  1.0000
  C   C2        1.0  0.66864  0.68338  0.59298  1.0000
  C   C3        1.0  0.16865  0.59299  0.68337  1.0000
  C   C4        1.0  0.33136  0.31662  0.40702  1.0000
  C   C5        1.0  0.66634  0.30328  0.22476  1.0000
  C   C6        1.0  0.83366  0.77524  0.69672  1.0000
  C   C7        1.0  0.33366  0.69672  0.77524  1.0000
  C   C8        1.0  0.16634  0.22476  0.30328  1.0000
  C   C9        1.0  0.99519  0.27190  0.94820  1.0000
  C   C10       1.0  0.50482  0.05179  0.72811  1.0000
  C   C11       1.0  0.00482  0.72810  0.05176  1.0000
  C   C12       1.0  0.49518  0.94822  0.27190  1.0000
  C   C13       1.0  0.00323  0.14029  0.91920  1.0000
  C   C14       1.0  0.49677  0.08080  0.85971  1.0000
  C   C15       1.0  0.99677  0.85970  0.08079  1.0000
  C   C16       1.0  0.50323  0.91920  0.14030  1.0000
  C   C17       1.0  0.34190  0.56579  0.12337  1.0000
  C   C18       1.0  0.15811  0.87662  0.43422  1.0000
  C   C19       1.0  0.65810  0.43420  0.87661  1.0000
  C   C20       1.0  0.84189  0.12339  0.56579  1.0000
  C   C21       1.0  0.53909  0.59963  0.19838  1.0000
  C   C22       1.0  0.96091  0.80162  0.40037  1.0000
  C   C23       1.0  0.46090  0.40037  0.80162  1.0000
  C   C24       1.0  0.03909  0.19838  0.59963  1.0000
  O   O1        1.0  0.93719  0.48131  0.28099  1.0000
  O   O2        1.0  0.56281  0.71902  0.51868  1.0000
  O   O3        1.0  0.06280  0.51868  0.71902  1.0000
  O   O4        1.0  0.43718  0.28099  0.48131  1.0000
  O   O5        1.0  0.85963  0.41649  0.43440  1.0000
  O   O6        1.0  0.64037  0.56560  0.58352  1.0000
  O   O7        1.0  0.14037  0.58352  0.56561  1.0000
  O   O8        1.0  0.35963  0.43440  0.41649  1.0000
  O   O9        1.0  0.95136  0.30993  0.04388  1.0000
  O   O10       1.0  0.54864  0.95612  0.69008  1.0000
  O   O11       1.0  0.04863  0.69007  0.95609  1.0000
  O   O12       1.0  0.45136  0.04389  0.30993  1.0000
  O   O13       1.0  0.03563  0.33503  0.87530  1.0000
  O   O14       1.0  0.46438  0.12470  0.66497  1.0000
  O   O15       1.0  0.96438  0.66496  0.12468  1.0000
  O   O16       1.0  0.53562  0.87530  0.33504  1.0000
  O   O17       1.0  0.30351  0.56504  0.00918  1.0000
  O   O18       1.0  0.19650  0.99083  0.43497  1.0000
  O   O19       1.0  0.69649  0.43497  0.99083  1.0000
  O   O20       1.0  0.80351  0.00918  0.56503  1.0000
  O   O21       1.0  0.22572  0.54233  0.18010  1.0000
  O   O22       1.0  0.27428  0.81989  0.45767  1.0000
  O   O23       1.0  0.77427  0.45765  0.81989  1.0000
  O   O24       1.0  0.72573  0.18011  0.54234  1.0000
