data_image0
_chemical_formula_structural       Na2H10C14O6
_chemical_formula_sum              "Na2 H10 C14 O6"
_cell_length_a       3.55807
_cell_length_b       5.30983
_cell_length_c       16.0801
_cell_angle_alpha    90.0005
_cell_angle_beta     89.6663
_cell_angle_gamma    90.0003

_space_group_name_H-M_alt    "P 1"
_space_group_IT_number       1

loop_
  _space_group_symop_operation_xyz
  'x, y, z'

loop_
  _atom_site_type_symbol
  _atom_site_label
  _atom_site_symmetry_multiplicity
  _atom_site_fract_x
  _atom_site_fract_y
  _atom_site_fract_z
  _atom_site_occupancy
  Na  Na1       1.0  0.74007  0.14438  0.05498  1.0000
  Na  Na2       1.0  0.25989  0.64436  0.94502  1.0000
  H   H1        1.0  0.43635  0.41865  0.40278  1.0000
  H   H2        1.0  0.56367  0.91861  0.59722  1.0000
  H   H3        1.0  0.90772  0.13383  0.35790  1.0000
  H   H4        1.0  0.09227  0.63379  0.64209  1.0000
  H   H5        1.0  0.47787  0.34562  0.24951  1.0000
  H   H6        1.0  0.52209  0.84560  0.75048  1.0000
  H   H7        1.0  0.98112  0.06939  0.20618  1.0000
  H   H8        1.0  0.01886  0.56938  0.79381  1.0000
  H   H9        1.0  0.02773  0.97301  0.48731  1.0000
  H   H10       1.0  0.97230  0.47299  0.51269  1.0000
  C   C1        1.0  0.16367  0.77771  0.38908  1.0000
  C   C2        1.0  0.83638  0.27769  0.61092  1.0000
  C   C3        1.0  0.32906  0.55709  0.35886  1.0000
  C   C4        1.0  0.67098  0.05706  0.64114  1.0000
  C   C5        1.0  0.03564  0.96180  0.33412  1.0000
  C   C6        1.0  0.96437  0.46177  0.66588  1.0000
  C   C7        1.0  0.35312  0.51807  0.27355  1.0000
  C   C8        1.0  0.64691  0.01806  0.72646  1.0000
  C   C9        1.0  0.07166  0.92287  0.24898  1.0000
  C   C10       1.0  0.92836  0.42285  0.75102  1.0000
  C   C11       1.0  0.22334  0.69900  0.21727  1.0000
  C   C12       1.0  0.77669  0.19899  0.78273  1.0000
  C   C13       1.0  0.24244  0.65327  0.12526  1.0000
  C   C14       1.0  0.75754  0.15326  0.87474  1.0000
  O   O1        1.0  0.12862  0.80406  0.47415  1.0000
  O   O2        1.0  0.87142  0.30403  0.52585  1.0000
  O   O3        1.0  0.27602  0.42776  0.09928  1.0000
  O   O4        1.0  0.72396  0.92775  0.90072  1.0000
  O   O5        1.0  0.22116  0.84455  0.07696  1.0000
  O   O6        1.0  0.77877  0.34453  0.92304  1.0000
