data_image0
_chemical_formula_structural       Cd2H32C48I4N4
_chemical_formula_sum              "Cd2 H32 C48 I4 N4"
_cell_length_a       7.1848
_cell_length_b       7.18613
_cell_length_c       22.8021
_cell_angle_alpha    90.0032
_cell_angle_beta     90.0049
_cell_angle_gamma    95.4993

_space_group_name_H-M_alt    "P 1"
_space_group_IT_number       1

loop_
  _space_group_symop_operation_xyz
  'x, y, z'

loop_
  _atom_site_type_symbol
  _atom_site_label
  _atom_site_symmetry_multiplicity
  _atom_site_fract_x
  _atom_site_fract_y
  _atom_site_fract_z
  _atom_site_occupancy
  Cd  Cd1       1.0  0.02485  0.97510  0.75000  1.0000
  Cd  Cd2       1.0  0.97514  0.02489  0.25000  1.0000
  H   H1        1.0  0.67888  0.89180  0.66362  1.0000
  H   H2        1.0  0.32104  0.10822  0.16362  1.0000
  H   H3        1.0  0.89178  0.67903  0.33634  1.0000
  H   H4        1.0  0.10821  0.32100  0.83636  1.0000
  H   H5        1.0  0.32110  0.10820  0.33639  1.0000
  H   H6        1.0  0.67893  0.89179  0.83637  1.0000
  H   H7        1.0  0.10825  0.32093  0.66364  1.0000
  H   H8        1.0  0.89178  0.67898  0.16365  1.0000
  H   H9        1.0  0.50227  0.05040  0.58704  1.0000
  H   H10       1.0  0.49765  0.94966  0.08704  1.0000
  H   H11       1.0  0.05030  0.50238  0.41292  1.0000
  H   H12       1.0  0.94968  0.49762  0.91294  1.0000
  H   H13       1.0  0.49769  0.94963  0.41297  1.0000
  H   H14       1.0  0.50233  0.05034  0.91295  1.0000
  H   H15       1.0  0.94974  0.49759  0.58706  1.0000
  H   H16       1.0  0.05030  0.50237  0.08706  1.0000
  H   H17       1.0  0.82956  0.17045  0.48470  1.0000
  H   H18       1.0  0.17046  0.82958  0.98470  1.0000
  H   H19       1.0  0.17046  0.82957  0.51529  1.0000
  H   H20       1.0  0.82955  0.17046  0.01530  1.0000
  H   H21       1.0  0.86535  0.13465  0.37767  1.0000
  H   H22       1.0  0.13465  0.86534  0.87766  1.0000
  H   H23       1.0  0.13466  0.86536  0.62233  1.0000
  H   H24       1.0  0.86533  0.13466  0.12234  1.0000
  H   H25       1.0  0.68334  0.31672  0.30843  1.0000
  H   H26       1.0  0.31666  0.68327  0.80843  1.0000
  H   H27       1.0  0.31668  0.68329  0.69156  1.0000
  H   H28       1.0  0.68328  0.31671  0.19157  1.0000
  H   H29       1.0  0.46702  0.53305  0.34575  1.0000
  H   H30       1.0  0.53299  0.46694  0.84575  1.0000
  H   H31       1.0  0.53301  0.46696  0.65424  1.0000
  H   H32       1.0  0.46697  0.53304  0.15425  1.0000
  C   C1        1.0  0.73423  0.02576  0.64505  1.0000
  C   C2        1.0  0.26571  0.97425  0.14505  1.0000
  C   C3        1.0  0.02575  0.73433  0.35493  1.0000
  C   C4        1.0  0.97425  0.26569  0.85494  1.0000
  C   C5        1.0  0.26575  0.97425  0.35495  1.0000
  C   C6        1.0  0.73427  0.02575  0.85495  1.0000
  C   C7        1.0  0.97427  0.26565  0.64506  1.0000
  C   C8        1.0  0.02574  0.73430  0.14506  1.0000
  C   C9        1.0  0.63715  0.11454  0.60222  1.0000
  C   C10       1.0  0.36280  0.88548  0.10222  1.0000
  C   C11       1.0  0.11451  0.63722  0.39776  1.0000
  C   C12       1.0  0.88549  0.36278  0.89777  1.0000
  C   C13       1.0  0.36283  0.88546  0.39779  1.0000
  C   C14       1.0  0.63719  0.11452  0.89778  1.0000
  C   C15       1.0  0.88552  0.36276  0.60223  1.0000
  C   C16       1.0  0.11450  0.63720  0.10224  1.0000
  C   C17       1.0  0.71097  0.28903  0.58101  1.0000
  C   C18       1.0  0.28902  0.71097  0.08101  1.0000
  C   C19       1.0  0.28903  0.71097  0.41899  1.0000
  C   C20       1.0  0.71097  0.28903  0.91899  1.0000
  C   C21       1.0  0.60351  0.39650  0.53930  1.0000
  C   C22       1.0  0.39649  0.60350  0.03930  1.0000
  C   C23       1.0  0.39651  0.60350  0.46070  1.0000
  C   C24       1.0  0.60350  0.39650  0.96071  1.0000
  C   C25       1.0  0.62561  0.37441  0.47834  1.0000
  C   C26       1.0  0.37441  0.62561  0.97834  1.0000
  C   C27       1.0  0.37441  0.62559  0.52166  1.0000
  C   C28       1.0  0.62559  0.37441  0.02166  1.0000
  C   C29       1.0  0.74998  0.25003  0.45456  1.0000
  C   C30       1.0  0.25004  0.74999  0.95456  1.0000
  C   C31       1.0  0.25004  0.74998  0.54543  1.0000
  C   C32       1.0  0.74997  0.25004  0.04544  1.0000
  C   C33       1.0  0.76980  0.23022  0.39499  1.0000
  C   C34       1.0  0.23022  0.76979  0.89499  1.0000
  C   C35       1.0  0.23022  0.76980  0.60501  1.0000
  C   C36       1.0  0.76978  0.23022  0.10502  1.0000
  C   C37       1.0  0.66629  0.33376  0.35559  1.0000
  C   C38       1.0  0.33373  0.66624  0.85559  1.0000
  C   C39       1.0  0.33373  0.66625  0.64440  1.0000
  C   C40       1.0  0.66625  0.33375  0.14441  1.0000
  C   C41       1.0  0.54527  0.45479  0.37659  1.0000
  C   C42       1.0  0.45475  0.54522  0.87659  1.0000
  C   C43       1.0  0.45476  0.54521  0.62341  1.0000
  C   C44       1.0  0.54523  0.45478  0.12341  1.0000
  C   C45       1.0  0.47981  0.52018  0.56178  1.0000
  C   C46       1.0  0.52018  0.47982  0.06178  1.0000
  C   C47       1.0  0.52021  0.47982  0.43822  1.0000
  C   C48       1.0  0.47981  0.52019  0.93822  1.0000
  I   I1        1.0  0.38303  0.14020  0.75000  1.0000
  I   I2        1.0  0.61696  0.85979  0.25000  1.0000
  I   I3        1.0  0.14028  0.38300  0.25000  1.0000
  I   I4        1.0  0.85973  0.61698  0.75000  1.0000
  N   N1        1.0  0.89884  0.10110  0.66670  1.0000
  N   N2        1.0  0.10113  0.89888  0.16670  1.0000
  N   N3        1.0  0.10116  0.89889  0.33329  1.0000
  N   N4        1.0  0.89886  0.10111  0.83330  1.0000
