data_image0
_chemical_formula_structural       CdSi2H60C66I2N4O6
_chemical_formula_sum              "Cd1 Si2 H60 C66 I2 N4 O6"
_cell_length_a       7.80406
_cell_length_b       14.057
_cell_length_c       14.4174
_cell_angle_alpha    69.7076
_cell_angle_beta     87.6018
_cell_angle_gamma    87.6705

_space_group_name_H-M_alt    "P 1"
_space_group_IT_number       1

loop_
  _space_group_symop_operation_xyz
  'x, y, z'

loop_
  _atom_site_type_symbol
  _atom_site_label
  _atom_site_symmetry_multiplicity
  _atom_site_fract_x
  _atom_site_fract_y
  _atom_site_fract_z
  _atom_site_occupancy
  Cd  Cd1       1.0  0.50000  1.00000  0.50000  1.0000
  Si  Si1       1.0  0.18477  0.37639  0.88089  1.0000
  Si  Si2       1.0  0.81523  0.62361  0.11911  1.0000
  H   H1        1.0  0.54881  0.08273  0.68147  1.0000
  H   H2        1.0  0.45120  0.91726  0.31853  1.0000
  H   H3        1.0  0.40287  0.08431  0.83847  1.0000
  H   H4        1.0  0.59713  0.91569  0.16152  1.0000
  H   H5        1.0  0.97058  0.94595  0.76145  1.0000
  H   H6        1.0  0.02942  0.05405  0.23855  1.0000
  H   H7        1.0  0.12977  0.95480  0.60700  1.0000
  H   H8        1.0  0.87023  0.04519  0.39300  1.0000
  H   H9        1.0  0.92510  0.13860  0.74873  1.0000
  H   H10       1.0  0.07491  0.86141  0.25127  1.0000
  H   H11       1.0  0.66143  0.23927  0.75129  1.0000
  H   H12       1.0  0.33857  0.76074  0.24870  1.0000
  H   H13       1.0  0.51381  0.22874  0.91055  1.0000
  H   H14       1.0  0.48619  0.77126  0.08945  1.0000
  H   H15       1.0  0.37073  0.88452  0.93160  1.0000
  H   H16       1.0  0.62927  0.11548  0.06840  1.0000
  H   H17       1.0  0.46197  0.24361  0.43317  1.0000
  H   H18       1.0  0.53803  0.75638  0.56683  1.0000
  H   H19       1.0  0.60269  0.39994  0.43315  1.0000
  H   H20       1.0  0.39730  0.60006  0.56685  1.0000
  H   H21       1.0  0.04227  0.21100  0.56275  1.0000
  H   H22       1.0  0.95773  0.78900  0.43725  1.0000
  H   H23       1.0  0.88064  0.06234  0.55958  1.0000
  H   H24       1.0  0.11936  0.93766  0.44042  1.0000
  H   H25       1.0  0.63433  0.36610  0.61958  1.0000
  H   H26       1.0  0.36567  0.63390  0.38042  1.0000
  H   H27       1.0  0.51726  0.45937  0.72504  1.0000
  H   H28       1.0  0.48275  0.54063  0.27497  1.0000
  H   H29       1.0  0.65286  0.61987  0.71999  1.0000
  H   H30       1.0  0.34715  0.38013  0.28001  1.0000
  H   H31       1.0  0.09254  0.31913  0.38402  1.0000
  H   H32       1.0  0.90746  0.68087  0.61598  1.0000
  H   H33       1.0  0.29879  0.29460  0.67366  1.0000
  H   H34       1.0  0.70121  0.70540  0.32634  1.0000
  H   H35       1.0  0.22040  0.41993  0.65965  1.0000
  H   H36       1.0  0.77960  0.58007  0.34035  1.0000
  H   H37       1.0  0.08237  0.31477  0.71088  1.0000
  H   H38       1.0  0.91763  0.68523  0.28912  1.0000
  H   H39       1.0  0.72299  0.38424  0.90607  1.0000
  H   H40       1.0  0.27701  0.61576  0.09393  1.0000
  H   H41       1.0  0.85386  0.48086  0.91774  1.0000
  H   H42       1.0  0.14614  0.51914  0.08226  1.0000
  H   H43       1.0  0.85971  0.35625  0.00885  1.0000
  H   H44       1.0  0.14030  0.64375  0.99115  1.0000
  H   H45       1.0  0.27010  0.18464  0.11754  1.0000
  H   H46       1.0  0.72990  0.81536  0.88246  1.0000
  H   H47       1.0  0.25107  0.15725  0.00569  1.0000
  H   H48       1.0  0.74893  0.84275  0.99431  1.0000
  H   H49       1.0  0.06904  0.20421  0.05786  1.0000
  H   H50       1.0  0.93096  0.79580  0.94214  1.0000
  H   H51       1.0  0.01875  0.57356  0.77239  1.0000
  H   H52       1.0  0.98125  0.42644  0.22761  1.0000
  H   H53       1.0  0.09703  0.75206  0.73278  1.0000
  H   H54       1.0  0.90297  0.24794  0.26722  1.0000
  H   H55       1.0  0.37425  0.79237  0.79020  1.0000
  H   H56       1.0  0.62575  0.20763  0.20980  1.0000
  H   H57       1.0  0.56638  0.65226  0.89111  1.0000
  H   H58       1.0  0.43362  0.34774  0.10889  1.0000
  H   H59       1.0  0.48806  0.47361  0.92966  1.0000
  H   H60       1.0  0.51194  0.52639  0.07034  1.0000
  C   C1        1.0  0.41934  0.05470  0.70154  1.0000
  C   C2        1.0  0.58066  0.94530  0.29846  1.0000
  C   C3        1.0  0.33832  0.05436  0.78932  1.0000
  C   C4        1.0  0.66167  0.94564  0.21068  1.0000
  C   C5        1.0  0.17414  0.01418  0.81408  1.0000
  C   C6        1.0  0.82585  0.98582  0.18592  1.0000
  C   C7        1.0  0.09776  0.97823  0.74690  1.0000
  C   C8        1.0  0.90223  0.02177  0.25310  1.0000
  C   C9        1.0  0.18674  0.98288  0.66000  1.0000
  C   C10       1.0  0.81326  0.01712  0.34000  1.0000
  C   C11       1.0  0.08554  0.00759  0.90886  1.0000
  C   C12       1.0  0.91446  0.99241  0.09114  1.0000
  C   C13       1.0  0.93142  0.06412  0.90854  1.0000
  C   C14       1.0  0.06858  0.93588  0.09146  1.0000
  C   C15       1.0  0.15547  0.94324  0.99869  1.0000
  C   C16       1.0  0.84452  0.05676  0.00131  1.0000
  C   C17       1.0  0.85992  0.13138  0.81901  1.0000
  C   C18       1.0  0.14008  0.86863  0.18099  1.0000
  C   C19       1.0  0.71271  0.18771  0.82032  1.0000
  C   C20       1.0  0.28729  0.81229  0.17968  1.0000
  C   C21       1.0  0.62853  0.18171  0.91121  1.0000
  C   C22       1.0  0.37147  0.81829  0.08879  1.0000
  C   C23       1.0  0.30680  0.88165  0.00105  1.0000
  C   C24       1.0  0.69320  0.11835  0.99895  1.0000
  C   C25       1.0  0.59032  0.23995  0.46191  1.0000
  C   C26       1.0  0.40968  0.76005  0.53809  1.0000
  C   C27       1.0  0.66943  0.32654  0.46219  1.0000
  C   C28       1.0  0.33057  0.67346  0.53782  1.0000
  C   C29       1.0  0.83488  0.31894  0.49900  1.0000
  C   C30       1.0  0.16512  0.68106  0.50100  1.0000
  C   C31       1.0  0.91334  0.22211  0.53382  1.0000
  C   C32       1.0  0.08666  0.77789  0.46617  1.0000
  C   C33       1.0  0.82511  0.13915  0.53113  1.0000
  C   C34       1.0  0.17489  0.86085  0.46887  1.0000
  C   C35       1.0  0.92040  0.41057  0.50024  1.0000
  C   C36       1.0  0.07960  0.58944  0.49976  1.0000
  C   C37       1.0  0.84568  0.46681  0.55679  1.0000
  C   C38       1.0  0.15432  0.53319  0.44321  1.0000
  C   C39       1.0  0.07363  0.44217  0.44377  1.0000
  C   C40       1.0  0.92637  0.55783  0.55622  1.0000
  C   C41       1.0  0.69581  0.43456  0.61854  1.0000
  C   C42       1.0  0.30419  0.56544  0.38146  1.0000
  C   C43       1.0  0.62936  0.48708  0.67686  1.0000
  C   C44       1.0  0.37065  0.51292  0.32315  1.0000
  C   C45       1.0  0.70712  0.57717  0.67494  1.0000
  C   C46       1.0  0.29288  0.42283  0.32506  1.0000
  C   C47       1.0  0.14946  0.38866  0.38377  1.0000
  C   C48       1.0  0.85054  0.61134  0.61623  1.0000
  C   C49       1.0  0.21517  0.33948  0.70715  1.0000
  C   C50       1.0  0.78483  0.66052  0.29285  1.0000
  C   C51       1.0  0.84787  0.39935  0.92944  1.0000
  C   C52       1.0  0.15213  0.60065  0.07057  1.0000
  C   C53       1.0  0.20903  0.20878  0.04541  1.0000
  C   C54       1.0  0.79097  0.79122  0.95459  1.0000
  C   C55       1.0  0.24781  0.50986  0.85349  1.0000
  C   C56       1.0  0.75219  0.49014  0.14651  1.0000
  C   C57       1.0  0.13948  0.59018  0.79828  1.0000
  C   C58       1.0  0.86052  0.40982  0.20172  1.0000
  C   C59       1.0  0.18375  0.69127  0.77577  1.0000
  C   C60       1.0  0.81625  0.30873  0.22423  1.0000
  C   C61       1.0  0.33781  0.71377  0.80850  1.0000
  C   C62       1.0  0.66219  0.28623  0.19150  1.0000
  C   C63       1.0  0.44704  0.63510  0.86407  1.0000
  C   C64       1.0  0.55297  0.36490  0.13594  1.0000
  C   C65       1.0  0.40215  0.53429  0.88606  1.0000
  C   C66       1.0  0.59786  0.46571  0.11394  1.0000
  I   I1        1.0  0.25428  0.13333  0.35566  1.0000
  I   I2        1.0  0.74572  0.86666  0.64434  1.0000
  N   N1        1.0  0.34507  0.01967  0.63769  1.0000
  N   N2        1.0  0.65493  0.98032  0.36231  1.0000
  N   N3        1.0  0.66621  0.14716  0.49604  1.0000
  N   N4        1.0  0.33379  0.85284  0.50396  1.0000
  O   O1        1.0  0.27520  0.32369  0.80390  1.0000
  O   O2        1.0  0.72480  0.67631  0.19610  1.0000
  O   O3        1.0  0.97721  0.36839  0.87159  1.0000
  O   O4        1.0  0.02279  0.63161  0.12841  1.0000
  O   O5        1.0  0.25699  0.31117  0.99136  1.0000
  O   O6        1.0  0.74301  0.68883  0.00864  1.0000
