data_image0
_chemical_formula_structural       Zn2H48C72N8O16
_chemical_formula_sum              "Zn2 H48 C72 N8 O16"
_cell_length_a       8.73321
_cell_length_b       9.7088
_cell_length_c       17.9938
_cell_angle_alpha    103.34
_cell_angle_beta     104.051
_cell_angle_gamma    89.9939

_space_group_name_H-M_alt    "P 1"
_space_group_IT_number       1

loop_
  _space_group_symop_operation_xyz
  'x, y, z'

loop_
  _atom_site_type_symbol
  _atom_site_label
  _atom_site_symmetry_multiplicity
  _atom_site_fract_x
  _atom_site_fract_y
  _atom_site_fract_z
  _atom_site_occupancy
  Zn  Zn1       1.0  0.94768  0.25000  0.00002  1.0000
  Zn  Zn2       1.0  0.05232  0.75000  0.99998  1.0000
  H   H1        1.0  0.18437  0.40977  0.15434  1.0000
  H   H2        1.0  0.03045  0.08993  0.84573  1.0000
  H   H3        1.0  0.81563  0.59023  0.84566  1.0000
  H   H4        1.0  0.96955  0.91006  0.15427  1.0000
  H   H5        1.0  0.23238  0.44248  0.29936  1.0000
  H   H6        1.0  0.93328  0.05712  0.70068  1.0000
  H   H7        1.0  0.76762  0.55752  0.70064  1.0000
  H   H8        1.0  0.06671  0.94288  0.29932  1.0000
  H   H9        1.0  0.81631  0.16272  0.25392  1.0000
  H   H10       1.0  0.56293  0.33728  0.74613  1.0000
  H   H11       1.0  0.18368  0.83728  0.74608  1.0000
  H   H12       1.0  0.43707  0.66272  0.25387  1.0000
  H   H13       1.0  0.79022  0.14129  0.11135  1.0000
  H   H14       1.0  0.67961  0.35885  0.88870  1.0000
  H   H15       1.0  0.20978  0.85870  0.88865  1.0000
  H   H16       1.0  0.32039  0.64115  0.11131  1.0000
  H   H17       1.0  0.19832  0.51539  0.41294  1.0000
  H   H18       1.0  0.78550  0.98443  0.58707  1.0000
  H   H19       1.0  0.80168  0.48461  0.58706  1.0000
  H   H20       1.0  0.21451  0.01557  0.41293  1.0000
  H   H21       1.0  0.25374  0.52077  0.55612  1.0000
  H   H22       1.0  0.69763  0.97921  0.44391  1.0000
  H   H23       1.0  0.74626  0.47923  0.44388  1.0000
  H   H24       1.0  0.30238  0.02079  0.55609  1.0000
  H   H25       1.0  0.98469  0.14664  0.51187  1.0000
  H   H26       1.0  0.47255  0.35320  0.48831  1.0000
  H   H27       1.0  0.01530  0.85336  0.48813  1.0000
  H   H28       1.0  0.52745  0.64680  0.51169  1.0000
  H   H29       1.0  0.91667  0.12245  0.36736  1.0000
  H   H30       1.0  0.54932  0.37728  0.63280  1.0000
  H   H31       1.0  0.08333  0.87755  0.63264  1.0000
  H   H32       1.0  0.45068  0.62272  0.36719  1.0000
  H   H33       1.0  0.47484  0.05796  0.92591  1.0000
  H   H34       1.0  0.54886  0.44190  0.07417  1.0000
  H   H35       1.0  0.52516  0.94204  0.07409  1.0000
  H   H36       1.0  0.45115  0.55809  0.92583  1.0000
  H   H37       1.0  0.39389  0.04286  0.78144  1.0000
  H   H38       1.0  0.61217  0.45706  0.21863  1.0000
  H   H39       1.0  0.60612  0.95714  0.21856  1.0000
  H   H40       1.0  0.38783  0.54294  0.78137  1.0000
  H   H41       1.0  0.15920  0.43260  0.82650  1.0000
  H   H42       1.0  0.33253  0.06723  0.17349  1.0000
  H   H43       1.0  0.84080  0.56740  0.17350  1.0000
  H   H44       1.0  0.66747  0.93277  0.82652  1.0000
  H   H45       1.0  0.16042  0.33840  0.62795  1.0000
  H   H46       1.0  0.53223  0.16161  0.37212  1.0000
  H   H47       1.0  0.83958  0.66160  0.37204  1.0000
  H   H48       1.0  0.46777  0.83839  0.62788  1.0000
  C   C1        1.0  0.10672  0.35680  0.17953  1.0000
  C   C2        1.0  0.92758  0.14293  0.82052  1.0000
  C   C3        1.0  0.89328  0.64320  0.82046  1.0000
  C   C4        1.0  0.07242  0.85707  0.17948  1.0000
  C   C5        1.0  0.13056  0.37599  0.26062  1.0000
  C   C6        1.0  0.87026  0.12366  0.73943  1.0000
  C   C7        1.0  0.86944  0.62401  0.73938  1.0000
  C   C8        1.0  0.12974  0.87634  0.26057  1.0000
  C   C9        1.0  0.02853  0.30463  0.29057  1.0000
  C   C10       1.0  0.73829  0.19510  0.70948  1.0000
  C   C11       1.0  0.97147  0.69537  0.70943  1.0000
  C   C12       1.0  0.26171  0.80490  0.29052  1.0000
  C   C13       1.0  0.90299  0.21899  0.23551  1.0000
  C   C14       1.0  0.66796  0.28092  0.76455  1.0000
  C   C15       1.0  0.09701  0.78101  0.76449  1.0000
  C   C16       1.0  0.33204  0.71908  0.23545  1.0000
  C   C17       1.0  0.88705  0.20599  0.15540  1.0000
  C   C18       1.0  0.73223  0.29399  0.84465  1.0000
  C   C19       1.0  0.11295  0.79401  0.84460  1.0000
  C   C20       1.0  0.26777  0.70601  0.15535  1.0000
  C   C21       1.0  0.05524  0.31666  0.37620  1.0000
  C   C22       1.0  0.67917  0.18311  0.62387  1.0000
  C   C23       1.0  0.94476  0.68334  0.62380  1.0000
  C   C24       1.0  0.32084  0.81689  0.37613  1.0000
  C   C25       1.0  0.14915  0.42995  0.43163  1.0000
  C   C26       1.0  0.71761  0.06988  0.56840  1.0000
  C   C27       1.0  0.85085  0.57005  0.56837  1.0000
  C   C28       1.0  0.28239  0.93012  0.43160  1.0000
  C   C29       1.0  0.17929  0.43495  0.51173  1.0000
  C   C30       1.0  0.66757  0.06498  0.48832  1.0000
  C   C31       1.0  0.82071  0.56505  0.48827  1.0000
  C   C32       1.0  0.33244  0.93502  0.51168  1.0000
  C   C33       1.0  0.02872  0.22628  0.48692  1.0000
  C   C34       1.0  0.54166  0.27356  0.51322  1.0000
  C   C35       1.0  0.97128  0.77373  0.51308  1.0000
  C   C36       1.0  0.45834  0.72644  0.48678  1.0000
  C   C37       1.0  0.99178  0.21371  0.40586  1.0000
  C   C38       1.0  0.58592  0.28606  0.59427  1.0000
  C   C39       1.0  0.00822  0.78629  0.59414  1.0000
  C   C40       1.0  0.41408  0.71394  0.40573  1.0000
  C   C41       1.0  0.19445  0.46219  0.98214  1.0000
  C   C42       1.0  0.21227  0.03769  0.01788  1.0000
  C   C43       1.0  0.80556  0.53781  0.01786  1.0000
  C   C44       1.0  0.78773  0.96231  0.98212  1.0000
  C   C45       1.0  0.26354  0.35257  0.92810  1.0000
  C   C46       1.0  0.33541  0.14731  0.07193  1.0000
  C   C47       1.0  0.73646  0.64743  0.07190  1.0000
  C   C48       1.0  0.66459  0.85269  0.92807  1.0000
  C   C49       1.0  0.35278  0.24706  0.95709  1.0000
  C   C50       1.0  0.39570  0.25280  0.04295  1.0000
  C   C51       1.0  0.64722  0.75294  0.04291  1.0000
  C   C52       1.0  0.60430  0.74720  0.95705  1.0000
  C   C53       1.0  0.40092  0.13701  0.90360  1.0000
  C   C54       1.0  0.49725  0.36285  0.09645  1.0000
  C   C55       1.0  0.59908  0.86299  0.09640  1.0000
  C   C56       1.0  0.50276  0.63715  0.90355  1.0000
  C   C57       1.0  0.35778  0.12955  0.82296  1.0000
  C   C58       1.0  0.53464  0.37032  0.17709  1.0000
  C   C59       1.0  0.64222  0.87045  0.17704  1.0000
  C   C60       1.0  0.46536  0.62968  0.82291  1.0000
  C   C61       1.0  0.27136  0.23654  0.79451  1.0000
  C   C62       1.0  0.47666  0.26335  0.20553  1.0000
  C   C63       1.0  0.72864  0.76345  0.20549  1.0000
  C   C64       1.0  0.52334  0.73665  0.79447  1.0000
  C   C65       1.0  0.22786  0.34957  0.84779  1.0000
  C   C66       1.0  0.37995  0.15030  0.15223  1.0000
  C   C67       1.0  0.77214  0.65043  0.15221  1.0000
  C   C68       1.0  0.62005  0.84971  0.84777  1.0000
  C   C69       1.0  0.22060  0.22582  0.70816  1.0000
  C   C70       1.0  0.51217  0.27414  0.29189  1.0000
  C   C71       1.0  0.77940  0.77418  0.29184  1.0000
  C   C72       1.0  0.48783  0.72586  0.70811  1.0000
  N   N1        1.0  0.98833  0.27159  0.12735  1.0000
  N   N2        1.0  0.86147  0.22827  0.87269  1.0000
  N   N3        1.0  0.01167  0.72841  0.87265  1.0000
  N   N4        1.0  0.13853  0.77173  0.12731  1.0000
  N   N5        1.0  0.12115  0.33380  0.53906  1.0000
  N   N6        1.0  0.58198  0.16613  0.46104  1.0000
  N   N7        1.0  0.87885  0.66620  0.46095  1.0000
  N   N8        1.0  0.41802  0.83386  0.53896  1.0000
  O   O1        1.0  0.12466  0.41997  0.02785  1.0000
  O   O2        1.0  0.09678  0.07994  0.97216  1.0000
  O   O3        1.0  0.87535  0.58003  0.97214  1.0000
  O   O4        1.0  0.90322  0.92006  0.02784  1.0000
  O   O5        1.0  0.21250  0.59005  0.97849  1.0000
  O   O6        1.0  0.23398  0.90984  0.02156  1.0000
  O   O7        1.0  0.78750  0.40995  0.02151  1.0000
  O   O8        1.0  0.76602  0.09016  0.97844  1.0000
  O   O9        1.0  0.20674  0.11117  0.65832  1.0000
  O   O10       1.0  0.54811  0.38882  0.34170  1.0000
  O   O11       1.0  0.79326  0.88883  0.34168  1.0000
  O   O12       1.0  0.45189  0.61118  0.65830  1.0000
  O   O13       1.0  0.19033  0.34988  0.68993  1.0000
  O   O14       1.0  0.50010  0.15012  0.31015  1.0000
  O   O15       1.0  0.80968  0.65013  0.31007  1.0000
  O   O16       1.0  0.49990  0.84989  0.68985  1.0000
