data_image0
_chemical_formula_structural       K4H32C36S4N4O20
_chemical_formula_sum              "K4 H32 C36 S4 N4 O20"
_cell_length_a       9.96748
_cell_length_b       9.91405
_cell_length_c       11.2296
_cell_angle_alpha    90.0001
_cell_angle_beta     102.853
_cell_angle_gamma    90

_space_group_name_H-M_alt    "P 1"
_space_group_IT_number       1

loop_
  _space_group_symop_operation_xyz
  'x, y, z'

loop_
  _atom_site_type_symbol
  _atom_site_label
  _atom_site_symmetry_multiplicity
  _atom_site_fract_x
  _atom_site_fract_y
  _atom_site_fract_z
  _atom_site_occupancy
  K   K1        1.0  0.84479  0.99634  0.85244  1.0000
  K   K2        1.0  0.84480  0.50365  0.35244  1.0000
  K   K3        1.0  0.15521  0.00366  0.14757  1.0000
  K   K4        1.0  0.15520  0.49634  0.64756  1.0000
  H   H1        1.0  0.90686  0.93356  0.59040  1.0000
  H   H2        1.0  0.90686  0.56644  0.09040  1.0000
  H   H3        1.0  0.09314  0.06644  0.40960  1.0000
  H   H4        1.0  0.09314  0.43356  0.90960  1.0000
  H   H5        1.0  0.47385  0.64721  0.77373  1.0000
  H   H6        1.0  0.47385  0.85280  0.27373  1.0000
  H   H7        1.0  0.52616  0.35279  0.22627  1.0000
  H   H8        1.0  0.52615  0.14721  0.72627  1.0000
  H   H9        1.0  0.95856  0.80602  0.67788  1.0000
  H   H10       1.0  0.95856  0.69398  0.17788  1.0000
  H   H11       1.0  0.04144  0.19398  0.32212  1.0000
  H   H12       1.0  0.04144  0.30602  0.82212  1.0000
  H   H13       1.0  0.73136  0.63643  0.81275  1.0000
  H   H14       1.0  0.73136  0.86358  0.31275  1.0000
  H   H15       1.0  0.26864  0.36357  0.18725  1.0000
  H   H16       1.0  0.26864  0.13642  0.68726  1.0000
  H   H17       1.0  0.84042  0.45114  0.71946  1.0000
  H   H18       1.0  0.84042  0.04886  0.21946  1.0000
  H   H19       1.0  0.15958  0.54885  0.28054  1.0000
  H   H20       1.0  0.15958  0.95114  0.78054  1.0000
  H   H21       1.0  0.21523  0.23912  0.45696  1.0000
  H   H22       1.0  0.21524  0.26089  0.95696  1.0000
  H   H23       1.0  0.78477  0.76088  0.54304  1.0000
  H   H24       1.0  0.78476  0.73912  0.04304  1.0000
  H   H25       1.0  0.64774  0.08831  0.44328  1.0000
  H   H26       1.0  0.64774  0.41169  0.94328  1.0000
  H   H27       1.0  0.35226  0.91168  0.55672  1.0000
  H   H28       1.0  0.35226  0.58831  0.05672  1.0000
  H   H29       1.0  0.39457  0.11924  0.40781  1.0000
  H   H30       1.0  0.39457  0.38077  0.90781  1.0000
  H   H31       1.0  0.60543  0.88077  0.59219  1.0000
  H   H32       1.0  0.60543  0.61923  0.09219  1.0000
  C   C1        1.0  0.52396  0.56733  0.73281  1.0000
  C   C2        1.0  0.52396  0.93268  0.23281  1.0000
  C   C3        1.0  0.47604  0.43267  0.26719  1.0000
  C   C4        1.0  0.47604  0.06732  0.76720  1.0000
  C   C5        1.0  0.66879  0.56122  0.75493  1.0000
  C   C6        1.0  0.66879  0.93879  0.25493  1.0000
  C   C7        1.0  0.33122  0.43878  0.24507  1.0000
  C   C8        1.0  0.33122  0.06122  0.74507  1.0000
  C   C9        1.0  0.72900  0.45850  0.70295  1.0000
  C   C10       1.0  0.72900  0.04150  0.20295  1.0000
  C   C11       1.0  0.27100  0.54150  0.29704  1.0000
  C   C12       1.0  0.27100  0.95850  0.79705  1.0000
  C   C13       1.0  0.69666  0.25360  0.56668  1.0000
  C   C14       1.0  0.69666  0.24640  0.06668  1.0000
  C   C15       1.0  0.30334  0.74639  0.43332  1.0000
  C   C16       1.0  0.30334  0.75360  0.93332  1.0000
  C   C17       1.0  0.60625  0.16966  0.48931  1.0000
  C   C18       1.0  0.60625  0.33034  0.98931  1.0000
  C   C19       1.0  0.39375  0.83034  0.51069  1.0000
  C   C20       1.0  0.39374  0.66966  0.01069  1.0000
  C   C21       1.0  0.46307  0.18702  0.46936  1.0000
  C   C22       1.0  0.46307  0.31299  0.96936  1.0000
  C   C23       1.0  0.53693  0.81298  0.53063  1.0000
  C   C24       1.0  0.53693  0.68702  0.03064  1.0000
  C   C25       1.0  0.40779  0.28852  0.52910  1.0000
  C   C26       1.0  0.40779  0.21148  0.02910  1.0000
  C   C27       1.0  0.59221  0.71148  0.47090  1.0000
  C   C28       1.0  0.59220  0.78852  0.97090  1.0000
  C   C29       1.0  0.64522  0.36284  0.62649  1.0000
  C   C30       1.0  0.64522  0.13715  0.12649  1.0000
  C   C31       1.0  0.35478  0.63715  0.37350  1.0000
  C   C32       1.0  0.35478  0.86285  0.87351  1.0000
  C   C33       1.0  0.49905  0.37946  0.60847  1.0000
  C   C34       1.0  0.49905  0.12054  0.10847  1.0000
  C   C35       1.0  0.50095  0.62053  0.39153  1.0000
  C   C36       1.0  0.50095  0.87946  0.89153  1.0000
  S   S1        1.0  0.87658  0.22177  0.58964  1.0000
  S   S2        1.0  0.87658  0.27822  0.08964  1.0000
  S   S3        1.0  0.12342  0.77823  0.41036  1.0000
  S   S4        1.0  0.12342  0.72178  0.91036  1.0000
  N   N1        1.0  0.44132  0.47956  0.66357  1.0000
  N   N2        1.0  0.44132  0.02044  0.16357  1.0000
  N   N3        1.0  0.55868  0.52044  0.33643  1.0000
  N   N4        1.0  0.55868  0.97956  0.83643  1.0000
  O   O1        1.0  0.92646  0.20032  0.72301  1.0000
  O   O2        1.0  0.92646  0.29968  0.22301  1.0000
  O   O3        1.0  0.07354  0.79968  0.27699  1.0000
  O   O4        1.0  0.07354  0.70032  0.77699  1.0000
  O   O5        1.0  0.87636  0.85811  0.63596  1.0000
  O   O6        1.0  0.87636  0.64189  0.13596  1.0000
  O   O7        1.0  0.12364  0.14189  0.36404  1.0000
  O   O8        1.0  0.12364  0.35811  0.86404  1.0000
  O   O9        1.0  0.93773  0.34344  0.54821  1.0000
  O   O10       1.0  0.93773  0.15656  0.04820  1.0000
  O   O11       1.0  0.06227  0.65655  0.45179  1.0000
  O   O12       1.0  0.06227  0.84344  0.95180  1.0000
  O   O13       1.0  0.89134  0.10118  0.51829  1.0000
  O   O14       1.0  0.89134  0.39883  0.01828  1.0000
  O   O15       1.0  0.10866  0.89882  0.48171  1.0000
  O   O16       1.0  0.10866  0.60117  0.98171  1.0000
  O   O17       1.0  0.27182  0.30631  0.51792  1.0000
  O   O18       1.0  0.27183  0.19369  0.01792  1.0000
  O   O19       1.0  0.72818  0.69369  0.48208  1.0000
  O   O20       1.0  0.72817  0.80631  0.98208  1.0000
