data_image0
_chemical_formula_structural       Zn2H24C28S4N4O8
_chemical_formula_sum              "Zn2 H24 C28 S4 N4 O8"
_cell_length_a       8.38805
_cell_length_b       8.53455
_cell_length_c       13.5251
_cell_angle_alpha    75.2405
_cell_angle_beta     71.917
_cell_angle_gamma    60.5468

_space_group_name_H-M_alt    "P 1"
_space_group_IT_number       1

loop_
  _space_group_symop_operation_xyz
  'x, y, z'

loop_
  _atom_site_type_symbol
  _atom_site_label
  _atom_site_symmetry_multiplicity
  _atom_site_fract_x
  _atom_site_fract_y
  _atom_site_fract_z
  _atom_site_occupancy
  Zn  Zn1       1.0  0.93622  0.25009  0.75002  1.0000
  Zn  Zn2       1.0  0.06378  0.74991  0.24998  1.0000
  H   H1        1.0  0.53431  0.76741  0.70277  1.0000
  H   H2        1.0  0.99511  0.26755  0.20294  1.0000
  H   H3        1.0  0.46569  0.23259  0.29723  1.0000
  H   H4        1.0  0.00489  0.73245  0.79706  1.0000
  H   H5        1.0  0.53305  0.81739  0.56702  1.0000
  H   H6        1.0  0.08227  0.31736  0.06714  1.0000
  H   H7        1.0  0.46695  0.18261  0.43298  1.0000
  H   H8        1.0  0.91773  0.68264  0.93286  1.0000
  H   H9        1.0  0.31287  0.92814  0.47983  1.0000
  H   H10       1.0  0.27890  0.42782  0.97994  1.0000
  H   H11       1.0  0.68714  0.07186  0.52017  1.0000
  H   H12       1.0  0.72110  0.57218  0.02006  1.0000
  H   H13       1.0  0.19600  0.95164  0.32806  1.0000
  H   H14       1.0  0.52403  0.45148  0.82813  1.0000
  H   H15       1.0  0.80401  0.04836  0.67194  1.0000
  H   H16       1.0  0.47597  0.54851  0.17187  1.0000
  H   H17       1.0  0.13573  0.48009  0.44185  1.0000
  H   H18       1.0  0.94253  0.98040  0.94195  1.0000
  H   H19       1.0  0.86427  0.51991  0.55815  1.0000
  H   H20       1.0  0.05747  0.01960  0.05805  1.0000
  H   H21       1.0  0.24180  0.43653  0.60189  1.0000
  H   H22       1.0  0.72004  0.93660  0.10206  1.0000
  H   H23       1.0  0.75820  0.56347  0.39811  1.0000
  H   H24       1.0  0.27996  0.06340  0.89794  1.0000
  C   C1        1.0  0.28587  0.00214  0.66632  1.0000
  C   C2        1.0  0.04560  0.50205  0.16635  1.0000
  C   C3        1.0  0.71413  0.99786  0.33368  1.0000
  C   C4        1.0  0.95440  0.49795  0.83364  1.0000
  C   C5        1.0  0.44512  0.81322  0.64613  1.0000
  C   C6        1.0  0.09528  0.31316  0.14624  1.0000
  C   C7        1.0  0.55488  0.18678  0.35388  1.0000
  C   C8        1.0  0.90472  0.68684  0.85376  1.0000
  C   C9        1.0  0.28592  0.68040  0.55630  1.0000
  C   C10       1.0  0.47734  0.18018  0.05642  1.0000
  C   C11       1.0  0.71408  0.31960  0.44370  1.0000
  C   C12       1.0  0.52266  0.81982  0.94358  1.0000
  C   C13       1.0  0.27253  0.82650  0.47676  1.0000
  C   C14       1.0  0.42401  0.32621  0.97685  1.0000
  C   C15       1.0  0.72747  0.17350  0.52324  1.0000
  C   C16       1.0  0.57599  0.67379  0.02315  1.0000
  C   C17       1.0  0.20792  0.83984  0.39084  1.0000
  C   C18       1.0  0.56121  0.33967  0.89091  1.0000
  C   C19       1.0  0.79208  0.16016  0.60916  1.0000
  C   C20       1.0  0.43878  0.66033  0.10909  1.0000
  C   C21       1.0  0.17208  0.57817  0.45509  1.0000
  C   C22       1.0  0.79475  0.07831  0.95523  1.0000
  C   C23       1.0  0.82793  0.42183  0.54491  1.0000
  C   C24       1.0  0.20524  0.92169  0.04477  1.0000
  C   C25       1.0  0.23210  0.55482  0.54446  1.0000
  C   C26       1.0  0.66878  0.05484  0.04463  1.0000
  C   C27       1.0  0.76791  0.44518  0.45554  1.0000
  C   C28       1.0  0.33122  0.94516  0.95538  1.0000
  S   S1        1.0  0.36960  0.64023  0.66719  1.0000
  S   S2        1.0  0.32280  0.14000  0.16729  1.0000
  S   S3        1.0  0.63040  0.35977  0.33281  1.0000
  S   S4        1.0  0.67720  0.86000  0.83271  1.0000
  N   N1        1.0  0.15893  0.71860  0.37868  1.0000
  N   N2        1.0  0.74373  0.21864  0.87877  1.0000
  N   N3        1.0  0.84107  0.28140  0.62132  1.0000
  N   N4        1.0  0.25627  0.78136  0.12123  1.0000
  O   O1        1.0  0.15229  0.00758  0.74778  1.0000
  O   O2        1.0  0.09259  0.50742  0.24769  1.0000
  O   O3        1.0  0.84771  0.99242  0.25223  1.0000
  O   O4        1.0  0.90741  0.49259  0.75231  1.0000
  O   O5        1.0  0.29363  0.13686  0.60564  1.0000
  O   O6        1.0  0.96360  0.63682  0.10577  1.0000
  O   O7        1.0  0.70637  0.86314  0.39436  1.0000
  O   O8        1.0  0.03640  0.36318  0.89423  1.0000
