data_image0
_chemical_formula_structural       Zn2H40C52N4O12
_chemical_formula_sum              "Zn2 H40 C52 N4 O12"
_cell_length_a       8.47672
_cell_length_b       11.4628
_cell_length_c       13.5588
_cell_angle_alpha    90
_cell_angle_beta     90.0001
_cell_angle_gamma    111.713

_space_group_name_H-M_alt    "P 1"
_space_group_IT_number       1

loop_
  _space_group_symop_operation_xyz
  'x, y, z'

loop_
  _atom_site_type_symbol
  _atom_site_label
  _atom_site_symmetry_multiplicity
  _atom_site_fract_x
  _atom_site_fract_y
  _atom_site_fract_z
  _atom_site_occupancy
  Zn  Zn1       1.0  0.63404  0.99998  0.99988  1.0000
  Zn  Zn2       1.0  0.13404  0.99999  0.50012  1.0000
  H   H1        1.0  0.52020  0.39292  0.67134  1.0000
  H   H2        1.0  0.12735  0.60703  0.32855  1.0000
  H   H3        1.0  0.02020  0.39292  0.82866  1.0000
  H   H4        1.0  0.62736  0.60703  0.17145  1.0000
  H   H5        1.0  0.30201  0.29635  0.66824  1.0000
  H   H6        1.0  0.00600  0.70376  0.33174  1.0000
  H   H7        1.0  0.80201  0.29635  0.83176  1.0000
  H   H8        1.0  0.50600  0.70376  0.16826  1.0000
  H   H9        1.0  0.22153  0.78135  0.76216  1.0000
  H   H10       1.0  0.44007  0.21853  0.23780  1.0000
  H   H11       1.0  0.72153  0.78135  0.73784  1.0000
  H   H12       1.0  0.94006  0.21853  0.26220  1.0000
  H   H13       1.0  0.44639  0.13041  0.67370  1.0000
  H   H14       1.0  0.31626  0.86960  0.32614  1.0000
  H   H15       1.0  0.94639  0.13041  0.82630  1.0000
  H   H16       1.0  0.81626  0.86960  0.17387  1.0000
  H   H17       1.0  0.44480  0.36684  0.92120  1.0000
  H   H18       1.0  0.07787  0.63312  0.07871  1.0000
  H   H19       1.0  0.94480  0.36684  0.57880  1.0000
  H   H20       1.0  0.57787  0.63312  0.42129  1.0000
  H   H21       1.0  0.31301  0.63714  0.48534  1.0000
  H   H22       1.0  0.67548  0.36299  0.51464  1.0000
  H   H23       1.0  0.81301  0.63714  0.01466  1.0000
  H   H24       1.0  0.17548  0.36299  0.98536  1.0000
  H   H25       1.0  0.37848  0.46888  0.57118  1.0000
  H   H26       1.0  0.90942  0.53127  0.42884  1.0000
  H   H27       1.0  0.87848  0.46888  0.92882  1.0000
  H   H28       1.0  0.40942  0.53127  0.07116  1.0000
  H   H29       1.0  0.29491  0.61603  0.85104  1.0000
  H   H30       1.0  0.67873  0.38400  0.14896  1.0000
  H   H31       1.0  0.79491  0.61603  0.64896  1.0000
  H   H32       1.0  0.17873  0.38400  0.35104  1.0000
  H   H33       1.0  0.52765  0.99313  0.79182  1.0000
  H   H34       1.0  0.53491  0.00676  0.20793  1.0000
  H   H35       1.0  0.02765  0.99313  0.70818  1.0000
  H   H36       1.0  0.03491  0.00675  0.29207  1.0000
  H   H37       1.0  0.51968  0.21790  0.02935  1.0000
  H   H38       1.0  0.30168  0.78196  0.97048  1.0000
  H   H39       1.0  0.01968  0.21790  0.47065  1.0000
  H   H40       1.0  0.80169  0.78196  0.52952  1.0000
  C   C1        1.0  0.21971  0.81457  0.56115  1.0000
  C   C2        1.0  0.40498  0.18546  0.43889  1.0000
  C   C3        1.0  0.71971  0.81457  0.93885  1.0000
  C   C4        1.0  0.90498  0.18546  0.06111  1.0000
  C   C5        1.0  0.33887  0.53196  0.71719  1.0000
  C   C6        1.0  0.80672  0.46815  0.28283  1.0000
  C   C7        1.0  0.83887  0.53196  0.78281  1.0000
  C   C8        1.0  0.30671  0.46815  0.21717  1.0000
  C   C9        1.0  0.40702  0.34850  0.71798  1.0000
  C   C10       1.0  0.05863  0.65152  0.28198  1.0000
  C   C11       1.0  0.90702  0.34850  0.78203  1.0000
  C   C12       1.0  0.55863  0.65152  0.21802  1.0000
  C   C13       1.0  0.25777  0.71327  0.72128  1.0000
  C   C14       1.0  0.54423  0.28676  0.27870  1.0000
  C   C15       1.0  0.75777  0.71327  0.77872  1.0000
  C   C16       1.0  0.04423  0.28677  0.22130  1.0000
  C   C17       1.0  0.46189  0.15273  0.75207  1.0000
  C   C18       1.0  0.30941  0.84722  0.24777  1.0000
  C   C19       1.0  0.96189  0.15273  0.74793  1.0000
  C   C20       1.0  0.80941  0.84722  0.25223  1.0000
  C   C21       1.0  0.26252  0.71888  0.61776  1.0000
  C   C22       1.0  0.54335  0.28120  0.38221  1.0000
  C   C23       1.0  0.76252  0.71888  0.88224  1.0000
  C   C24       1.0  0.04335  0.28120  0.11779  1.0000
  C   C25       1.0  0.46016  0.28442  0.88993  1.0000
  C   C26       1.0  0.17577  0.71551  0.10996  1.0000
  C   C27       1.0  0.96016  0.28443  0.61007  1.0000
  C   C28       1.0  0.67577  0.71550  0.39004  1.0000
  C   C29       1.0  0.30830  0.63090  0.56555  1.0000
  C   C30       1.0  0.67713  0.36924  0.43444  1.0000
  C   C31       1.0  0.80830  0.63090  0.93445  1.0000
  C   C32       1.0  0.17713  0.36924  0.06556  1.0000
  C   C33       1.0  0.34609  0.53731  0.61382  1.0000
  C   C34       1.0  0.80859  0.46282  0.38620  1.0000
  C   C35       1.0  0.84609  0.53731  0.88618  1.0000
  C   C36       1.0  0.30859  0.46282  0.11380  1.0000
  C   C37       1.0  0.44163  0.26065  0.78863  1.0000
  C   C38       1.0  0.18109  0.73929  0.21126  1.0000
  C   C39       1.0  0.94164  0.26066  0.71137  1.0000
  C   C40       1.0  0.68109  0.73929  0.28874  1.0000
  C   C41       1.0  0.29680  0.62130  0.77070  1.0000
  C   C42       1.0  0.67527  0.37876  0.22931  1.0000
  C   C43       1.0  0.79680  0.62130  0.72930  1.0000
  C   C44       1.0  0.17527  0.37876  0.27068  1.0000
  C   C45       1.0  0.50562  0.07617  0.81691  1.0000
  C   C46       1.0  0.42976  0.92370  0.18290  1.0000
  C   C47       1.0  0.00562  0.07617  0.68309  1.0000
  C   C48       1.0  0.92976  0.92370  0.31711  1.0000
  C   C49       1.0  0.50226  0.20215  0.95002  1.0000
  C   C50       1.0  0.30013  0.79771  0.04981  1.0000
  C   C51       1.0  0.00226  0.20215  0.54998  1.0000
  C   C52       1.0  0.80014  0.79771  0.45019  1.0000
  N   N1        1.0  0.52756  0.10104  0.91432  1.0000
  N   N2        1.0  0.42667  0.89880  0.08548  1.0000
  N   N3        1.0  0.02756  0.10104  0.58568  1.0000
  N   N4        1.0  0.92667  0.89880  0.41452  1.0000
  O   O1        1.0  0.36856  0.44199  0.77164  1.0000
  O   O2        1.0  0.92648  0.55808  0.22837  1.0000
  O   O3        1.0  0.86856  0.44199  0.72836  1.0000
  O   O4        1.0  0.42648  0.55808  0.27163  1.0000
  O   O5        1.0  0.16901  0.89202  0.60943  1.0000
  O   O6        1.0  0.27671  0.10798  0.39068  1.0000
  O   O7        1.0  0.66901  0.89202  0.89057  1.0000
  O   O8        1.0  0.77671  0.10798  0.10932  1.0000
  O   O9        1.0  0.23210  0.81780  0.46842  1.0000
  O   O10       1.0  0.41430  0.18219  0.53159  1.0000
  O   O11       1.0  0.73211  0.81780  0.03158  1.0000
  O   O12       1.0  0.91430  0.18219  0.96840  1.0000
