data_image0
_chemical_formula_structural       Cd2H38C46N8O8
_chemical_formula_sum              "Cd2 H38 C46 N8 O8"
_cell_length_a       9.81774
_cell_length_b       10.1597
_cell_length_c       10.955
_cell_angle_alpha    70.4904
_cell_angle_beta     77.0573
_cell_angle_gamma    84.7492

_space_group_name_H-M_alt    "P 1"
_space_group_IT_number       1

loop_
  _space_group_symop_operation_xyz
  'x, y, z'

loop_
  _atom_site_type_symbol
  _atom_site_label
  _atom_site_symmetry_multiplicity
  _atom_site_fract_x
  _atom_site_fract_y
  _atom_site_fract_z
  _atom_site_occupancy
  Cd  Cd1       1.0  0.10069  0.51532  0.83253  1.0000
  Cd  Cd2       1.0  0.89931  0.48468  0.16747  1.0000
  H   H1        1.0  0.15862  0.59786  0.44960  1.0000
  H   H2        1.0  0.84138  0.40214  0.55040  1.0000
  H   H3        1.0  0.41257  0.29545  0.68965  1.0000
  H   H4        1.0  0.58743  0.70455  0.31035  1.0000
  H   H5        1.0  0.18049  0.02123  0.79591  1.0000
  H   H6        1.0  0.81951  0.97877  0.20409  1.0000
  H   H7        1.0  0.22216  0.18580  0.41721  1.0000
  H   H8        1.0  0.77784  0.81420  0.58279  1.0000
  H   H9        1.0  0.43321  0.65886  0.69558  1.0000
  H   H10       1.0  0.56679  0.34114  0.30442  1.0000
  H   H11       1.0  0.51939  0.53348  0.62344  1.0000
  H   H12       1.0  0.48061  0.46652  0.37656  1.0000
  H   H13       1.0  0.64884  0.42979  0.79862  1.0000
  H   H14       1.0  0.35116  0.57021  0.20138  1.0000
  H   H15       1.0  0.19197  0.30804  0.10000  1.0000
  H   H16       1.0  0.80803  0.69196  0.90000  1.0000
  H   H17       1.0  0.89333  0.76990  0.13293  1.0000
  H   H18       1.0  0.10667  0.23010  0.86706  1.0000
  H   H19       1.0  0.44706  0.91925  0.72871  1.0000
  H   H20       1.0  0.55294  0.08075  0.27129  1.0000
  H   H21       1.0  0.39693  0.06045  0.78846  1.0000
  H   H22       1.0  0.60307  0.93955  0.21154  1.0000
  H   H23       1.0  0.64262  0.28038  0.03474  1.0000
  H   H24       1.0  0.35738  0.71962  0.96526  1.0000
  H   H25       1.0  0.40722  0.22092  0.18868  1.0000
  H   H26       1.0  0.59278  0.77908  0.81132  1.0000
  H   H27       1.0  0.58901  0.09371  0.86702  1.0000
  H   H28       1.0  0.41099  0.90629  0.13298  1.0000
  H   H29       1.0  0.88464  0.11231  0.43615  1.0000
  H   H30       1.0  0.11536  0.88769  0.56385  1.0000
  H   H31       1.0  0.84288  0.14899  0.82362  1.0000
  H   H32       1.0  0.15712  0.85101  0.17638  1.0000
  H   H33       1.0  0.99412  0.15728  0.60329  1.0000
  H   H34       1.0  0.00588  0.84272  0.39671  1.0000
  H   H35       1.0  0.36153  0.02352  0.54613  1.0000
  H   H36       1.0  0.63847  0.97648  0.45387  1.0000
  H   H37       1.0  0.27401  0.65310  0.58680  1.0000
  H   H38       1.0  0.72599  0.34690  0.41320  1.0000
  C   C1        1.0  0.08915  0.42961  0.32674  1.0000
  C   C2        1.0  0.91085  0.57039  0.67326  1.0000
  C   C3        1.0  0.18450  0.39526  0.42306  1.0000
  C   C4        1.0  0.81550  0.60474  0.57694  1.0000
  C   C5        1.0  0.04316  0.88256  0.95966  1.0000
  C   C6        1.0  0.95684  0.11744  0.04035  1.0000
  C   C7        1.0  0.28738  0.45651  0.57676  1.0000
  C   C8        1.0  0.71262  0.54349  0.42324  1.0000
  C   C9        1.0  0.09240  0.75972  0.91357  1.0000
  C   C10       1.0  0.90760  0.24028  0.08643  1.0000
  C   C11       1.0  0.32776  0.22329  0.55680  1.0000
  C   C12       1.0  0.67224  0.77671  0.44320  1.0000
  C   C13       1.0  0.20723  0.49457  0.47902  1.0000
  C   C14       1.0  0.79277  0.50543  0.52098  1.0000
  C   C15       1.0  0.34860  0.32278  0.61514  1.0000
  C   C16       1.0  0.65140  0.67722  0.38486  1.0000
  C   C17       1.0  0.42382  0.45130  0.82864  1.0000
  C   C18       1.0  0.57618  0.54870  0.17136  1.0000
  C   C19       1.0  0.10291  0.01296  0.88623  1.0000
  C   C20       1.0  0.89709  0.98704  0.11377  1.0000
  C   C21       1.0  0.24390  0.26169  0.46055  1.0000
  C   C22       1.0  0.75610  0.73832  0.53945  1.0000
  C   C23       1.0  0.42506  0.55323  0.69141  1.0000
  C   C24       1.0  0.57494  0.44677  0.30859  1.0000
  C   C25       1.0  0.54974  0.40179  0.86898  1.0000
  C   C26       1.0  0.45026  0.59820  0.13102  1.0000
  C   C27       1.0  0.60538  0.07297  0.67434  1.0000
  C   C28       1.0  0.39461  0.92703  0.32565  1.0000
  C   C29       1.0  0.29550  0.33316  0.03734  1.0000
  C   C30       1.0  0.70450  0.66684  0.96266  1.0000
  C   C31       1.0  0.93917  0.87076  0.07370  1.0000
  C   C32       1.0  0.06084  0.12924  0.92630  1.0000
  C   C33       1.0  0.45345  0.03345  0.70053  1.0000
  C   C34       1.0  0.54655  0.96655  0.29947  1.0000
  C   C35       1.0  0.54612  0.31775  0.99947  1.0000
  C   C36       1.0  0.45388  0.68225  0.00053  1.0000
  C   C37       1.0  0.41644  0.28409  0.08527  1.0000
  C   C38       1.0  0.58356  0.71591  0.91473  1.0000
  C   C39       1.0  0.65848  0.09708  0.77309  1.0000
  C   C40       1.0  0.34152  0.90292  0.22691  1.0000
  C   C41       1.0  0.82280  0.10686  0.53385  1.0000
  C   C42       1.0  0.17720  0.89314  0.46615  1.0000
  C   C43       1.0  0.79954  0.12698  0.74945  1.0000
  C   C44       1.0  0.20046  0.87303  0.25054  1.0000
  C   C45       1.0  0.88386  0.13163  0.62736  1.0000
  C   C46       1.0  0.11614  0.86838  0.37264  1.0000
  N   N1        1.0  0.29980  0.41534  0.91151  1.0000
  N   N2        1.0  0.70020  0.58466  0.08849  1.0000
  N   N3        1.0  0.29878  0.55436  0.64102  1.0000
  N   N4        1.0  0.70122  0.44564  0.35897  1.0000
  N   N5        1.0  0.38338  0.09073  0.59190  1.0000
  N   N6        1.0  0.61663  0.90927  0.40810  1.0000
  N   N7        1.0  0.68644  0.07820  0.55619  1.0000
  N   N8        1.0  0.31355  0.92180  0.44381  1.0000
  O   O1        1.0  0.06209  0.55718  0.26612  1.0000
  O   O2        1.0  0.93791  0.44282  0.73388  1.0000
  O   O3        1.0  0.03525  0.32815  0.31059  1.0000
  O   O4        1.0  0.96475  0.67185  0.68941  1.0000
  O   O5        1.0  0.01950  0.64710  0.96922  1.0000
  O   O6        1.0  0.98050  0.35289  0.03078  1.0000
  O   O7        1.0  0.19856  0.76881  0.82252  1.0000
  O   O8        1.0  0.80144  0.23119  0.17748  1.0000
