data_image0
_chemical_formula_structural       Mn4H36C36N36
_chemical_formula_sum              "Mn4 H36 C36 N36"
_cell_length_a       10.1027
_cell_length_b       10.1027
_cell_length_c       12.2983
_cell_angle_alpha    102.65
_cell_angle_beta     102.65
_cell_angle_gamma    91.9981

_space_group_name_H-M_alt    "P 1"
_space_group_IT_number       1

loop_
  _space_group_symop_operation_xyz
  'x, y, z'

loop_
  _atom_site_type_symbol
  _atom_site_label
  _atom_site_symmetry_multiplicity
  _atom_site_fract_x
  _atom_site_fract_y
  _atom_site_fract_z
  _atom_site_occupancy
  Mn  Mn1       1.0  0.80152  0.06730  0.84762  1.0000
  Mn  Mn2       1.0  0.93270  0.19849  0.65238  1.0000
  Mn  Mn3       1.0  0.19848  0.93270  0.15237  1.0000
  Mn  Mn4       1.0  0.06730  0.80152  0.34762  1.0000
  H   H1        1.0  0.78257  0.37410  0.93148  1.0000
  H   H2        1.0  0.62590  0.21743  0.56851  1.0000
  H   H3        1.0  0.21744  0.62589  0.06851  1.0000
  H   H4        1.0  0.37411  0.78257  0.43148  1.0000
  H   H5        1.0  0.62338  0.55425  0.93636  1.0000
  H   H6        1.0  0.44574  0.37662  0.56363  1.0000
  H   H7        1.0  0.37663  0.44575  0.06364  1.0000
  H   H8        1.0  0.55426  0.62339  0.43636  1.0000
  H   H9        1.0  0.37261  0.48894  0.84528  1.0000
  H   H10       1.0  0.51105  0.62739  0.65471  1.0000
  H   H11       1.0  0.62740  0.51106  0.15472  1.0000
  H   H12       1.0  0.48895  0.37261  0.34529  1.0000
  H   H13       1.0  0.29813  0.24230  0.75222  1.0000
  H   H14       1.0  0.75769  0.70187  0.74778  1.0000
  H   H15       1.0  0.70188  0.75770  0.24779  1.0000
  H   H16       1.0  0.24231  0.29813  0.25222  1.0000
  H   H17       1.0  0.35015  0.02156  0.69508  1.0000
  H   H18       1.0  0.97843  0.64985  0.80491  1.0000
  H   H19       1.0  0.64985  0.97844  0.30492  1.0000
  H   H20       1.0  0.02157  0.35015  0.19509  1.0000
  H   H21       1.0  0.50817  0.00653  0.65586  1.0000
  H   H22       1.0  0.99347  0.49183  0.84413  1.0000
  H   H23       1.0  0.49183  0.99347  0.34413  1.0000
  H   H24       1.0  0.00653  0.50817  0.15587  1.0000
  H   H25       1.0  0.30242  0.88502  0.83106  1.0000
  H   H26       1.0  0.11497  0.69759  0.66893  1.0000
  H   H27       1.0  0.69758  0.11498  0.16894  1.0000
  H   H28       1.0  0.88502  0.30242  0.33107  1.0000
  H   H29       1.0  0.45730  0.74204  0.97003  1.0000
  H   H30       1.0  0.25795  0.54270  0.52996  1.0000
  H   H31       1.0  0.54270  0.25796  0.02997  1.0000
  H   H32       1.0  0.74204  0.45730  0.47004  1.0000
  H   H33       1.0  0.72063  0.80387  0.95534  1.0000
  H   H34       1.0  0.19613  0.27937  0.54466  1.0000
  H   H35       1.0  0.27937  0.19612  0.04466  1.0000
  H   H36       1.0  0.80387  0.72063  0.45534  1.0000
  C   C1        1.0  0.67453  0.34893  0.89172  1.0000
  C   C2        1.0  0.65107  0.32547  0.60827  1.0000
  C   C3        1.0  0.32548  0.65107  0.10828  1.0000
  C   C4        1.0  0.34893  0.67453  0.39172  1.0000
  C   C5        1.0  0.58406  0.44965  0.89501  1.0000
  C   C6        1.0  0.55035  0.41594  0.60499  1.0000
  C   C7        1.0  0.41595  0.55035  0.10499  1.0000
  C   C8        1.0  0.44965  0.58406  0.39501  1.0000
  C   C9        1.0  0.44643  0.41277  0.84453  1.0000
  C   C10       1.0  0.58722  0.55357  0.65547  1.0000
  C   C11       1.0  0.55358  0.58722  0.15547  1.0000
  C   C12       1.0  0.41279  0.44643  0.34453  1.0000
  C   C13       1.0  0.40459  0.27662  0.79222  1.0000
  C   C14       1.0  0.72338  0.59541  0.70778  1.0000
  C   C15       1.0  0.59541  0.72338  0.20778  1.0000
  C   C16       1.0  0.27662  0.40459  0.29222  1.0000
  C   C17       1.0  0.50230  0.18244  0.78966  1.0000
  C   C18       1.0  0.81755  0.49771  0.71033  1.0000
  C   C19       1.0  0.49771  0.81756  0.21034  1.0000
  C   C20       1.0  0.18245  0.50230  0.28966  1.0000
  C   C21       1.0  0.46043  0.03550  0.72865  1.0000
  C   C22       1.0  0.96450  0.53957  0.77134  1.0000
  C   C23       1.0  0.53957  0.96450  0.27135  1.0000
  C   C24       1.0  0.03550  0.46043  0.22866  1.0000
  C   C25       1.0  0.41130  0.87644  0.84948  1.0000
  C   C26       1.0  0.12356  0.58870  0.65052  1.0000
  C   C27       1.0  0.58870  0.12356  0.15052  1.0000
  C   C28       1.0  0.87644  0.41130  0.34949  1.0000
  C   C29       1.0  0.49209  0.80630  0.92040  1.0000
  C   C30       1.0  0.19370  0.50791  0.57960  1.0000
  C   C31       1.0  0.50791  0.19370  0.07960  1.0000
  C   C32       1.0  0.80630  0.49209  0.42040  1.0000
  C   C33       1.0  0.62609  0.83833  0.91398  1.0000
  C   C34       1.0  0.16167  0.37391  0.58602  1.0000
  C   C35       1.0  0.37391  0.16167  0.08602  1.0000
  C   C36       1.0  0.83833  0.62609  0.41398  1.0000
  N   N1        1.0  0.63543  0.21752  0.83926  1.0000
  N   N2        1.0  0.78248  0.36458  0.66073  1.0000
  N   N3        1.0  0.36458  0.78247  0.16073  1.0000
  N   N4        1.0  0.21752  0.63543  0.33927  1.0000
  N   N5        1.0  0.49574  0.94341  0.80399  1.0000
  N   N6        1.0  0.05659  0.50426  0.69601  1.0000
  N   N7        1.0  0.50426  0.05659  0.19601  1.0000
  N   N8        1.0  0.94341  0.49574  0.30400  1.0000
  N   N9        1.0  0.62788  0.92209  0.84272  1.0000
  N   N10       1.0  0.07791  0.37213  0.65728  1.0000
  N   N11       1.0  0.37212  0.07791  0.15728  1.0000
  N   N12       1.0  0.92209  0.62788  0.34272  1.0000
  N   N13       1.0  0.93124  0.89883  0.84877  1.0000
  N   N14       1.0  0.10117  0.06877  0.65123  1.0000
  N   N15       1.0  0.06877  0.10116  0.15123  1.0000
  N   N16       1.0  0.89883  0.93124  0.34877  1.0000
  N   N17       1.0  0.03754  0.88647  0.90781  1.0000
  N   N18       1.0  0.11352  0.96246  0.59219  1.0000
  N   N19       1.0  0.96246  0.11352  0.09219  1.0000
  N   N20       1.0  0.88648  0.03754  0.40781  1.0000
  N   N21       1.0  0.14431  0.86951  0.96431  1.0000
  N   N22       1.0  0.13049  0.85569  0.53569  1.0000
  N   N23       1.0  0.85569  0.13049  0.03569  1.0000
  N   N24       1.0  0.86952  0.14431  0.46431  1.0000
  N   N25       1.0  0.95833  0.21926  0.83925  1.0000
  N   N26       1.0  0.78073  0.04167  0.66075  1.0000
  N   N27       1.0  0.04167  0.78073  0.16075  1.0000
  N   N28       1.0  0.21926  0.95833  0.33925  1.0000
  N   N29       1.0  0.04683  0.28845  0.91426  1.0000
  N   N30       1.0  0.71155  0.95317  0.58574  1.0000
  N   N31       1.0  0.95316  0.71154  0.08573  1.0000
  N   N32       1.0  0.28845  0.04683  0.41426  1.0000
  N   N33       1.0  0.13225  0.35796  0.98608  1.0000
  N   N34       1.0  0.64204  0.86775  0.51392  1.0000
  N   N35       1.0  0.86775  0.64204  0.01393  1.0000
  N   N36       1.0  0.35795  0.13225  0.48607  1.0000
