data_image0
_chemical_formula_structural       K4Cu4H24C40N24
_chemical_formula_sum              "K4 Cu4 H24 C40 N24"
_cell_length_a       8.05394
_cell_length_b       8.66173
_cell_length_c       17.2001
_cell_angle_alpha    90.0004
_cell_angle_beta     90.0002
_cell_angle_gamma    107.913

_space_group_name_H-M_alt    "P 1"
_space_group_IT_number       1

loop_
  _space_group_symop_operation_xyz
  'x, y, z'

loop_
  _atom_site_type_symbol
  _atom_site_label
  _atom_site_symmetry_multiplicity
  _atom_site_fract_x
  _atom_site_fract_y
  _atom_site_fract_z
  _atom_site_occupancy
  K   K1        1.0  0.83406  0.71760  0.19418  1.0000
  K   K2        1.0  0.33405  0.71761  0.30582  1.0000
  K   K3        1.0  0.16596  0.28239  0.80582  1.0000
  K   K4        1.0  0.66596  0.28239  0.69418  1.0000
  Cu  Cu1       1.0  0.86414  0.22551  0.16524  1.0000
  Cu  Cu2       1.0  0.36415  0.22552  0.33476  1.0000
  Cu  Cu3       1.0  0.13586  0.77449  0.83476  1.0000
  Cu  Cu4       1.0  0.63587  0.77450  0.66524  1.0000
  H   H1        1.0  0.77920  0.42680  0.84372  1.0000
  H   H2        1.0  0.27920  0.42680  0.65628  1.0000
  H   H3        1.0  0.22080  0.57320  0.15628  1.0000
  H   H4        1.0  0.72080  0.57321  0.34372  1.0000
  H   H5        1.0  0.56510  0.46097  0.94096  1.0000
  H   H6        1.0  0.06510  0.46096  0.55904  1.0000
  H   H7        1.0  0.43490  0.53903  0.05904  1.0000
  H   H8        1.0  0.93490  0.53903  0.44096  1.0000
  H   H9        1.0  0.60803  0.38741  0.08348  1.0000
  H   H10       1.0  0.10804  0.38741  0.41652  1.0000
  H   H11       1.0  0.39196  0.61259  0.91652  1.0000
  H   H12       1.0  0.89196  0.61259  0.58348  1.0000
  H   H13       1.0  0.37771  0.10296  0.94928  1.0000
  H   H14       1.0  0.87772  0.10297  0.55072  1.0000
  H   H15       1.0  0.62227  0.89703  0.05072  1.0000
  H   H16       1.0  0.12229  0.89703  0.44928  1.0000
  H   H17       1.0  0.41127  0.04656  0.09429  1.0000
  H   H18       1.0  0.91129  0.04657  0.40571  1.0000
  H   H19       1.0  0.58871  0.95343  0.90571  1.0000
  H   H20       1.0  0.08872  0.95342  0.59428  1.0000
  H   H21       1.0  0.19716  0.10723  0.18630  1.0000
  H   H22       1.0  0.69717  0.10724  0.31371  1.0000
  H   H23       1.0  0.80283  0.89277  0.81371  1.0000
  H   H24       1.0  0.30284  0.89277  0.68629  1.0000
  C   C1        1.0  0.68303  0.02962  0.18558  1.0000
  C   C2        1.0  0.18305  0.02962  0.31442  1.0000
  C   C3        1.0  0.31696  0.97039  0.81442  1.0000
  C   C4        1.0  0.81697  0.97039  0.68558  1.0000
  C   C5        1.0  0.95022  0.38068  0.24524  1.0000
  C   C6        1.0  0.45022  0.38068  0.25476  1.0000
  C   C7        1.0  0.04978  0.61933  0.75476  1.0000
  C   C8        1.0  0.54979  0.61934  0.74524  1.0000
  C   C9        1.0  0.92294  0.28670  0.99741  1.0000
  C   C10       1.0  0.42295  0.28671  0.50259  1.0000
  C   C11       1.0  0.07704  0.71329  0.00259  1.0000
  C   C12       1.0  0.57706  0.71329  0.49741  1.0000
  C   C13       1.0  0.78546  0.38903  0.90382  1.0000
  C   C14       1.0  0.28546  0.38904  0.59618  1.0000
  C   C15       1.0  0.21454  0.61096  0.09618  1.0000
  C   C16       1.0  0.71455  0.61097  0.40382  1.0000
  C   C17       1.0  0.66815  0.41197  0.95904  1.0000
  C   C18       1.0  0.16815  0.41197  0.54096  1.0000
  C   C19       1.0  0.33185  0.58803  0.04096  1.0000
  C   C20       1.0  0.83185  0.58803  0.45904  1.0000
  C   C21       1.0  0.69027  0.37070  0.03555  1.0000
  C   C22       1.0  0.19028  0.37070  0.46445  1.0000
  C   C23       1.0  0.30972  0.62930  0.96445  1.0000
  C   C24       1.0  0.80973  0.62929  0.53555  1.0000
  C   C25       1.0  0.06076  0.21668  0.02193  1.0000
  C   C26       1.0  0.56077  0.21669  0.47808  1.0000
  C   C27       1.0  0.93923  0.78331  0.97807  1.0000
  C   C28       1.0  0.43924  0.78331  0.52192  1.0000
  C   C29       1.0  0.29241  0.12660  0.99398  1.0000
  C   C30       1.0  0.79242  0.12661  0.50603  1.0000
  C   C31       1.0  0.70758  0.87338  0.00603  1.0000
  C   C32       1.0  0.20759  0.87339  0.49397  1.0000
  C   C33       1.0  0.30964  0.09430  0.07256  1.0000
  C   C34       1.0  0.80966  0.09431  0.42744  1.0000
  C   C35       1.0  0.69034  0.90569  0.92744  1.0000
  C   C36       1.0  0.19035  0.90569  0.57255  1.0000
  C   C37       1.0  0.19180  0.12742  0.12397  1.0000
  C   C38       1.0  0.69182  0.12744  0.37603  1.0000
  C   C39       1.0  0.80818  0.87257  0.87603  1.0000
  C   C40       1.0  0.30819  0.87257  0.62397  1.0000
  N   N1        1.0  0.00732  0.47383  0.29595  1.0000
  N   N2        1.0  0.50733  0.47382  0.20405  1.0000
  N   N3        1.0  0.99268  0.52618  0.70405  1.0000
  N   N4        1.0  0.49268  0.52619  0.79595  1.0000
  N   N5        1.0  0.81838  0.30834  0.05536  1.0000
  N   N6        1.0  0.31839  0.30835  0.44464  1.0000
  N   N7        1.0  0.18162  0.69166  0.94464  1.0000
  N   N8        1.0  0.68162  0.69166  0.55536  1.0000
  N   N9        1.0  0.91220  0.32538  0.92240  1.0000
  N   N10       1.0  0.41220  0.32539  0.57761  1.0000
  N   N11       1.0  0.08779  0.67461  0.07760  1.0000
  N   N12       1.0  0.58780  0.67462  0.42240  1.0000
  N   N13       1.0  0.06467  0.18604  0.09891  1.0000
  N   N14       1.0  0.56469  0.18605  0.40109  1.0000
  N   N15       1.0  0.93531  0.81395  0.90109  1.0000
  N   N16       1.0  0.43532  0.81396  0.59891  1.0000
  N   N17       1.0  0.16956  0.18958  0.96841  1.0000
  N   N18       1.0  0.66958  0.18959  0.53160  1.0000
  N   N19       1.0  0.83042  0.81041  0.03159  1.0000
  N   N20       1.0  0.33044  0.81041  0.46840  1.0000
  N   N21       1.0  0.57082  0.90818  0.19940  1.0000
  N   N22       1.0  0.07083  0.90819  0.30060  1.0000
  N   N23       1.0  0.42917  0.09182  0.80060  1.0000
  N   N24       1.0  0.92918  0.09183  0.69939  1.0000
