data_image0
_chemical_formula_structural       Cd6P4H40C36O20
_chemical_formula_sum              "Cd6 P4 H40 C36 O20"
_cell_length_a       5.82125
_cell_length_b       6.94056
_cell_length_c       27.9048
_cell_angle_alpha    89.9997
_cell_angle_beta     92.3132
_cell_angle_gamma    89.9995

_space_group_name_H-M_alt    "P 1"
_space_group_IT_number       1

loop_
  _space_group_symop_operation_xyz
  'x, y, z'

loop_
  _atom_site_type_symbol
  _atom_site_label
  _atom_site_symmetry_multiplicity
  _atom_site_fract_x
  _atom_site_fract_y
  _atom_site_fract_z
  _atom_site_occupancy
  Cd  Cd1       1.0  0.50626  0.21162  0.95907  1.0000
  Cd  Cd2       1.0  0.99375  0.71164  0.54093  1.0000
  Cd  Cd3       1.0  0.49374  0.78837  0.04093  1.0000
  Cd  Cd4       1.0  0.00628  0.28838  0.45908  1.0000
  Cd  Cd5       1.0  0.00000  0.00000  1.00000  1.0000
  Cd  Cd6       1.0  0.50001  0.50001  0.50000  1.0000
  P   P1        1.0  0.98191  0.20807  0.88636  1.0000
  P   P2        1.0  0.51812  0.70808  0.61364  1.0000
  P   P3        1.0  0.01809  0.79192  0.11364  1.0000
  P   P4        1.0  0.48192  0.29194  0.38636  1.0000
  H   H1        1.0  0.72180  0.10341  0.79875  1.0000
  H   H2        1.0  0.77818  0.60340  0.70126  1.0000
  H   H3        1.0  0.27818  0.89659  0.20125  1.0000
  H   H4        1.0  0.22180  0.39659  0.29875  1.0000
  H   H5        1.0  0.81927  0.90827  0.72769  1.0000
  H   H6        1.0  0.68066  0.40825  0.77231  1.0000
  H   H7        1.0  0.18071  0.09174  0.27230  1.0000
  H   H8        1.0  0.31925  0.59172  0.22769  1.0000
  H   H9        1.0  0.19691  0.73877  0.72654  1.0000
  H   H10       1.0  0.30303  0.23873  0.77345  1.0000
  H   H11       1.0  0.80308  0.26126  0.27345  1.0000
  H   H12       1.0  0.69688  0.76122  0.22654  1.0000
  H   H13       1.0  0.47600  0.76920  0.79575  1.0000
  H   H14       1.0  0.02399  0.26917  0.70424  1.0000
  H   H15       1.0  0.52400  0.23082  0.20424  1.0000
  H   H16       1.0  0.97598  0.73081  0.29574  1.0000
  H   H17       1.0  0.38670  0.97694  0.86500  1.0000
  H   H18       1.0  0.11332  0.47693  0.63499  1.0000
  H   H19       1.0  0.61329  0.02306  0.13499  1.0000
  H   H20       1.0  0.88669  0.52308  0.36500  1.0000
  H   H21       1.0  0.25490  0.44731  0.86214  1.0000
  H   H22       1.0  0.24512  0.94732  0.63786  1.0000
  H   H23       1.0  0.74511  0.55267  0.13786  1.0000
  H   H24       1.0  0.75491  0.05270  0.36214  1.0000
  H   H25       1.0  0.97335  0.49203  0.83810  1.0000
  H   H26       1.0  0.52668  0.99203  0.66191  1.0000
  H   H27       1.0  0.02668  0.50797  0.16190  1.0000
  H   H28       1.0  0.47336  0.00797  0.33810  1.0000
  H   H29       1.0  0.01506  0.74015  0.89646  1.0000
  H   H30       1.0  0.48495  0.24017  0.60354  1.0000
  H   H31       1.0  0.98496  0.25983  0.10354  1.0000
  H   H32       1.0  0.51508  0.75984  0.39646  1.0000
  H   H33       1.0  0.87165  0.56315  0.92923  1.0000
  H   H34       1.0  0.62836  0.06317  0.57077  1.0000
  H   H35       1.0  0.12837  0.43684  0.07077  1.0000
  H   H36       1.0  0.37167  0.93685  0.42923  1.0000
  H   H37       1.0  0.34669  0.19382  0.05252  1.0000
  H   H38       1.0  0.15333  0.69382  0.44748  1.0000
  H   H39       1.0  0.65332  0.80618  0.94748  1.0000
  H   H40       1.0  0.84670  0.30618  0.55253  1.0000
  C   C1        1.0  0.04828  0.05523  0.83613  1.0000
  C   C2        1.0  0.45170  0.55524  0.66387  1.0000
  C   C3        1.0  0.95170  0.94475  0.16387  1.0000
  C   C4        1.0  0.54828  0.44477  0.33613  1.0000
  C   C5        1.0  0.88898  0.03358  0.79747  1.0000
  C   C6        1.0  0.61098  0.53356  0.70253  1.0000
  C   C7        1.0  0.11099  0.96643  0.20252  1.0000
  C   C8        1.0  0.38896  0.46643  0.29747  1.0000
  C   C9        1.0  0.94291  0.92158  0.75795  1.0000
  C   C10       1.0  0.55703  0.42157  0.74205  1.0000
  C   C11       1.0  0.05706  0.07842  0.24205  1.0000
  C   C12       1.0  0.44289  0.57841  0.25795  1.0000
  C   C13       1.0  0.15440  0.82666  0.75727  1.0000
  C   C14       1.0  0.34557  0.32663  0.74273  1.0000
  C   C15       1.0  0.84559  0.17335  0.24273  1.0000
  C   C16       1.0  0.65437  0.67333  0.25726  1.0000
  C   C17       1.0  0.31189  0.84439  0.79617  1.0000
  C   C18       1.0  0.18809  0.34438  0.70382  1.0000
  C   C19       1.0  0.68811  0.15561  0.20383  1.0000
  C   C20       1.0  0.81187  0.65563  0.29617  1.0000
  C   C21       1.0  0.26098  0.95974  0.83527  1.0000
  C   C22       1.0  0.23904  0.45972  0.66473  1.0000
  C   C23       1.0  0.73903  0.04028  0.16473  1.0000
  C   C24       1.0  0.76097  0.54027  0.33527  1.0000
  C   C25       1.0  0.07247  0.45032  0.87086  1.0000
  C   C26       1.0  0.42755  0.95032  0.62915  1.0000
  C   C27       1.0  0.92754  0.54967  0.12914  1.0000
  C   C28       1.0  0.57247  0.04968  0.37086  1.0000
  C   C29       1.0  0.03276  0.59372  0.91141  1.0000
  C   C30       1.0  0.46726  0.09373  0.58860  1.0000
  C   C31       1.0  0.96725  0.40628  0.08859  1.0000
  C   C32       1.0  0.53278  0.90629  0.41141  1.0000
  C   C33       1.0  0.22683  0.60592  0.94955  1.0000
  C   C34       1.0  0.27319  0.10592  0.55045  1.0000
  C   C35       1.0  0.77318  0.39407  0.05045  1.0000
  C   C36       1.0  0.72685  0.89408  0.44955  1.0000
  O   O1        1.0  0.18558  0.70170  0.98762  1.0000
  O   O2        1.0  0.31441  0.20171  0.51238  1.0000
  O   O3        1.0  0.81441  0.29829  0.01238  1.0000
  O   O4        1.0  0.68562  0.79831  0.48762  1.0000
  O   O5        1.0  0.42030  0.53008  0.94230  1.0000
  O   O6        1.0  0.07970  0.03009  0.55771  1.0000
  O   O7        1.0  0.57971  0.46991  0.05771  1.0000
  O   O8        1.0  0.92032  0.96994  0.44230  1.0000
  O   O9        1.0  0.72314  0.20630  0.89232  1.0000
  O   O10       1.0  0.77689  0.70630  0.60768  1.0000
  O   O11       1.0  0.27687  0.79370  0.10768  1.0000
  O   O12       1.0  0.22315  0.29370  0.39233  1.0000
  O   O13       1.0  0.13411  0.13787  0.92943  1.0000
  O   O14       1.0  0.36591  0.63790  0.57057  1.0000
  O   O15       1.0  0.86588  0.86210  0.07057  1.0000
  O   O16       1.0  0.63412  0.36214  0.42944  1.0000
  O   O17       1.0  0.34268  0.09599  0.02752  1.0000
  O   O18       1.0  0.15734  0.59600  0.47248  1.0000
  O   O19       1.0  0.65732  0.90401  0.97248  1.0000
  O   O20       1.0  0.84270  0.40401  0.52753  1.0000
