data_image0
_chemical_formula_structural       H52Rh4C72N4O16
_chemical_formula_sum              "H52 Rh4 C72 N4 O16"
_cell_length_a       10.1567
_cell_length_b       11.5847
_cell_length_c       15.5955
_cell_angle_alpha    94.02
_cell_angle_beta     90.0008
_cell_angle_gamma    90.0005

_space_group_name_H-M_alt    "P 1"
_space_group_IT_number       1

loop_
  _space_group_symop_operation_xyz
  'x, y, z'

loop_
  _atom_site_type_symbol
  _atom_site_label
  _atom_site_symmetry_multiplicity
  _atom_site_fract_x
  _atom_site_fract_y
  _atom_site_fract_z
  _atom_site_occupancy
  H   H1        1.0  0.32784  0.65247  0.76758  1.0000
  H   H2        1.0  0.17217  0.15245  0.26759  1.0000
  H   H3        1.0  0.67218  0.34755  0.23241  1.0000
  H   H4        1.0  0.82782  0.84755  0.73240  1.0000
  H   H5        1.0  0.34727  0.73756  0.91910  1.0000
  H   H6        1.0  0.15272  0.23754  0.41911  1.0000
  H   H7        1.0  0.65273  0.26246  0.08089  1.0000
  H   H8        1.0  0.84727  0.76247  0.58088  1.0000
  H   H9        1.0  0.56994  0.77182  0.98312  1.0000
  H   H10       1.0  0.93006  0.27181  0.48312  1.0000
  H   H11       1.0  0.43007  0.22817  0.01687  1.0000
  H   H12       1.0  0.06993  0.72819  0.51687  1.0000
  H   H13       1.0  0.76956  0.73401  0.89537  1.0000
  H   H14       1.0  0.73044  0.23400  0.39536  1.0000
  H   H15       1.0  0.23045  0.26599  0.10463  1.0000
  H   H16       1.0  0.26955  0.76599  0.60464  1.0000
  H   H17       1.0  0.74875  0.64857  0.74341  1.0000
  H   H18       1.0  0.75127  0.14856  0.24340  1.0000
  H   H19       1.0  0.25128  0.35143  0.25659  1.0000
  H   H20       1.0  0.24872  0.85144  0.75659  1.0000
  H   H21       1.0  0.23207  0.81542  0.42881  1.0000
  H   H22       1.0  0.26793  0.31542  0.92880  1.0000
  H   H23       1.0  0.76790  0.18459  0.57120  1.0000
  H   H24       1.0  0.73209  0.68459  0.07120  1.0000
  H   H25       1.0  0.19389  0.01636  0.38833  1.0000
  H   H26       1.0  0.30612  0.51635  0.88833  1.0000
  H   H27       1.0  0.80607  0.98365  0.61169  1.0000
  H   H28       1.0  0.69393  0.48365  0.11169  1.0000
  H   H29       1.0  0.38503  0.14175  0.35575  1.0000
  H   H30       1.0  0.11497  0.64175  0.85576  1.0000
  H   H31       1.0  0.61493  0.85824  0.64425  1.0000
  H   H32       1.0  0.88506  0.35824  0.14425  1.0000
  H   H33       1.0  0.61308  0.06427  0.36446  1.0000
  H   H34       1.0  0.88692  0.56428  0.86446  1.0000
  H   H35       1.0  0.38688  0.93571  0.63553  1.0000
  H   H36       1.0  0.11312  0.43571  0.13553  1.0000
  H   H37       1.0  0.64984  0.86307  0.40550  1.0000
  H   H38       1.0  0.85016  0.36308  0.90549  1.0000
  H   H39       1.0  0.35013  0.13691  0.59450  1.0000
  H   H40       1.0  0.14987  0.63692  0.09450  1.0000
  H   H41       1.0  0.22363  0.41816  0.65586  1.0000
  H   H42       1.0  0.27637  0.91816  0.15587  1.0000
  H   H43       1.0  0.77638  0.58186  0.34415  1.0000
  H   H44       1.0  0.72361  0.08188  0.84416  1.0000
  H   H45       1.0  0.99483  0.40876  0.71346  1.0000
  H   H46       1.0  0.50516  0.90876  0.21346  1.0000
  H   H47       1.0  0.00517  0.59126  0.28654  1.0000
  H   H48       1.0  0.49482  0.09126  0.78655  1.0000
  H   H49       1.0  0.80504  0.46348  0.62016  1.0000
  H   H50       1.0  0.69495  0.96347  0.12017  1.0000
  H   H51       1.0  0.19496  0.53653  0.37983  1.0000
  H   H52       1.0  0.30504  0.03651  0.87984  1.0000
  Rh  Rh1       1.0  0.38225  0.48960  0.51059  1.0000
  Rh  Rh2       1.0  0.11775  0.98961  0.01059  1.0000
  Rh  Rh3       1.0  0.61775  0.51040  0.48941  1.0000
  Rh  Rh4       1.0  0.88225  0.01039  0.98941  1.0000
  C   C1        1.0  0.52366  0.59366  0.65760  1.0000
  C   C2        1.0  0.97635  0.09366  0.15760  1.0000
  C   C3        1.0  0.47635  0.40634  0.34239  1.0000
  C   C4        1.0  0.02364  0.90634  0.84239  1.0000
  C   C5        1.0  0.53684  0.64494  0.74723  1.0000
  C   C6        1.0  0.96318  0.14493  0.24723  1.0000
  C   C7        1.0  0.46319  0.35507  0.25277  1.0000
  C   C8        1.0  0.03681  0.85507  0.75276  1.0000
  C   C9        1.0  0.42381  0.67032  0.79661  1.0000
  C   C10       1.0  0.07621  0.17031  0.29661  1.0000
  C   C11       1.0  0.57621  0.32969  0.20339  1.0000
  C   C12       1.0  0.92379  0.82969  0.70338  1.0000
  C   C13       1.0  0.43544  0.71671  0.88115  1.0000
  C   C14       1.0  0.06455  0.21671  0.38115  1.0000
  C   C15       1.0  0.56457  0.28328  0.11884  1.0000
  C   C16       1.0  0.93544  0.78329  0.61884  1.0000
  C   C17       1.0  0.56026  0.73694  0.91678  1.0000
  C   C18       1.0  0.93975  0.23693  0.41678  1.0000
  C   C19       1.0  0.43976  0.26305  0.08321  1.0000
  C   C20       1.0  0.06025  0.76306  0.58321  1.0000
  C   C21       1.0  0.67326  0.71393  0.86741  1.0000
  C   C22       1.0  0.82674  0.21393  0.36740  1.0000
  C   C23       1.0  0.32676  0.28605  0.13259  1.0000
  C   C24       1.0  0.17324  0.78606  0.63259  1.0000
  C   C25       1.0  0.66185  0.66767  0.78283  1.0000
  C   C26       1.0  0.83816  0.16767  0.28282  1.0000
  C   C27       1.0  0.33817  0.33232  0.21718  1.0000
  C   C28       1.0  0.16183  0.83231  0.71718  1.0000
  C   C29       1.0  0.46461  0.70775  0.44607  1.0000
  C   C30       1.0  0.03540  0.20775  0.94606  1.0000
  C   C31       1.0  0.53539  0.29225  0.55393  1.0000
  C   C32       1.0  0.96462  0.79224  0.05393  1.0000
  C   C33       1.0  0.44307  0.82678  0.41900  1.0000
  C   C34       1.0  0.05693  0.32678  0.91900  1.0000
  C   C35       1.0  0.55691  0.17322  0.58101  1.0000
  C   C36       1.0  0.94309  0.67322  0.08101  1.0000
  C   C37       1.0  0.31472  0.87041  0.41403  1.0000
  C   C38       1.0  0.18528  0.37041  0.91402  1.0000
  C   C39       1.0  0.68525  0.12958  0.58599  1.0000
  C   C40       1.0  0.81475  0.62959  0.08599  1.0000
  C   C41       1.0  0.29398  0.98311  0.39134  1.0000
  C   C42       1.0  0.20603  0.48311  0.89134  1.0000
  C   C43       1.0  0.70599  0.01689  0.60867  1.0000
  C   C44       1.0  0.79401  0.51690  0.10867  1.0000
  C   C45       1.0  0.40103  0.05327  0.37324  1.0000
  C   C46       1.0  0.09897  0.55327  0.87325  1.0000
  C   C47       1.0  0.59893  0.94672  0.62675  1.0000
  C   C48       1.0  0.90107  0.44672  0.12675  1.0000
  C   C49       1.0  0.52914  0.00999  0.37799  1.0000
  C   C50       1.0  0.97086  0.50999  0.87799  1.0000
  C   C51       1.0  0.47082  0.99001  0.62200  1.0000
  C   C52       1.0  0.02917  0.49000  0.12200  1.0000
  C   C53       1.0  0.55042  0.89729  0.40072  1.0000
  C   C54       1.0  0.94958  0.39729  0.90072  1.0000
  C   C55       1.0  0.44955  0.10271  0.59928  1.0000
  C   C56       1.0  0.05045  0.60271  0.09928  1.0000
  C   C57       1.0  0.13974  0.43983  0.61643  1.0000
  C   C58       1.0  0.36026  0.93982  0.11643  1.0000
  C   C59       1.0  0.86027  0.56019  0.38357  1.0000
  C   C60       1.0  0.63972  0.06020  0.88359  1.0000
  C   C61       1.0  0.01054  0.43485  0.64851  1.0000
  C   C62       1.0  0.48945  0.93485  0.14851  1.0000
  C   C63       1.0  0.98946  0.56516  0.35151  1.0000
  C   C64       1.0  0.51053  0.06516  0.85151  1.0000
  C   C65       1.0  0.90645  0.46490  0.59786  1.0000
  C   C66       1.0  0.59355  0.96489  0.09786  1.0000
  C   C67       1.0  0.09357  0.53511  0.40215  1.0000
  C   C68       1.0  0.40643  0.03510  0.90215  1.0000
  C   C69       1.0  0.06704  0.50119  0.48579  1.0000
  C   C70       1.0  0.43295  0.00119  0.98580  1.0000
  C   C71       1.0  0.93296  0.49882  0.51420  1.0000
  C   C72       1.0  0.56703  0.99881  0.01421  1.0000
  N   N1        1.0  0.16851  0.47214  0.53836  1.0000
  N   N2        1.0  0.33148  0.97214  0.03836  1.0000
  N   N3        1.0  0.83151  0.52786  0.46165  1.0000
  N   N4        1.0  0.66849  0.02786  0.96166  1.0000
  O   O1        1.0  0.40798  0.56278  0.63227  1.0000
  O   O2        1.0  0.09203  0.06278  0.13227  1.0000
  O   O3        1.0  0.59203  0.43724  0.36772  1.0000
  O   O4        1.0  0.90797  0.93724  0.86772  1.0000
  O   O5        1.0  0.62908  0.58417  0.61223  1.0000
  O   O6        1.0  0.87093  0.08417  0.11223  1.0000
  O   O7        1.0  0.37093  0.41582  0.38776  1.0000
  O   O8        1.0  0.12906  0.91582  0.88776  1.0000
  O   O9        1.0  0.36198  0.65153  0.46745  1.0000
  O   O10       1.0  0.13802  0.15153  0.96744  1.0000
  O   O11       1.0  0.63801  0.34846  0.53254  1.0000
  O   O12       1.0  0.86199  0.84846  0.03255  1.0000
  O   O13       1.0  0.58347  0.67043  0.44709  1.0000
  O   O14       1.0  0.91653  0.17043  0.94709  1.0000
  O   O15       1.0  0.41652  0.32958  0.55291  1.0000
  O   O16       1.0  0.08348  0.82957  0.05291  1.0000
