data_image0
_chemical_formula_structural       Mn4H12C16O16
_chemical_formula_sum              "Mn4 H12 C16 O16"
_cell_length_a       6.26689
_cell_length_b       7.53145
_cell_length_c       9.30979
_cell_angle_alpha    89.9998
_cell_angle_beta     90
_cell_angle_gamma    92.9852

_space_group_name_H-M_alt    "P 1"
_space_group_IT_number       1

loop_
  _space_group_symop_operation_xyz
  'x, y, z'

loop_
  _atom_site_type_symbol
  _atom_site_label
  _atom_site_symmetry_multiplicity
  _atom_site_fract_x
  _atom_site_fract_y
  _atom_site_fract_z
  _atom_site_occupancy
  Mn  Mn1       1.0  0.46017  0.37979  0.65416  1.0000
  Mn  Mn2       1.0  0.03983  0.62021  0.15416  1.0000
  Mn  Mn3       1.0  0.53983  0.62021  0.34584  1.0000
  Mn  Mn4       1.0  0.96017  0.37979  0.84584  1.0000
  H   H1        1.0  0.01138  0.04771  0.23786  1.0000
  H   H2        1.0  0.48862  0.95229  0.73787  1.0000
  H   H3        1.0  0.98863  0.95229  0.76214  1.0000
  H   H4        1.0  0.51137  0.04772  0.26214  1.0000
  H   H5        1.0  0.61290  0.24145  0.40458  1.0000
  H   H6        1.0  0.88710  0.75855  0.90458  1.0000
  H   H7        1.0  0.38711  0.75855  0.59542  1.0000
  H   H8        1.0  0.11289  0.24145  0.09542  1.0000
  H   H9        1.0  0.69297  0.11672  0.52926  1.0000
  H   H10       1.0  0.80704  0.88328  0.02926  1.0000
  H   H11       1.0  0.30704  0.88328  0.47074  1.0000
  H   H12       1.0  0.19296  0.11672  0.97074  1.0000
  C   C1        1.0  0.08540  0.16496  0.44444  1.0000
  C   C2        1.0  0.41460  0.83504  0.94444  1.0000
  C   C3        1.0  0.91460  0.83504  0.55556  1.0000
  C   C4        1.0  0.58540  0.16496  0.05556  1.0000
  C   C5        1.0  0.07833  0.13738  0.59645  1.0000
  C   C6        1.0  0.42167  0.86262  0.09646  1.0000
  C   C7        1.0  0.92168  0.86262  0.40355  1.0000
  C   C8        1.0  0.57833  0.13738  0.90355  1.0000
  C   C9        1.0  0.00768  0.02738  0.35357  1.0000
  C   C10       1.0  0.49232  0.97262  0.85358  1.0000
  C   C11       1.0  0.99233  0.97262  0.64642  1.0000
  C   C12       1.0  0.50767  0.02738  0.14642  1.0000
  C   C13       1.0  0.16758  0.33539  0.37864  1.0000
  C   C14       1.0  0.33242  0.66461  0.87865  1.0000
  C   C15       1.0  0.83242  0.66461  0.62136  1.0000
  C   C16       1.0  0.66758  0.33539  0.12136  1.0000
  O   O1        1.0  0.11924  0.36791  0.24800  1.0000
  O   O2        1.0  0.38076  0.63209  0.74800  1.0000
  O   O3        1.0  0.88075  0.63209  0.75200  1.0000
  O   O4        1.0  0.61924  0.36791  0.25200  1.0000
  O   O5        1.0  0.28485  0.44694  0.45220  1.0000
  O   O6        1.0  0.21515  0.55306  0.95220  1.0000
  O   O7        1.0  0.71515  0.55306  0.54780  1.0000
  O   O8        1.0  0.78485  0.44694  0.04780  1.0000
  O   O9        1.0  0.14978  0.26105  0.69134  1.0000
  O   O10       1.0  0.35022  0.73895  0.19134  1.0000
  O   O11       1.0  0.85022  0.73895  0.30866  1.0000
  O   O12       1.0  0.64978  0.26105  0.80866  1.0000
  O   O13       1.0  0.57396  0.18600  0.49861  1.0000
  O   O14       1.0  0.92605  0.81400  0.99861  1.0000
  O   O15       1.0  0.42605  0.81400  0.50139  1.0000
  O   O16       1.0  0.07395  0.18600  0.00139  1.0000
