data_image0
_chemical_formula_structural       Cd2H24C36S2N4O14
_chemical_formula_sum              "Cd2 H24 C36 S2 N4 O14"
_cell_length_a       7.73153
_cell_length_b       9.09246
_cell_length_c       13.0647
_cell_angle_alpha    74.6962
_cell_angle_beta     88.2837
_cell_angle_gamma    74.6358

_space_group_name_H-M_alt    "P 1"
_space_group_IT_number       1

loop_
  _space_group_symop_operation_xyz
  'x, y, z'

loop_
  _atom_site_type_symbol
  _atom_site_label
  _atom_site_symmetry_multiplicity
  _atom_site_fract_x
  _atom_site_fract_y
  _atom_site_fract_z
  _atom_site_occupancy
  Cd  Cd1       1.0  0.98996  0.94020  0.36967  1.0000
  Cd  Cd2       1.0  0.01004  0.05980  0.63033  1.0000
  H   H1        1.0  0.14998  0.46438  0.62874  1.0000
  H   H2        1.0  0.85002  0.53562  0.37125  1.0000
  H   H3        1.0  0.46243  0.40814  0.35753  1.0000
  H   H4        1.0  0.53758  0.59186  0.64248  1.0000
  H   H5        1.0  0.57084  0.03611  0.64929  1.0000
  H   H6        1.0  0.42916  0.96389  0.35071  1.0000
  H   H7        1.0  0.33484  0.70622  0.80101  1.0000
  H   H8        1.0  0.66516  0.29378  0.19899  1.0000
  H   H9        1.0  0.23250  0.47336  0.90657  1.0000
  H   H10       1.0  0.76750  0.52665  0.09343  1.0000
  H   H11       1.0  0.28495  0.63294  0.18826  1.0000
  H   H12       1.0  0.71504  0.36706  0.81174  1.0000
  H   H13       1.0  0.39327  0.85111  0.07110  1.0000
  H   H14       1.0  0.60673  0.14889  0.92890  1.0000
  H   H15       1.0  0.22597  0.25773  0.00776  1.0000
  H   H16       1.0  0.77403  0.74227  0.99224  1.0000
  H   H17       1.0  0.13011  0.03580  0.12977  1.0000
  H   H18       1.0  0.86989  0.96421  0.87023  1.0000
  H   H19       1.0  0.03727  0.26484  0.36998  1.0000
  H   H20       1.0  0.96273  0.73516  0.63002  1.0000
  H   H21       1.0  0.12456  0.49769  0.25862  1.0000
  H   H22       1.0  0.87544  0.50231  0.74138  1.0000
  H   H23       1.0  0.40466  0.88060  0.88844  1.0000
  H   H24       1.0  0.59534  0.11940  0.11156  1.0000
  C   C1        1.0  0.35267  0.24207  0.64895  1.0000
  C   C2        1.0  0.64733  0.75793  0.35105  1.0000
  C   C3        1.0  0.25440  0.39208  0.59167  1.0000
  C   C4        1.0  0.74560  0.60792  0.40833  1.0000
  C   C5        1.0  0.29320  0.45252  0.48617  1.0000
  C   C6        1.0  0.70681  0.54748  0.51383  1.0000
  C   C7        1.0  0.42929  0.36064  0.43902  1.0000
  C   C8        1.0  0.57072  0.63936  0.56098  1.0000
  C   C9        1.0  0.52949  0.21111  0.49717  1.0000
  C   C10       1.0  0.47051  0.78889  0.50283  1.0000
  C   C11       1.0  0.49159  0.15129  0.60321  1.0000
  C   C12       1.0  0.50841  0.84871  0.39679  1.0000
  C   C13       1.0  0.68251  0.11983  0.44711  1.0000
  C   C14       1.0  0.31749  0.88017  0.55289  1.0000
  C   C15       1.0  0.19552  0.61830  0.42719  1.0000
  C   C16       1.0  0.80448  0.38170  0.57281  1.0000
  C   C17       1.0  0.32220  0.68014  0.88701  1.0000
  C   C18       1.0  0.67780  0.31986  0.11299  1.0000
  C   C19       1.0  0.26404  0.55383  0.94719  1.0000
  C   C20       1.0  0.73596  0.44617  0.05281  1.0000
  C   C21       1.0  0.24762  0.53238  0.05730  1.0000
  C   C22       1.0  0.75238  0.46762  0.94270  1.0000
  C   C23       1.0  0.29273  0.64184  0.10331  1.0000
  C   C24       1.0  0.70726  0.35816  0.89669  1.0000
  C   C25       1.0  0.35138  0.76538  0.03975  1.0000
  C   C26       1.0  0.64862  0.23462  0.96025  1.0000
  C   C27       1.0  0.18768  0.39743  0.12375  1.0000
  C   C28       1.0  0.81232  0.60258  0.87625  1.0000
  C   C29       1.0  0.18627  0.26529  0.08747  1.0000
  C   C30       1.0  0.81372  0.73472  0.91253  1.0000
  C   C31       1.0  0.13328  0.14015  0.15507  1.0000
  C   C32       1.0  0.86672  0.85985  0.84493  1.0000
  C   C33       1.0  0.08074  0.26742  0.28948  1.0000
  C   C34       1.0  0.91927  0.73258  0.71052  1.0000
  C   C35       1.0  0.13098  0.39718  0.22685  1.0000
  C   C36       1.0  0.86902  0.60282  0.77315  1.0000
  S   S1        1.0  0.29607  0.17030  0.78264  1.0000
  S   S2        1.0  0.70393  0.82970  0.21736  1.0000
  N   N1        1.0  0.36401  0.78168  0.93444  1.0000
  N   N2        1.0  0.63599  0.21832  0.06556  1.0000
  N   N3        1.0  0.08295  0.14007  0.25444  1.0000
  N   N4        1.0  0.91705  0.85994  0.74556  1.0000
  O   O1        1.0  0.80269  0.00650  0.50814  1.0000
  O   O2        1.0  0.19732  0.99350  0.49186  1.0000
  O   O3        1.0  0.69155  0.15468  0.34714  1.0000
  O   O4        1.0  0.30846  0.84531  0.65286  1.0000
  O   O5        1.0  0.23114  0.67574  0.33263  1.0000
  O   O6        1.0  0.76886  0.32426  0.66737  1.0000
  O   O7        1.0  0.07881  0.69666  0.47924  1.0000
  O   O8        1.0  0.92119  0.30334  0.52076  1.0000
  O   O9        1.0  0.24974  0.30556  0.82803  1.0000
  O   O10       1.0  0.75026  0.69444  0.17197  1.0000
  O   O11       1.0  0.45724  0.04595  0.83614  1.0000
  O   O12       1.0  0.54276  0.95405  0.16386  1.0000
  O   O13       1.0  0.14317  0.10201  0.77907  1.0000
  O   O14       1.0  0.85683  0.89799  0.22093  1.0000
