data_image0
_chemical_formula_structural       B2H24Pb2C24I2N16
_chemical_formula_sum              "B2 H24 Pb2 C24 I2 N16"
_cell_length_a       8.63423
_cell_length_b       10.0244
_cell_length_c       10.9245
_cell_angle_alpha    101.974
_cell_angle_beta     104.566
_cell_angle_gamma    103.599

_space_group_name_H-M_alt    "P 1"
_space_group_IT_number       1

loop_
  _space_group_symop_operation_xyz
  'x, y, z'

loop_
  _atom_site_type_symbol
  _atom_site_label
  _atom_site_symmetry_multiplicity
  _atom_site_fract_x
  _atom_site_fract_y
  _atom_site_fract_z
  _atom_site_occupancy
  B   B1        1.0  0.77086  0.35282  0.22901  1.0000
  B   B2        1.0  0.22913  0.64716  0.77102  1.0000
  H   H1        1.0  0.63380  0.57621  0.16700  1.0000
  H   H2        1.0  0.36619  0.42385  0.83300  1.0000
  H   H3        1.0  0.76192  0.42243  0.49918  1.0000
  H   H4        1.0  0.23811  0.57757  0.50078  1.0000
  H   H5        1.0  0.65144  0.65832  0.56516  1.0000
  H   H6        1.0  0.34858  0.34167  0.43488  1.0000
  H   H7        1.0  0.98549  0.64825  0.29407  1.0000
  H   H8        1.0  0.01453  0.35173  0.70598  1.0000
  H   H9        1.0  0.01890  0.23089  0.15780  1.0000
  H   H10       1.0  0.98108  0.76910  0.84217  1.0000
  H   H11       1.0  0.31023  0.43330  0.17571  1.0000
  H   H12       1.0  0.68974  0.56666  0.82423  1.0000
  H   H13       1.0  0.51959  0.08592  0.19524  1.0000
  H   H14       1.0  0.48039  0.91406  0.80476  1.0000
  H   H15       1.0  0.02110  0.30691  0.43592  1.0000
  H   H16       1.0  0.97887  0.69314  0.56410  1.0000
  H   H17       1.0  0.89764  0.06846  0.51536  1.0000
  H   H18       1.0  0.10243  0.93156  0.48465  1.0000
  H   H19       1.0  0.81505  0.31476  0.96968  1.0000
  H   H20       1.0  0.18491  0.68525  0.03027  1.0000
  H   H21       1.0  0.40543  0.24300  0.12041  1.0000
  H   H22       1.0  0.59457  0.75697  0.87960  1.0000
  H   H23       1.0  0.28606  0.15905  0.84780  1.0000
  H   H24       1.0  0.71395  0.84094  0.15221  1.0000
  Pb  Pb1       1.0  0.43898  0.82712  0.35622  1.0000
  Pb  Pb2       1.0  0.56102  0.17285  0.64370  1.0000
  C   C1        1.0  0.65326  0.56833  0.26698  1.0000
  C   C2        1.0  0.34674  0.43164  0.73301  1.0000
  C   C3        1.0  0.71855  0.48931  0.44074  1.0000
  C   C4        1.0  0.28143  0.51073  0.55929  1.0000
  C   C5        1.0  0.66305  0.60593  0.47197  1.0000
  C   C6        1.0  0.33695  0.39412  0.52804  1.0000
  C   C7        1.0  0.03514  0.56304  0.25936  1.0000
  C   C8        1.0  0.96485  0.43695  0.74063  1.0000
  C   C9        1.0  0.05414  0.34694  0.18716  1.0000
  C   C10       1.0  0.94583  0.65305  0.81280  1.0000
  C   C11       1.0  0.19877  0.44828  0.19752  1.0000
  C   C12       1.0  0.80122  0.55170  0.80246  1.0000
  C   C13       1.0  0.63950  0.11279  0.27091  1.0000
  C   C14       1.0  0.36050  0.88720  0.72909  1.0000
  C   C15       1.0  0.89897  0.22697  0.39910  1.0000
  C   C16       1.0  0.10106  0.77301  0.60092  1.0000
  C   C17       1.0  0.83782  0.10775  0.43644  1.0000
  C   C18       1.0  0.16219  0.89224  0.56358  1.0000
  C   C19       1.0  0.68764  0.28533  0.97325  1.0000
  C   C20       1.0  0.31237  0.71471  0.02680  1.0000
  C   C21       1.0  0.47258  0.24764  0.04904  1.0000
  C   C22       1.0  0.52741  0.75234  0.95097  1.0000
  C   C23       1.0  0.41426  0.20602  0.91367  1.0000
  C   C24       1.0  0.58575  0.79397  0.08631  1.0000
  I   I1        1.0  0.18528  0.99462  0.24639  1.0000
  I   I2        1.0  0.81470  0.00543  0.75362  1.0000
  N   N1        1.0  0.71214  0.46589  0.30973  1.0000
  N   N2        1.0  0.28786  0.53410  0.69030  1.0000
  N   N3        1.0  0.62308  0.65488  0.36251  1.0000
  N   N4        1.0  0.37691  0.34511  0.63746  1.0000
  N   N5        1.0  0.94984  0.42091  0.22713  1.0000
  N   N6        1.0  0.05014  0.57909  0.77285  1.0000
  N   N7        1.0  0.18598  0.58334  0.24313  1.0000
  N   N8        1.0  0.81404  0.41664  0.75686  1.0000
  N   N9        1.0  0.77200  0.22935  0.29296  1.0000
  N   N10       1.0  0.22803  0.77063  0.70705  1.0000
  N   N11       1.0  0.67469  0.03721  0.35527  1.0000
  N   N12       1.0  0.32531  0.96279  0.64475  1.0000
  N   N13       1.0  0.64695  0.29756  0.08636  1.0000
  N   N14       1.0  0.35304  0.70245  0.91369  1.0000
  N   N15       1.0  0.55086  0.23107  0.86772  1.0000
  N   N16       1.0  0.44919  0.76899  0.13231  1.0000
