data_image0
_chemical_formula_structural       Ag4H32C24S12O16F12
_chemical_formula_sum              "Ag4 H32 C24 S12 O16 F12"
_cell_length_a       9.64429
_cell_length_b       11.5341
_cell_length_c       13.1087
_cell_angle_alpha    65.9949
_cell_angle_beta     68.3905
_cell_angle_gamma    65.2598

_space_group_name_H-M_alt    "P 1"
_space_group_IT_number       1

loop_
  _space_group_symop_operation_xyz
  'x, y, z'

loop_
  _atom_site_type_symbol
  _atom_site_label
  _atom_site_symmetry_multiplicity
  _atom_site_fract_x
  _atom_site_fract_y
  _atom_site_fract_z
  _atom_site_occupancy
  Ag  Ag1       1.0  0.96308  0.86781  0.78200  1.0000
  Ag  Ag2       1.0  0.38712  0.36764  0.28182  1.0000
  Ag  Ag3       1.0  0.03692  0.13219  0.21799  1.0000
  Ag  Ag4       1.0  0.61288  0.63237  0.71819  1.0000
  H   H1        1.0  0.92712  0.60518  0.04874  1.0000
  H   H2        1.0  0.41912  0.10457  0.54855  1.0000
  H   H3        1.0  0.07288  0.39482  0.95126  1.0000
  H   H4        1.0  0.58088  0.89542  0.45145  1.0000
  H   H5        1.0  0.11996  0.58511  0.95600  1.0000
  H   H6        1.0  0.33907  0.08471  0.45577  1.0000
  H   H7        1.0  0.88004  0.41489  0.04400  1.0000
  H   H8        1.0  0.66093  0.91529  0.54422  1.0000
  H   H9        1.0  0.09923  0.45381  0.17102  1.0000
  H   H10       1.0  0.27579  0.95347  0.67089  1.0000
  H   H11       1.0  0.90077  0.54618  0.82898  1.0000
  H   H12       1.0  0.72421  0.04653  0.32911  1.0000
  H   H13       1.0  0.04496  0.60641  0.19992  1.0000
  H   H14       1.0  0.14879  0.10618  0.69973  1.0000
  H   H15       1.0  0.95505  0.39359  0.80009  1.0000
  H   H16       1.0  0.85121  0.89382  0.30027  1.0000
  H   H17       1.0  0.31825  0.66790  0.19858  1.0000
  H   H18       1.0  0.81507  0.16817  0.69858  1.0000
  H   H19       1.0  0.68175  0.33210  0.80141  1.0000
  H   H20       1.0  0.18493  0.83183  0.30142  1.0000
  H   H21       1.0  0.44079  0.69095  0.05400  1.0000
  H   H22       1.0  0.81392  0.19127  0.55406  1.0000
  H   H23       1.0  0.55920  0.30905  0.94599  1.0000
  H   H24       1.0  0.18608  0.80873  0.44594  1.0000
  H   H25       1.0  0.26285  0.77161  0.90045  1.0000
  H   H26       1.0  0.06508  0.27165  0.40039  1.0000
  H   H27       1.0  0.73714  0.22839  0.09955  1.0000
  H   H28       1.0  0.93492  0.72835  0.59961  1.0000
  H   H29       1.0  0.14560  0.93904  0.90750  1.0000
  H   H30       1.0  0.00816  0.43906  0.40743  1.0000
  H   H31       1.0  0.85440  0.06095  0.09250  1.0000
  H   H32       1.0  0.99185  0.56094  0.59257  1.0000
  C   C1        1.0  0.03867  0.62398  0.02765  1.0000
  C   C2        1.0  0.30982  0.12354  0.52743  1.0000
  C   C3        1.0  0.96133  0.37601  0.97236  1.0000
  C   C4        1.0  0.69018  0.87646  0.47256  1.0000
  C   C5        1.0  0.10762  0.55554  0.13318  1.0000
  C   C6        1.0  0.20360  0.05525  0.63303  1.0000
  C   C7        1.0  0.89238  0.44446  0.86682  1.0000
  C   C8        1.0  0.79640  0.94474  0.36697  1.0000
  C   C9        1.0  0.32580  0.68067  0.10958  1.0000
  C   C10       1.0  0.88373  0.18089  0.60956  1.0000
  C   C11       1.0  0.67420  0.31933  0.89042  1.0000
  C   C12       1.0  0.11627  0.81911  0.39044  1.0000
  C   C13       1.0  0.19692  0.80502  0.06769  1.0000
  C   C14       1.0  0.93025  0.30517  0.56760  1.0000
  C   C15       1.0  0.80308  0.19498  0.93231  1.0000
  C   C16       1.0  0.06975  0.69482  0.43240  1.0000
  C   C17       1.0  0.16734  0.83196  0.95330  1.0000
  C   C18       1.0  0.04745  0.33198  0.45324  1.0000
  C   C19       1.0  0.83265  0.16804  0.04670  1.0000
  C   C20       1.0  0.95255  0.66802  0.54676  1.0000
  C   C21       1.0  0.36580  0.45789  0.68291  1.0000
  C   C22       1.0  0.49363  0.95808  0.18287  1.0000
  C   C23       1.0  0.63420  0.54211  0.31709  1.0000
  C   C24       1.0  0.50636  0.04193  0.81713  1.0000
  S   S1        1.0  0.98242  0.80530  0.97843  1.0000
  S   S2        1.0  0.23413  0.30487  0.47835  1.0000
  S   S3        1.0  0.01758  0.19470  0.02157  1.0000
  S   S4        1.0  0.76587  0.69513  0.52165  1.0000
  S   S5        1.0  0.31781  0.53099  0.09834  1.0000
  S   S6        1.0  0.05251  0.03100  0.59833  1.0000
  S   S7        1.0  0.68219  0.46901  0.90166  1.0000
  S   S8        1.0  0.94749  0.96900  0.40167  1.0000
  S   S9        1.0  0.27855  0.63185  0.69354  1.0000
  S   S10       1.0  0.39640  0.13203  0.19338  1.0000
  S   S11       1.0  0.72146  0.36814  0.30646  1.0000
  S   S12       1.0  0.60359  0.86797  0.80661  1.0000
  O   O1        1.0  0.11593  0.88115  0.12665  1.0000
  O   O2        1.0  0.87603  0.38141  0.62646  1.0000
  O   O3        1.0  0.88407  0.11885  0.87335  1.0000
  O   O4        1.0  0.12397  0.61859  0.37354  1.0000
  O   O5        1.0  0.11005  0.64746  0.73377  1.0000
  O   O6        1.0  0.50917  0.14742  0.23361  1.0000
  O   O7        1.0  0.88995  0.35254  0.26623  1.0000
  O   O8        1.0  0.49083  0.85258  0.76639  1.0000
  O   O9        1.0  0.32850  0.71653  0.57885  1.0000
  O   O10       1.0  0.37665  0.21669  0.07865  1.0000
  O   O11       1.0  0.67150  0.28347  0.42115  1.0000
  O   O12       1.0  0.62335  0.78331  0.92135  1.0000
  O   O13       1.0  0.34552  0.62400  0.78144  1.0000
  O   O14       1.0  0.24920  0.12442  0.28123  1.0000
  O   O15       1.0  0.65448  0.37601  0.21856  1.0000
  O   O16       1.0  0.75079  0.87559  0.71877  1.0000
  F   F1        1.0  0.32813  0.37018  0.78765  1.0000
  F   F2        1.0  0.51428  0.87040  0.28760  1.0000
  F   F3        1.0  0.67187  0.62983  0.21235  1.0000
  F   F4        1.0  0.48571  0.12960  0.71240  1.0000
  F   F5        1.0  0.31012  0.44601  0.60799  1.0000
  F   F6        1.0  0.63619  0.94611  0.10788  1.0000
  F   F7        1.0  0.68988  0.55400  0.39201  1.0000
  F   F8        1.0  0.36381  0.05390  0.89212  1.0000
  F   F9        1.0  0.52477  0.42315  0.64725  1.0000
  F   F10       1.0  0.40497  0.92342  0.14729  1.0000
  F   F11       1.0  0.47524  0.57685  0.35275  1.0000
  F   F12       1.0  0.59504  0.07659  0.85270  1.0000
