data_image0
_chemical_formula_structural       Nd2Ag2H20C40N12O16
_chemical_formula_sum              "Nd2 Ag2 H20 C40 N12 O16"
_cell_length_a       9.22132
_cell_length_b       11.1853
_cell_length_c       11.1853
_cell_angle_alpha    100.649
_cell_angle_beta     106.429
_cell_angle_gamma    106.429

_space_group_name_H-M_alt    "P 1"
_space_group_IT_number       1

loop_
  _space_group_symop_operation_xyz
  'x, y, z'

loop_
  _atom_site_type_symbol
  _atom_site_label
  _atom_site_symmetry_multiplicity
  _atom_site_fract_x
  _atom_site_fract_y
  _atom_site_fract_z
  _atom_site_occupancy
  Nd  Nd1       1.0  0.25000  0.59376  0.40624  1.0000
  Nd  Nd2       1.0  0.75000  0.40624  0.59376  1.0000
  Ag  Ag1       1.0  0.25000  0.86498  0.13502  1.0000
  Ag  Ag2       1.0  0.75000  0.13502  0.86499  1.0000
  H   H1        1.0  0.12583  0.56326  0.93139  1.0000
  H   H2        1.0  0.37416  0.06861  0.43674  1.0000
  H   H3        1.0  0.87417  0.43674  0.06861  1.0000
  H   H4        1.0  0.62584  0.93140  0.56326  1.0000
  H   H5        1.0  0.62986  0.67974  0.16195  1.0000
  H   H6        1.0  0.87014  0.83804  0.32026  1.0000
  H   H7        1.0  0.37014  0.32026  0.83805  1.0000
  H   H8        1.0  0.12986  0.16195  0.67974  1.0000
  H   H9        1.0  0.48132  0.65122  0.75007  1.0000
  H   H10       1.0  0.01867  0.24992  0.34878  1.0000
  H   H11       1.0  0.51867  0.34878  0.24992  1.0000
  H   H12       1.0  0.98133  0.75008  0.65122  1.0000
  H   H13       1.0  0.87906  0.67062  0.12550  1.0000
  H   H14       1.0  0.62093  0.87450  0.32937  1.0000
  H   H15       1.0  0.12094  0.32937  0.87450  1.0000
  H   H16       1.0  0.37907  0.12550  0.67063  1.0000
  H   H17       1.0  0.71158  0.83215  0.82305  1.0000
  H   H18       1.0  0.78842  0.17695  0.16785  1.0000
  H   H19       1.0  0.28842  0.16785  0.17695  1.0000
  H   H20       1.0  0.21158  0.82305  0.83215  1.0000
  C   C1        1.0  0.25187  0.59167  0.93821  1.0000
  C   C2        1.0  0.24812  0.06179  0.40834  1.0000
  C   C3        1.0  0.74813  0.40834  0.06179  1.0000
  C   C4        1.0  0.75188  0.93821  0.59167  1.0000
  C   C5        1.0  0.37446  0.61712  0.05737  1.0000
  C   C6        1.0  0.12553  0.94263  0.38289  1.0000
  C   C7        1.0  0.62553  0.38289  0.94263  1.0000
  C   C8        1.0  0.87447  0.05737  0.61711  1.0000
  C   C9        1.0  0.53671  0.65893  0.06769  1.0000
  C   C10       1.0  0.96329  0.93231  0.34107  1.0000
  C   C11       1.0  0.46329  0.34107  0.93231  1.0000
  C   C12       1.0  0.03671  0.06769  0.65893  1.0000
  C   C13       1.0  0.57451  0.67433  0.95814  1.0000
  C   C14       1.0  0.92549  0.04186  0.32567  1.0000
  C   C15       1.0  0.42549  0.32567  0.04186  1.0000
  C   C16       1.0  0.07452  0.95814  0.67433  1.0000
  C   C17       1.0  0.45336  0.64328  0.83739  1.0000
  C   C18       1.0  0.04664  0.16261  0.35671  1.0000
  C   C19       1.0  0.54664  0.35671  0.16261  1.0000
  C   C20       1.0  0.95336  0.83739  0.64329  1.0000
  C   C21       1.0  0.29158  0.60344  0.82803  1.0000
  C   C22       1.0  0.20842  0.17197  0.39656  1.0000
  C   C23       1.0  0.70842  0.39656  0.17197  1.0000
  C   C24       1.0  0.79158  0.82803  0.60344  1.0000
  C   C25       1.0  0.87536  0.72369  0.05335  1.0000
  C   C26       1.0  0.62464  0.94664  0.27631  1.0000
  C   C27       1.0  0.12464  0.27631  0.94665  1.0000
  C   C28       1.0  0.37536  0.05336  0.72369  1.0000
  C   C29       1.0  0.79248  0.80628  0.89625  1.0000
  C   C30       1.0  0.70752  0.10374  0.19371  1.0000
  C   C31       1.0  0.20752  0.19372  0.10375  1.0000
  C   C32       1.0  0.29248  0.89625  0.80629  1.0000
  C   C33       1.0  0.33409  0.60675  0.17689  1.0000
  C   C34       1.0  0.16591  0.82311  0.39325  1.0000
  C   C35       1.0  0.66591  0.39325  0.82311  1.0000
  C   C36       1.0  0.83410  0.17689  0.60675  1.0000
  C   C37       1.0  0.16221  0.58392  0.70072  1.0000
  C   C38       1.0  0.33779  0.29927  0.41608  1.0000
  C   C39       1.0  0.83780  0.41608  0.29927  1.0000
  C   C40       1.0  0.66220  0.70073  0.58392  1.0000
  N   N1        1.0  0.73915  0.72913  0.96907  1.0000
  N   N2        1.0  0.76085  0.03092  0.27087  1.0000
  N   N3        1.0  0.26085  0.27087  0.03093  1.0000
  N   N4        1.0  0.23915  0.96907  0.72913  1.0000
  N   N5        1.0  0.00208  0.79322  0.03133  1.0000
  N   N6        1.0  0.49792  0.96867  0.20678  1.0000
  N   N7        1.0  0.99792  0.20678  0.96868  1.0000
  N   N8        1.0  0.50209  0.03132  0.79322  1.0000
  N   N9        1.0  0.95058  0.84555  0.93167  1.0000
  N   N10       1.0  0.54942  0.06834  0.15445  1.0000
  N   N11       1.0  0.04942  0.15446  0.06834  1.0000
  N   N12       1.0  0.45058  0.93166  0.84555  1.0000
  O   O1        1.0  0.18637  0.57987  0.16860  1.0000
  O   O2        1.0  0.31363  0.83140  0.42014  1.0000
  O   O3        1.0  0.81363  0.42014  0.83140  1.0000
  O   O4        1.0  0.68638  0.16860  0.57986  1.0000
  O   O5        1.0  0.44784  0.62693  0.28314  1.0000
  O   O6        1.0  0.05216  0.71686  0.37307  1.0000
  O   O7        1.0  0.55216  0.37307  0.71686  1.0000
  O   O8        1.0  0.94785  0.28315  0.62693  1.0000
  O   O9        1.0  0.02043  0.56683  0.70107  1.0000
  O   O10       1.0  0.47957  0.29893  0.43317  1.0000
  O   O11       1.0  0.97956  0.43316  0.29893  1.0000
  O   O12       1.0  0.52043  0.70106  0.56683  1.0000
  O   O13       1.0  0.20506  0.59333  0.60380  1.0000
  O   O14       1.0  0.29494  0.39620  0.40667  1.0000
  O   O15       1.0  0.79494  0.40667  0.39620  1.0000
  O   O16       1.0  0.70506  0.60380  0.59333  1.0000
