data_image0
_chemical_formula_structural       Tb2Ag2H20C40N12O16
_chemical_formula_sum              "Tb2 Ag2 H20 C40 N12 O16"
_cell_length_a       9.14073
_cell_length_b       11.0518
_cell_length_c       11.0518
_cell_angle_alpha    99.9972
_cell_angle_beta     106.358
_cell_angle_gamma    106.358

_space_group_name_H-M_alt    "P 1"
_space_group_IT_number       1

loop_
  _space_group_symop_operation_xyz
  'x, y, z'

loop_
  _atom_site_type_symbol
  _atom_site_label
  _atom_site_symmetry_multiplicity
  _atom_site_fract_x
  _atom_site_fract_y
  _atom_site_fract_z
  _atom_site_occupancy
  Tb  Tb1       1.0  0.75000  0.09292  0.90708  1.0000
  Tb  Tb2       1.0  0.25000  0.90707  0.09293  1.0000
  Ag  Ag1       1.0  0.75000  0.36551  0.63449  1.0000
  Ag  Ag2       1.0  0.25000  0.63449  0.36551  1.0000
  H   H1        1.0  0.37616  0.33685  0.82176  1.0000
  H   H2        1.0  0.12384  0.17824  0.66315  1.0000
  H   H3        1.0  0.62383  0.66315  0.17824  1.0000
  H   H4        1.0  0.87617  0.82176  0.33685  1.0000
  H   H5        1.0  0.88258  0.57094  0.93949  1.0000
  H   H6        1.0  0.61742  0.06051  0.42906  1.0000
  H   H7        1.0  0.11742  0.42906  0.06051  1.0000
  H   H8        1.0  0.38258  0.93949  0.57094  1.0000
  H   H9        1.0  0.52205  0.75362  0.85273  1.0000
  H   H10       1.0  0.97796  0.14728  0.24638  1.0000
  H   H11       1.0  0.47795  0.24638  0.14727  1.0000
  H   H12       1.0  0.02205  0.85273  0.75362  1.0000
  H   H13       1.0  0.12183  0.37232  0.82997  1.0000
  H   H14       1.0  0.37817  0.17003  0.62768  1.0000
  H   H15       1.0  0.87817  0.62768  0.17003  1.0000
  H   H16       1.0  0.62183  0.82997  0.37232  1.0000
  H   H17       1.0  0.29318  0.68165  0.66912  1.0000
  H   H18       1.0  0.20682  0.33089  0.31835  1.0000
  H   H19       1.0  0.70681  0.31835  0.33088  1.0000
  H   H20       1.0  0.79318  0.66912  0.68165  1.0000
  C   C1        1.0  0.42988  0.54305  0.82809  1.0000
  C   C2        1.0  0.07012  0.17191  0.45695  1.0000
  C   C3        1.0  0.57011  0.45695  0.17190  1.0000
  C   C4        1.0  0.92989  0.82809  0.54305  1.0000
  C   C5        1.0  0.46912  0.43234  0.84297  1.0000
  C   C6        1.0  0.03088  0.15703  0.56766  1.0000
  C   C7        1.0  0.53088  0.56766  0.15703  1.0000
  C   C8        1.0  0.96912  0.84297  0.43234  1.0000
  C   C9        1.0  0.63272  0.44281  0.88484  1.0000
  C   C10       1.0  0.86728  0.11516  0.55719  1.0000
  C   C11       1.0  0.36728  0.55719  0.11516  1.0000
  C   C12       1.0  0.13272  0.88484  0.44281  1.0000
  C   C13       1.0  0.75531  0.56360  0.91075  1.0000
  C   C14       1.0  0.74469  0.08925  0.43640  1.0000
  C   C15       1.0  0.24469  0.43640  0.08925  1.0000
  C   C16       1.0  0.25531  0.91075  0.56360  1.0000
  C   C17       1.0  0.71409  0.67513  0.89997  1.0000
  C   C18       1.0  0.78591  0.10003  0.32487  1.0000
  C   C19       1.0  0.28590  0.32487  0.10003  1.0000
  C   C20       1.0  0.21409  0.89997  0.67513  1.0000
  C   C21       1.0  0.55088  0.66530  0.86012  1.0000
  C   C22       1.0  0.94912  0.13988  0.33470  1.0000
  C   C23       1.0  0.44912  0.33469  0.13987  1.0000
  C   C24       1.0  0.05088  0.86013  0.66531  1.0000
  C   C25       1.0  0.12644  0.44610  0.77659  1.0000
  C   C26       1.0  0.37356  0.22342  0.55390  1.0000
  C   C27       1.0  0.87356  0.55389  0.22341  1.0000
  C   C28       1.0  0.62644  0.77659  0.44611  1.0000
  C   C29       1.0  0.21104  0.60659  0.69407  1.0000
  C   C30       1.0  0.28896  0.30593  0.39341  1.0000
  C   C31       1.0  0.78896  0.39341  0.30593  1.0000
  C   C32       1.0  0.71104  0.69407  0.60659  1.0000
  C   C33       1.0  0.67293  0.32160  0.89546  1.0000
  C   C34       1.0  0.82707  0.10454  0.67840  1.0000
  C   C35       1.0  0.32707  0.67839  0.10453  1.0000
  C   C36       1.0  0.17293  0.89546  0.32160  1.0000
  C   C37       1.0  0.84266  0.80484  0.91981  1.0000
  C   C38       1.0  0.65735  0.08019  0.19516  1.0000
  C   C39       1.0  0.15734  0.19515  0.08019  1.0000
  C   C40       1.0  0.34266  0.91981  0.80485  1.0000
  N   N1        1.0  0.26406  0.53193  0.77201  1.0000
  N   N2        1.0  0.23594  0.22799  0.46807  1.0000
  N   N3        1.0  0.73593  0.46807  0.22799  1.0000
  N   N4        1.0  0.76407  0.77201  0.53193  1.0000
  N   N5        1.0  0.99931  0.46912  0.70582  1.0000
  N   N6        1.0  0.50069  0.29418  0.53088  1.0000
  N   N7        1.0  0.00069  0.53088  0.29418  1.0000
  N   N8        1.0  0.49931  0.70582  0.46912  1.0000
  N   N9        1.0  0.05184  0.57089  0.65357  1.0000
  N   N10       1.0  0.44816  0.34643  0.42911  1.0000
  N   N11       1.0  0.94816  0.42911  0.34643  1.0000
  N   N12       1.0  0.55184  0.65357  0.57089  1.0000
  O   O1        1.0  0.55887  0.21563  0.87903  1.0000
  O   O2        1.0  0.94113  0.12096  0.78437  1.0000
  O   O3        1.0  0.44113  0.78437  0.12096  1.0000
  O   O4        1.0  0.05887  0.87903  0.21563  1.0000
  O   O5        1.0  0.82023  0.32673  0.91869  1.0000
  O   O6        1.0  0.67977  0.08131  0.67327  1.0000
  O   O7        1.0  0.17977  0.67327  0.08131  1.0000
  O   O8        1.0  0.32023  0.91869  0.32672  1.0000
  O   O9        1.0  0.98642  0.80634  0.93811  1.0000
  O   O10       1.0  0.51359  0.06189  0.19366  1.0000
  O   O11       1.0  0.01357  0.19366  0.06189  1.0000
  O   O12       1.0  0.48642  0.93811  0.80634  1.0000
  O   O13       1.0  0.79633  0.90147  0.90902  1.0000
  O   O14       1.0  0.70367  0.09098  0.09853  1.0000
  O   O15       1.0  0.20366  0.09852  0.09097  1.0000
  O   O16       1.0  0.29633  0.90902  0.90147  1.0000
