data_image0
_chemical_formula_structural       Cu4H12C8N16
_chemical_formula_sum              "Cu4 H12 C8 N16"
_cell_length_a       3.59387
_cell_length_b       10.2639
_cell_length_c       10.4293
_cell_angle_alpha    89.9998
_cell_angle_beta     100.426
_cell_angle_gamma    90.0002

_space_group_name_H-M_alt    "P 1"
_space_group_IT_number       1

loop_
  _space_group_symop_operation_xyz
  'x, y, z'

loop_
  _atom_site_type_symbol
  _atom_site_label
  _atom_site_symmetry_multiplicity
  _atom_site_fract_x
  _atom_site_fract_y
  _atom_site_fract_z
  _atom_site_occupancy
  Cu  Cu1       1.0  0.14004  0.38673  0.39586  1.0000
  Cu  Cu2       1.0  0.85995  0.88673  0.10414  1.0000
  Cu  Cu3       1.0  0.85995  0.61327  0.60414  1.0000
  Cu  Cu4       1.0  0.14005  0.11327  0.89586  1.0000
  H   H1        1.0  0.52365  0.15138  0.52419  1.0000
  H   H2        1.0  0.47635  0.65137  0.97580  1.0000
  H   H3        1.0  0.47636  0.84863  0.47580  1.0000
  H   H4        1.0  0.52364  0.34862  0.02420  1.0000
  H   H5        1.0  0.56690  0.08078  0.67224  1.0000
  H   H6        1.0  0.43309  0.58077  0.82775  1.0000
  H   H7        1.0  0.43310  0.91923  0.32775  1.0000
  H   H8        1.0  0.56691  0.41922  0.17225  1.0000
  H   H9        1.0  0.96284  0.42057  0.86224  1.0000
  H   H10       1.0  0.03717  0.92057  0.63776  1.0000
  H   H11       1.0  0.03715  0.57943  0.13776  1.0000
  H   H12       1.0  0.96283  0.07943  0.36224  1.0000
  C   C1        1.0  0.25873  0.24413  0.65033  1.0000
  C   C2        1.0  0.74126  0.74413  0.84967  1.0000
  C   C3        1.0  0.74126  0.75587  0.34967  1.0000
  C   C4        1.0  0.25874  0.25587  0.15033  1.0000
  C   C5        1.0  0.05051  0.37739  0.77742  1.0000
  C   C6        1.0  0.94950  0.87738  0.72258  1.0000
  C   C7        1.0  0.94949  0.62262  0.22257  1.0000
  C   C8        1.0  0.05050  0.12262  0.27743  1.0000
  N   N1        1.0  0.16570  0.35275  0.58080  1.0000
  N   N2        1.0  0.83431  0.85275  0.91920  1.0000
  N   N3        1.0  0.83430  0.64726  0.41920  1.0000
  N   N4        1.0  0.16571  0.14726  0.08080  1.0000
  N   N5        1.0  0.03226  0.43991  0.66465  1.0000
  N   N6        1.0  0.96775  0.93990  0.83535  1.0000
  N   N7        1.0  0.96773  0.56010  0.33534  1.0000
  N   N8        1.0  0.03227  0.06010  0.16466  1.0000
  N   N9        1.0  0.18841  0.25396  0.77403  1.0000
  N   N10       1.0  0.81159  0.75395  0.72597  1.0000
  N   N11       1.0  0.81158  0.74604  0.22597  1.0000
  N   N12       1.0  0.18841  0.24603  0.27403  1.0000
  N   N13       1.0  0.39445  0.13253  0.60148  1.0000
  N   N14       1.0  0.60554  0.63252  0.89851  1.0000
  N   N15       1.0  0.60555  0.86748  0.39852  1.0000
  N   N16       1.0  0.39445  0.36747  0.10148  1.0000
