data_image0
_chemical_formula_structural       Cu8H24C16N32
_chemical_formula_sum              "Cu8 H24 C16 N32"
_cell_length_a       8.23597
_cell_length_b       9.53314
_cell_length_c       10.2838
_cell_angle_alpha    89.9999
_cell_angle_beta     90.0002
_cell_angle_gamma    108.127

_space_group_name_H-M_alt    "P 1"
_space_group_IT_number       1

loop_
  _space_group_symop_operation_xyz
  'x, y, z'

loop_
  _atom_site_type_symbol
  _atom_site_label
  _atom_site_symmetry_multiplicity
  _atom_site_fract_x
  _atom_site_fract_y
  _atom_site_fract_z
  _atom_site_occupancy
  Cu  Cu1       1.0  0.31090  0.01393  0.61721  1.0000
  Cu  Cu2       1.0  0.18910  0.48607  0.11721  1.0000
  Cu  Cu3       1.0  0.68910  0.98608  0.38279  1.0000
  Cu  Cu4       1.0  0.81090  0.51393  0.88279  1.0000
  Cu  Cu5       1.0  0.00208  0.84126  0.38402  1.0000
  Cu  Cu6       1.0  0.49792  0.65874  0.88402  1.0000
  Cu  Cu7       1.0  0.99792  0.15875  0.61598  1.0000
  Cu  Cu8       1.0  0.50208  0.34126  0.11598  1.0000
  H   H1        1.0  0.54382  0.27177  0.41712  1.0000
  H   H2        1.0  0.95618  0.22823  0.91712  1.0000
  H   H3        1.0  0.45618  0.72823  0.58288  1.0000
  H   H4        1.0  0.04382  0.77177  0.08288  1.0000
  H   H5        1.0  0.31392  0.83971  0.85693  1.0000
  H   H6        1.0  0.18608  0.66029  0.35693  1.0000
  H   H7        1.0  0.68608  0.16029  0.14307  1.0000
  H   H8        1.0  0.81392  0.33971  0.64307  1.0000
  H   H9        1.0  0.18259  0.68648  0.92642  1.0000
  H   H10       1.0  0.31741  0.81352  0.42642  1.0000
  H   H11       1.0  0.81741  0.31352  0.07358  1.0000
  H   H12       1.0  0.68259  0.18647  0.57359  1.0000
  H   H13       1.0  0.79544  0.56338  0.56909  1.0000
  H   H14       1.0  0.70456  0.93662  0.06910  1.0000
  H   H15       1.0  0.20456  0.43662  0.43090  1.0000
  H   H16       1.0  0.29544  0.06338  0.93090  1.0000
  H   H17       1.0  0.13286  0.16767  0.08002  1.0000
  H   H18       1.0  0.36714  0.33233  0.58003  1.0000
  H   H19       1.0  0.86714  0.83233  0.91998  1.0000
  H   H20       1.0  0.63286  0.66767  0.41997  1.0000
  H   H21       1.0  0.99954  0.01611  0.15132  1.0000
  H   H22       1.0  0.50046  0.48388  0.65132  1.0000
  H   H23       1.0  0.00046  0.98388  0.84868  1.0000
  H   H24       1.0  0.49954  0.51612  0.34868  1.0000
  C   C1        1.0  0.10103  0.73995  0.75464  1.0000
  C   C2        1.0  0.39897  0.76004  0.25464  1.0000
  C   C3        1.0  0.89897  0.26004  0.24536  1.0000
  C   C4        1.0  0.60103  0.23996  0.74536  1.0000
  C   C5        1.0  0.90688  0.63807  0.61635  1.0000
  C   C6        1.0  0.59312  0.86193  0.11635  1.0000
  C   C7        1.0  0.09311  0.36193  0.38365  1.0000
  C   C8        1.0  0.40688  0.13807  0.88365  1.0000
  C   C9        1.0  0.22187  0.10384  0.24314  1.0000
  C   C10       1.0  0.27814  0.39616  0.74314  1.0000
  C   C11       1.0  0.77813  0.89616  0.75686  1.0000
  C   C12       1.0  0.72187  0.60384  0.25686  1.0000
  C   C13       1.0  0.42632  0.19986  0.37524  1.0000
  C   C14       1.0  0.07368  0.30014  0.87524  1.0000
  C   C15       1.0  0.57368  0.80014  0.62476  1.0000
  C   C16       1.0  0.92632  0.69986  0.12476  1.0000
  N   N1        1.0  0.14098  0.82061  0.64565  1.0000
  N   N2        1.0  0.35902  0.67938  0.14565  1.0000
  N   N3        1.0  0.85902  0.17939  0.35435  1.0000
  N   N4        1.0  0.64098  0.32062  0.85435  1.0000
  N   N5        1.0  0.01287  0.75340  0.55589  1.0000
  N   N6        1.0  0.48712  0.74660  0.05589  1.0000
  N   N7        1.0  0.98712  0.24661  0.44411  1.0000
  N   N8        1.0  0.51288  0.25340  0.94411  1.0000
  N   N9        1.0  0.95418  0.62474  0.74194  1.0000
  N   N10       1.0  0.54582  0.87526  0.24194  1.0000
  N   N11       1.0  0.04582  0.37526  0.25806  1.0000
  N   N12       1.0  0.45419  0.12474  0.75806  1.0000
  N   N13       1.0  0.19008  0.77585  0.86914  1.0000
  N   N14       1.0  0.30992  0.72415  0.36914  1.0000
  N   N15       1.0  0.80992  0.22416  0.13086  1.0000
  N   N16       1.0  0.69008  0.27584  0.63086  1.0000
  N   N17       1.0  0.18384  0.02440  0.35261  1.0000
  N   N18       1.0  0.31616  0.47560  0.85261  1.0000
  N   N19       1.0  0.81616  0.97560  0.64739  1.0000
  N   N20       1.0  0.68384  0.52440  0.14739  1.0000
  N   N21       1.0  0.31766  0.08751  0.43898  1.0000
  N   N22       1.0  0.18234  0.41249  0.93898  1.0000
  N   N23       1.0  0.68234  0.91249  0.56102  1.0000
  N   N24       1.0  0.81766  0.58751  0.06102  1.0000
  N   N25       1.0  0.37262  0.21502  0.25247  1.0000
  N   N26       1.0  0.12739  0.28498  0.75247  1.0000
  N   N27       1.0  0.62738  0.78498  0.74753  1.0000
  N   N28       1.0  0.87262  0.71502  0.24753  1.0000
  N   N29       1.0  0.12364  0.07446  0.13232  1.0000
  N   N30       1.0  0.37636  0.42554  0.63232  1.0000
  N   N31       1.0  0.87636  0.92554  0.86768  1.0000
  N   N32       1.0  0.62365  0.57447  0.36767  1.0000
