data_image0
_chemical_formula_structural       Er2Ag2H24C40N12O18
_chemical_formula_sum              "Er2 Ag2 H24 C40 N12 O18"
_cell_length_a       7.69122
_cell_length_b       9.97325
_cell_length_c       14.5407
_cell_angle_alpha    92.5899
_cell_angle_beta     92.2105
_cell_angle_gamma    110.738

_space_group_name_H-M_alt    "P 1"
_space_group_IT_number       1

loop_
  _space_group_symop_operation_xyz
  'x, y, z'

loop_
  _atom_site_type_symbol
  _atom_site_label
  _atom_site_symmetry_multiplicity
  _atom_site_fract_x
  _atom_site_fract_y
  _atom_site_fract_z
  _atom_site_occupancy
  Er  Er1       1.0  0.45347  0.51022  0.28261  1.0000
  Er  Er2       1.0  0.54654  0.48978  0.71739  1.0000
  Ag  Ag1       1.0  0.93441  0.98582  0.87191  1.0000
  Ag  Ag2       1.0  0.06559  0.01418  0.12809  1.0000
  H   H1        1.0  0.82943  0.62384  0.37031  1.0000
  H   H2        1.0  0.17057  0.37617  0.62969  1.0000
  H   H3        1.0  0.71384  0.59094  0.46491  1.0000
  H   H4        1.0  0.28616  0.40907  0.53509  1.0000
  H   H5        1.0  0.24301  0.18021  0.52391  1.0000
  H   H6        1.0  0.75700  0.81979  0.47608  1.0000
  H   H7        1.0  0.40853  0.00633  0.28061  1.0000
  H   H8        1.0  0.59148  0.99366  0.71939  1.0000
  H   H9        1.0  0.23584  0.74356  0.50934  1.0000
  H   H10       1.0  0.76416  0.25644  0.49066  1.0000
  H   H11       1.0  0.05438  0.10493  0.65040  1.0000
  H   H12       1.0  0.94562  0.89507  0.34960  1.0000
  H   H13       1.0  0.29094  0.77882  0.65970  1.0000
  H   H14       1.0  0.70906  0.22118  0.34030  1.0000
  H   H15       1.0  0.16434  0.70037  0.87253  1.0000
  H   H16       1.0  0.83566  0.29965  0.12747  1.0000
  H   H17       1.0  0.70169  0.56824  0.04558  1.0000
  H   H18       1.0  0.29831  0.43175  0.95442  1.0000
  H   H19       1.0  0.25478  0.77055  0.17050  1.0000
  H   H20       1.0  0.74521  0.22945  0.82950  1.0000
  H   H21       1.0  0.45309  0.82263  0.86217  1.0000
  H   H22       1.0  0.54690  0.17738  0.13783  1.0000
  H   H23       1.0  0.54498  0.83033  0.15291  1.0000
  H   H24       1.0  0.45502  0.16968  0.84709  1.0000
  C   C1        1.0  0.22939  0.95953  0.52696  1.0000
  C   C2        1.0  0.77061  0.04047  0.47304  1.0000
  C   C3        1.0  0.25966  0.08909  0.48631  1.0000
  C   C4        1.0  0.74035  0.91090  0.51369  1.0000
  C   C5        1.0  0.32242  0.10477  0.39696  1.0000
  C   C6        1.0  0.67759  0.89523  0.60304  1.0000
  C   C7        1.0  0.35754  0.99251  0.34958  1.0000
  C   C8        1.0  0.64246  0.00748  0.65042  1.0000
  C   C9        1.0  0.32851  0.86403  0.39180  1.0000
  C   C10       1.0  0.67150  0.13597  0.60821  1.0000
  C   C11       1.0  0.26002  0.84632  0.47950  1.0000
  C   C12       1.0  0.73998  0.15368  0.52050  1.0000
  C   C13       1.0  0.10336  0.02160  0.67302  1.0000
  C   C14       1.0  0.89663  0.97840  0.32698  1.0000
  C   C15       1.0  0.22397  0.85401  0.67897  1.0000
  C   C16       1.0  0.77603  0.14600  0.32103  1.0000
  C   C17       1.0  0.36246  0.24670  0.35627  1.0000
  C   C18       1.0  0.63756  0.75330  0.64372  1.0000
  C   C19       1.0  0.37613  0.74277  0.35003  1.0000
  C   C20       1.0  0.62387  0.25723  0.64997  1.0000
  C   C21       1.0  0.23331  0.74348  0.02045  1.0000
  C   C22       1.0  0.76668  0.25652  0.97956  1.0000
  C   C23       1.0  0.11422  0.69285  0.94168  1.0000
  C   C24       1.0  0.88577  0.30716  0.05832  1.0000
  C   C25       1.0  0.92238  0.63181  0.95099  1.0000
  C   C26       1.0  0.07762  0.36819  0.04902  1.0000
  C   C27       1.0  0.85097  0.61860  0.03847  1.0000
  C   C28       1.0  0.14903  0.38139  0.96153  1.0000
  C   C29       1.0  0.97101  0.66883  0.11747  1.0000
  C   C30       1.0  0.02899  0.33117  0.88254  1.0000
  C   C31       1.0  0.16308  0.73392  0.10835  1.0000
  C   C32       1.0  0.83691  0.26608  0.89165  1.0000
  C   C33       1.0  0.51959  0.84187  0.93106  1.0000
  C   C34       1.0  0.48041  0.15814  0.06894  1.0000
  C   C35       1.0  0.56872  0.84696  0.08040  1.0000
  C   C36       1.0  0.43128  0.15305  0.91960  1.0000
  C   C37       1.0  0.89076  0.64697  0.21137  1.0000
  C   C38       1.0  0.10923  0.35302  0.78863  1.0000
  C   C39       1.0  0.79309  0.57498  0.86719  1.0000
  C   C40       1.0  0.20691  0.42502  0.13281  1.0000
  N   N1        1.0  0.70054  0.90277  0.95159  1.0000
  N   N2        1.0  0.29945  0.09724  0.04841  1.0000
  N   N3        1.0  0.73222  0.90611  0.04577  1.0000
  N   N4        1.0  0.26778  0.09390  0.95422  1.0000
  N   N5        1.0  0.42997  0.80603  0.01092  1.0000
  N   N6        1.0  0.57003  0.19398  0.98908  1.0000
  N   N7        1.0  0.09864  0.98008  0.75795  1.0000
  N   N8        1.0  0.90136  0.01992  0.24205  1.0000
  N   N9        1.0  0.17768  0.87558  0.76242  1.0000
  N   N10       1.0  0.82232  0.12443  0.23758  1.0000
  N   N11       1.0  0.18135  0.94384  0.61998  1.0000
  N   N12       1.0  0.81865  0.05616  0.38002  1.0000
  O   O1        1.0  0.31986  0.34446  0.39874  1.0000
  O   O2        1.0  0.68014  0.65553  0.60125  1.0000
  O   O3        1.0  0.44424  0.26988  0.28009  1.0000
  O   O4        1.0  0.55579  0.73012  0.71990  1.0000
  O   O5        1.0  0.46340  0.75629  0.27549  1.0000
  O   O6        1.0  0.53660  0.24370  0.72451  1.0000
  O   O7        1.0  0.33588  0.62796  0.39255  1.0000
  O   O8        1.0  0.66411  0.37203  0.60745  1.0000
  O   O9        1.0  0.71706  0.57138  0.21018  1.0000
  O   O10       1.0  0.28294  0.42860  0.78982  1.0000
  O   O11       1.0  0.99150  0.70122  0.28401  1.0000
  O   O12       1.0  0.00850  0.29878  0.71599  1.0000
  O   O13       1.0  0.61867  0.51517  0.87784  1.0000
  O   O14       1.0  0.38132  0.48484  0.12216  1.0000
  O   O15       1.0  0.85439  0.58582  0.78617  1.0000
  O   O16       1.0  0.14561  0.41417  0.21383  1.0000
  O   O17       1.0  0.70511  0.58136  0.39729  1.0000
  O   O18       1.0  0.29489  0.41865  0.60271  1.0000
