data_image0
_chemical_formula_structural       Tb2Ag6H36C64N16O16
_chemical_formula_sum              "Tb2 Ag6 H36 C64 N16 O16"
_cell_length_a       5.50946
_cell_length_b       15.9757
_cell_length_c       21.7033
_cell_angle_alpha    108.119
_cell_angle_beta     90.0006
_cell_angle_gamma    89.9998

_space_group_name_H-M_alt    "P 1"
_space_group_IT_number       1

loop_
  _space_group_symop_operation_xyz
  'x, y, z'

loop_
  _atom_site_type_symbol
  _atom_site_label
  _atom_site_symmetry_multiplicity
  _atom_site_fract_x
  _atom_site_fract_y
  _atom_site_fract_z
  _atom_site_occupancy
  Tb  Tb1       1.0  0.50001  0.50000  0.50000  1.0000
  Tb  Tb2       1.0  0.00000  0.00000  1.00000  1.0000
  Ag  Ag1       1.0  0.59140  0.91980  0.63760  1.0000
  Ag  Ag2       1.0  0.09139  0.58020  0.86240  1.0000
  Ag  Ag3       1.0  0.40860  0.08020  0.36240  1.0000
  Ag  Ag4       1.0  0.90860  0.41980  0.13760  1.0000
  Ag  Ag5       1.0  0.50000  0.00000  0.50000  1.0000
  Ag  Ag6       1.0  1.00000  0.50000  1.00000  1.0000
  H   H1        1.0  0.32378  0.74920  0.60305  1.0000
  H   H2        1.0  0.82377  0.75079  0.89695  1.0000
  H   H3        1.0  0.67623  0.25080  0.39695  1.0000
  H   H4        1.0  0.17623  0.24920  0.10305  1.0000
  H   H5        1.0  0.63822  0.67686  0.66687  1.0000
  H   H6        1.0  0.13821  0.82314  0.83312  1.0000
  H   H7        1.0  0.36179  0.32314  0.33313  1.0000
  H   H8        1.0  0.86179  0.17686  0.16688  1.0000
  H   H9        1.0  0.61331  0.81899  0.75713  1.0000
  H   H10       1.0  0.11330  0.68102  0.74286  1.0000
  H   H11       1.0  0.38670  0.18101  0.24287  1.0000
  H   H12       1.0  0.88670  0.31899  0.25714  1.0000
  H   H13       1.0  0.87884  0.98943  0.80728  1.0000
  H   H14       1.0  0.37884  0.51057  0.69272  1.0000
  H   H15       1.0  0.12115  0.01057  0.19272  1.0000
  H   H16       1.0  0.62116  0.48943  0.30728  1.0000
  H   H17       1.0  0.29053  0.04066  0.77805  1.0000
  H   H18       1.0  0.79051  0.45934  0.72195  1.0000
  H   H19       1.0  0.70947  0.95934  0.22195  1.0000
  H   H20       1.0  0.20948  0.54067  0.27805  1.0000
  H   H21       1.0  0.14723  0.66385  0.35924  1.0000
  H   H22       1.0  0.64724  0.83615  0.14076  1.0000
  H   H23       1.0  0.85275  0.33616  0.64076  1.0000
  H   H24       1.0  0.35276  0.16384  0.85924  1.0000
  H   H25       1.0  0.62145  0.73837  0.51339  1.0000
  H   H26       1.0  0.12144  0.76163  0.98661  1.0000
  H   H27       1.0  0.37856  0.26163  0.48662  1.0000
  H   H28       1.0  0.87856  0.23837  0.01338  1.0000
  H   H29       1.0  0.37629  0.80510  0.40542  1.0000
  H   H30       1.0  0.87630  0.69490  0.09458  1.0000
  H   H31       1.0  0.62370  0.19491  0.59457  1.0000
  H   H32       1.0  0.12369  0.30509  0.90542  1.0000
  H   H33       1.0  0.06284  0.02656  0.60780  1.0000
  H   H34       1.0  0.56284  0.47344  0.89220  1.0000
  H   H35       1.0  0.93715  0.97344  0.39221  1.0000
  H   H36       1.0  0.43716  0.52656  0.10779  1.0000
  C   C1        1.0  0.17053  0.76557  0.63636  1.0000
  C   C2        1.0  0.67052  0.73443  0.86364  1.0000
  C   C3        1.0  0.82947  0.23443  0.36364  1.0000
  C   C4        1.0  0.32948  0.26557  0.13636  1.0000
  C   C5        1.0  0.99752  0.61726  0.58017  1.0000
  C   C6        1.0  0.49751  0.88274  0.91983  1.0000
  C   C7        1.0  0.00250  0.38274  0.41983  1.0000
  C   C8        1.0  0.50250  0.11726  0.08017  1.0000
  C   C9        1.0  0.78188  0.72568  0.67371  1.0000
  C   C10       1.0  0.28187  0.77432  0.82628  1.0000
  C   C11       1.0  0.21813  0.27432  0.32629  1.0000
  C   C12       1.0  0.71813  0.22568  0.17372  1.0000
  C   C13       1.0  0.95588  0.86516  0.72923  1.0000
  C   C14       1.0  0.45587  0.63484  0.77077  1.0000
  C   C15       1.0  0.04412  0.13484  0.27077  1.0000
  C   C16       1.0  0.54413  0.36516  0.22923  1.0000
  C   C17       1.0  0.15282  0.84608  0.68507  1.0000
  C   C18       1.0  0.65281  0.65392  0.81493  1.0000
  C   C19       1.0  0.84718  0.15392  0.31493  1.0000
  C   C20       1.0  0.34719  0.34608  0.18507  1.0000
  C   C21       1.0  0.76648  0.80482  0.72390  1.0000
  C   C22       1.0  0.26647  0.69518  0.77610  1.0000
  C   C23       1.0  0.23353  0.19518  0.27610  1.0000
  C   C24       1.0  0.73353  0.30483  0.22390  1.0000
  C   C25       1.0  0.98270  0.70523  0.63105  1.0000
  C   C26       1.0  0.48269  0.79477  0.86895  1.0000
  C   C27       1.0  0.01731  0.29478  0.36895  1.0000
  C   C28       1.0  0.51731  0.20523  0.13105  1.0000
  C   C29       1.0  0.20868  0.97774  0.75227  1.0000
  C   C30       1.0  0.70868  0.52227  0.74773  1.0000
  C   C31       1.0  0.79132  0.02226  0.24773  1.0000
  C   C32       1.0  0.29132  0.47774  0.25227  1.0000
  C   C33       1.0  0.74754  0.60746  0.40352  1.0000
  C   C34       1.0  0.24753  0.89253  0.09648  1.0000
  C   C35       1.0  0.25247  0.39254  0.59648  1.0000
  C   C36       1.0  0.75247  0.10746  0.90352  1.0000
  C   C37       1.0  0.08423  0.71322  0.40312  1.0000
  C   C38       1.0  0.58424  0.78678  0.09688  1.0000
  C   C39       1.0  0.91575  0.28679  0.59688  1.0000
  C   C40       1.0  0.41575  0.21321  0.90312  1.0000
  C   C41       1.0  0.90820  0.83355  0.51574  1.0000
  C   C42       1.0  0.40820  0.66646  0.98427  1.0000
  C   C43       1.0  0.09180  0.16645  0.48427  1.0000
  C   C44       1.0  0.59180  0.33354  0.01573  1.0000
  C   C45       1.0  0.12078  0.85190  0.48513  1.0000
  C   C46       1.0  0.62078  0.64810  0.01488  1.0000
  C   C47       1.0  0.87921  0.14810  0.51488  1.0000
  C   C48       1.0  0.37921  0.35190  0.98512  1.0000
  C   C49       1.0  0.78405  0.75395  0.49053  1.0000
  C   C50       1.0  0.28405  0.74606  0.00947  1.0000
  C   C51       1.0  0.21595  0.24605  0.50947  1.0000
  C   C52       1.0  0.71594  0.25394  0.99053  1.0000
  C   C53       1.0  0.21081  0.79145  0.42823  1.0000
  C   C54       1.0  0.71082  0.70856  0.07178  1.0000
  C   C55       1.0  0.78918  0.20856  0.57177  1.0000
  C   C56       1.0  0.28917  0.29144  0.92822  1.0000
  C   C57       1.0  0.04698  0.96279  0.57099  1.0000
  C   C58       1.0  0.54698  0.53721  0.92901  1.0000
  C   C59       1.0  0.95302  0.03721  0.42901  1.0000
  C   C60       1.0  0.45302  0.46278  0.07098  1.0000
  C   C61       1.0  0.87367  0.69369  0.43358  1.0000
  C   C62       1.0  0.37367  0.80631  0.06642  1.0000
  C   C63       1.0  0.12633  0.30631  0.56642  1.0000
  C   C64       1.0  0.62632  0.19368  0.93358  1.0000
  N   N1        1.0  0.99925  0.94871  0.77127  1.0000
  N   N2        1.0  0.49924  0.55130  0.72873  1.0000
  N   N3        1.0  0.00075  0.05129  0.22874  1.0000
  N   N4        1.0  0.50076  0.44871  0.27127  1.0000
  N   N5        1.0  0.30654  0.91875  0.70050  1.0000
  N   N6        1.0  0.80652  0.58125  0.79949  1.0000
  N   N7        1.0  0.69347  0.08126  0.29950  1.0000
  N   N8        1.0  0.19347  0.41875  0.20051  1.0000
  N   N9        1.0  0.86634  0.90589  0.57035  1.0000
  N   N10       1.0  0.36634  0.59412  0.92965  1.0000
  N   N11       1.0  0.13366  0.09411  0.42965  1.0000
  N   N12       1.0  0.63366  0.40588  0.07034  1.0000
  N   N13       1.0  0.20486  0.93411  0.52139  1.0000
  N   N14       1.0  0.70486  0.56590  0.97861  1.0000
  N   N15       1.0  0.79514  0.06590  0.47861  1.0000
  N   N16       1.0  0.29514  0.43410  0.02138  1.0000
  O   O1        1.0  0.80383  0.57203  0.56613  1.0000
  O   O2        1.0  0.30382  0.92797  0.93387  1.0000
  O   O3        1.0  0.19620  0.42796  0.43387  1.0000
  O   O4        1.0  0.69620  0.07204  0.06613  1.0000
  O   O5        1.0  0.80510  0.56212  0.34641  1.0000
  O   O6        1.0  0.30508  0.93787  0.15359  1.0000
  O   O7        1.0  0.19490  0.43788  0.65360  1.0000
  O   O8        1.0  0.69490  0.06212  0.84641  1.0000
  O   O9        1.0  0.58353  0.58412  0.43715  1.0000
  O   O10       1.0  0.08351  0.91588  0.06285  1.0000
  O   O11       1.0  0.41649  0.41588  0.56285  1.0000
  O   O12       1.0  0.91649  0.08412  0.93715  1.0000
  O   O13       1.0  0.20417  0.59314  0.55468  1.0000
  O   O14       1.0  0.70417  0.90685  0.94533  1.0000
  O   O15       1.0  0.79585  0.40685  0.44533  1.0000
  O   O16       1.0  0.29585  0.09315  0.05467  1.0000
