data_image0
_chemical_formula_structural       Cd2H40C52S4N8O4
_chemical_formula_sum              "Cd2 H40 C52 S4 N8 O4"
_cell_length_a       10.5936
_cell_length_b       10.5935
_cell_length_c       11.4312
_cell_angle_alpha    81.775
_cell_angle_beta     81.7748
_cell_angle_gamma    82.7763

_space_group_name_H-M_alt    "P 1"
_space_group_IT_number       1

loop_
  _space_group_symop_operation_xyz
  'x, y, z'

loop_
  _atom_site_type_symbol
  _atom_site_label
  _atom_site_symmetry_multiplicity
  _atom_site_fract_x
  _atom_site_fract_y
  _atom_site_fract_z
  _atom_site_occupancy
  Cd  Cd1       1.0  0.50000  0.50000  0.50000  1.0000
  Cd  Cd2       1.0  0.50000  0.50000  0.00000  1.0000
  H   H1        1.0  0.20038  0.47865  0.05465  1.0000
  H   H2        1.0  0.47865  0.20038  0.55465  1.0000
  H   H3        1.0  0.79963  0.52135  0.94535  1.0000
  H   H4        1.0  0.52134  0.79962  0.44535  1.0000
  H   H5        1.0  0.39373  0.78693  0.89595  1.0000
  H   H6        1.0  0.78694  0.39373  0.39595  1.0000
  H   H7        1.0  0.60627  0.21307  0.10405  1.0000
  H   H8        1.0  0.21307  0.60627  0.60405  1.0000
  H   H9        1.0  0.98563  0.60895  0.04115  1.0000
  H   H10       1.0  0.60896  0.98563  0.54115  1.0000
  H   H11       1.0  0.01437  0.39104  0.95885  1.0000
  H   H12       1.0  0.39104  0.01437  0.45885  1.0000
  H   H13       1.0  0.98048  0.83901  0.94922  1.0000
  H   H14       1.0  0.83901  0.98048  0.44922  1.0000
  H   H15       1.0  0.01952  0.16099  0.05078  1.0000
  H   H16       1.0  0.16099  0.01952  0.55078  1.0000
  H   H17       1.0  0.22367  0.02335  0.93268  1.0000
  H   H18       1.0  0.02335  0.22367  0.43268  1.0000
  H   H19       1.0  0.77633  0.97665  0.06733  1.0000
  H   H20       1.0  0.97665  0.77633  0.56732  1.0000
  H   H21       1.0  0.25957  0.98080  0.78505  1.0000
  H   H22       1.0  0.98080  0.25957  0.28505  1.0000
  H   H23       1.0  0.74043  0.01920  0.21496  1.0000
  H   H24       1.0  0.01920  0.74043  0.71495  1.0000
  H   H25       1.0  0.23118  0.20221  0.78604  1.0000
  H   H26       1.0  0.20222  0.23118  0.28604  1.0000
  H   H27       1.0  0.76882  0.79779  0.21396  1.0000
  H   H28       1.0  0.79778  0.76882  0.71396  1.0000
  H   H29       1.0  0.79859  0.32358  0.65813  1.0000
  H   H30       1.0  0.32357  0.79858  0.15813  1.0000
  H   H31       1.0  0.20142  0.67642  0.34187  1.0000
  H   H32       1.0  0.67642  0.20142  0.84187  1.0000
  H   H33       1.0  0.95658  0.48189  0.62097  1.0000
  H   H34       1.0  0.48189  0.95657  0.12097  1.0000
  H   H35       1.0  0.04342  0.51811  0.37903  1.0000
  H   H36       1.0  0.51811  0.04342  0.87903  1.0000
  H   H37       1.0  0.17797  0.41682  0.68199  1.0000
  H   H38       1.0  0.41683  0.17797  0.18199  1.0000
  H   H39       1.0  0.82203  0.58318  0.31801  1.0000
  H   H40       1.0  0.58318  0.82203  0.81801  1.0000
  C   C1        1.0  0.19223  0.57874  0.01491  1.0000
  C   C2        1.0  0.57875  0.19223  0.51491  1.0000
  C   C3        1.0  0.80778  0.42126  0.98509  1.0000
  C   C4        1.0  0.42126  0.80778  0.48509  1.0000
  C   C5        1.0  0.30066  0.75148  0.92668  1.0000
  C   C6        1.0  0.75148  0.30066  0.42668  1.0000
  C   C7        1.0  0.69933  0.24852  0.07332  1.0000
  C   C8        1.0  0.24852  0.69933  0.57332  1.0000
  C   C9        1.0  0.07418  0.65111  0.00637  1.0000
  C   C10       1.0  0.65112  0.07418  0.50637  1.0000
  C   C11       1.0  0.92582  0.34889  0.99363  1.0000
  C   C12       1.0  0.34889  0.92582  0.49363  1.0000
  C   C13       1.0  0.18669  0.83189  0.91671  1.0000
  C   C14       1.0  0.83189  0.18669  0.41671  1.0000
  C   C15       1.0  0.81331  0.16811  0.08329  1.0000
  C   C16       1.0  0.16811  0.81331  0.58329  1.0000
  C   C17       1.0  0.07116  0.77932  0.95659  1.0000
  C   C18       1.0  0.77932  0.07116  0.45659  1.0000
  C   C19       1.0  0.92884  0.22067  0.04341  1.0000
  C   C20       1.0  0.22068  0.92884  0.54341  1.0000
  C   C21       1.0  0.19103  0.97095  0.86736  1.0000
  C   C22       1.0  0.97095  0.19103  0.36736  1.0000
  C   C23       1.0  0.80896  0.02905  0.13264  1.0000
  C   C24       1.0  0.02905  0.80896  0.63264  1.0000
  C   C25       1.0  0.04588  0.13937  0.77904  1.0000
  C   C26       1.0  0.13937  0.04588  0.27904  1.0000
  C   C27       1.0  0.95412  0.86063  0.22096  1.0000
  C   C28       1.0  0.86063  0.95412  0.72096  1.0000
  C   C29       1.0  0.92340  0.17131  0.74037  1.0000
  C   C30       1.0  0.17131  0.92340  0.24037  1.0000
  C   C31       1.0  0.07660  0.82870  0.25963  1.0000
  C   C32       1.0  0.82869  0.07660  0.75963  1.0000
  C   C33       1.0  0.13709  0.22713  0.75615  1.0000
  C   C34       1.0  0.22713  0.13709  0.25615  1.0000
  C   C35       1.0  0.86291  0.77287  0.24385  1.0000
  C   C36       1.0  0.77287  0.86291  0.74385  1.0000
  C   C37       1.0  0.89360  0.29637  0.68593  1.0000
  C   C38       1.0  0.29637  0.89359  0.18593  1.0000
  C   C39       1.0  0.10640  0.70363  0.31407  1.0000
  C   C40       1.0  0.70363  0.10640  0.81407  1.0000
  C   C41       1.0  0.98319  0.38585  0.66484  1.0000
  C   C42       1.0  0.38585  0.98319  0.16484  1.0000
  C   C43       1.0  0.01681  0.61415  0.33516  1.0000
  C   C44       1.0  0.61415  0.01681  0.83516  1.0000
  C   C45       1.0  0.10524  0.35012  0.69857  1.0000
  C   C46       1.0  0.35012  0.10523  0.19857  1.0000
  C   C47       1.0  0.89477  0.64988  0.30143  1.0000
  C   C48       1.0  0.64988  0.89477  0.80143  1.0000
  C   C49       1.0  0.36332  0.41101  0.28652  1.0000
  C   C50       1.0  0.41100  0.36331  0.78652  1.0000
  C   C51       1.0  0.63668  0.58900  0.71349  1.0000
  C   C52       1.0  0.58899  0.63669  0.21348  1.0000
  S   S1        1.0  0.29988  0.39757  0.42581  1.0000
  S   S2        1.0  0.39757  0.29988  0.92580  1.0000
  S   S3        1.0  0.70011  0.60243  0.57420  1.0000
  S   S4        1.0  0.60243  0.70012  0.07419  1.0000
  N   N1        1.0  0.30353  0.62831  0.97480  1.0000
  N   N2        1.0  0.62831  0.30353  0.47480  1.0000
  N   N3        1.0  0.69647  0.37169  0.02520  1.0000
  N   N4        1.0  0.37169  0.69647  0.52521  1.0000
  N   N5        1.0  0.40853  0.41719  0.18533  1.0000
  N   N6        1.0  0.41719  0.40853  0.68533  1.0000
  N   N7        1.0  0.59147  0.58282  0.81467  1.0000
  N   N8        1.0  0.58281  0.59147  0.31466  1.0000
  O   O1        1.0  0.06495  0.02118  0.84355  1.0000
  O   O2        1.0  0.02118  0.06495  0.34355  1.0000
  O   O3        1.0  0.93505  0.97882  0.15645  1.0000
  O   O4        1.0  0.97882  0.93505  0.65645  1.0000
