data_image0
_chemical_formula_structural       Tb2Ag2H30C50N12O16
_chemical_formula_sum              "Tb2 Ag2 H30 C50 N12 O16"
_cell_length_a       9.70196
_cell_length_b       12.1567
_cell_length_c       12.3723
_cell_angle_alpha    60.8864
_cell_angle_beta     76.8829
_cell_angle_gamma    82.4362

_space_group_name_H-M_alt    "P 1"
_space_group_IT_number       1

loop_
  _space_group_symop_operation_xyz
  'x, y, z'

loop_
  _atom_site_type_symbol
  _atom_site_label
  _atom_site_symmetry_multiplicity
  _atom_site_fract_x
  _atom_site_fract_y
  _atom_site_fract_z
  _atom_site_occupancy
  Tb  Tb1       1.0  0.82733  0.01885  0.92869  1.0000
  Tb  Tb2       1.0  0.17267  0.98115  0.07131  1.0000
  Ag  Ag1       1.0  0.51507  0.34237  0.36919  1.0000
  Ag  Ag2       1.0  0.48493  0.65763  0.63081  1.0000
  H   H1        1.0  0.88751  0.46960  0.78917  1.0000
  H   H2        1.0  0.11249  0.53040  0.21083  1.0000
  H   H3        1.0  0.83441  0.67383  0.79717  1.0000
  H   H4        1.0  0.16559  0.32617  0.20283  1.0000
  H   H5        1.0  0.62153  0.26642  0.15315  1.0000
  H   H6        1.0  0.37847  0.73358  0.84685  1.0000
  H   H7        1.0  0.50177  0.66977  0.17668  1.0000
  H   H8        1.0  0.49823  0.33023  0.82332  1.0000
  H   H9        1.0  0.95078  0.79132  0.35512  1.0000
  H   H10       1.0  0.04922  0.20867  0.64488  1.0000
  H   H11       1.0  0.89029  0.61541  0.57407  1.0000
  H   H12       1.0  0.10971  0.38459  0.42593  1.0000
  H   H13       1.0  0.77245  0.59944  0.20576  1.0000
  H   H14       1.0  0.22755  0.40056  0.79424  1.0000
  H   H15       1.0  0.63828  0.24280  0.64516  1.0000
  H   H16       1.0  0.36172  0.75720  0.35484  1.0000
  H   H17       1.0  0.10301  0.84396  0.51230  1.0000
  H   H18       1.0  0.89699  0.15604  0.48770  1.0000
  H   H19       1.0  0.14438  0.82869  0.71261  1.0000
  H   H20       1.0  0.85562  0.17131  0.28739  1.0000
  H   H21       1.0  0.36171  0.17188  0.28623  1.0000
  H   H22       1.0  0.63829  0.82812  0.71377  1.0000
  H   H23       1.0  0.44333  0.15346  0.68270  1.0000
  H   H24       1.0  0.55667  0.84654  0.31730  1.0000
  H   H25       1.0  0.66490  0.76752  0.95731  1.0000
  H   H26       1.0  0.33510  0.23248  0.04269  1.0000
  H   H27       1.0  0.77131  0.36007  0.70538  1.0000
  H   H28       1.0  0.22869  0.63993  0.29462  1.0000
  H   H29       1.0  0.29239  0.95874  0.79326  1.0000
  H   H30       1.0  0.70761  0.04126  0.20674  1.0000
  C   C1        1.0  0.77855  0.24459  0.95259  1.0000
  C   C2        1.0  0.22146  0.75541  0.04741  1.0000
  C   C3        1.0  0.75448  0.35922  0.96805  1.0000
  C   C4        1.0  0.24552  0.64078  0.03194  1.0000
  C   C5        1.0  0.81556  0.47315  0.86903  1.0000
  C   C6        1.0  0.18444  0.52685  0.13097  1.0000
  C   C7        1.0  0.78730  0.58611  0.87295  1.0000
  C   C8        1.0  0.21270  0.41388  0.12705  1.0000
  C   C9        1.0  0.69451  0.58180  0.97947  1.0000
  C   C10       1.0  0.30549  0.41820  0.02053  1.0000
  C   C11       1.0  0.63786  0.46739  0.08198  1.0000
  C   C12       1.0  0.36214  0.53261  0.91802  1.0000
  C   C13       1.0  0.66755  0.35454  0.07692  1.0000
  C   C14       1.0  0.33245  0.64546  0.92308  1.0000
  C   C15       1.0  0.55638  0.61715  0.12878  1.0000
  C   C16       1.0  0.44362  0.38285  0.87122  1.0000
  C   C17       1.0  0.90198  0.80866  0.14093  1.0000
  C   C18       1.0  0.09802  0.19134  0.85907  1.0000
  C   C19       1.0  0.86366  0.70399  0.27015  1.0000
  C   C20       1.0  0.13634  0.29601  0.72985  1.0000
  C   C21       1.0  0.89594  0.70976  0.37322  1.0000
  C   C22       1.0  0.10406  0.29024  0.62678  1.0000
  C   C23       1.0  0.86212  0.61240  0.49520  1.0000
  C   C24       1.0  0.13788  0.38760  0.50480  1.0000
  C   C25       1.0  0.79046  0.51094  0.51205  1.0000
  C   C26       1.0  0.20954  0.48906  0.48795  1.0000
  C   C27       1.0  0.75176  0.50652  0.40985  1.0000
  C   C28       1.0  0.24824  0.49348  0.59015  1.0000
  C   C29       1.0  0.79267  0.60217  0.28722  1.0000
  C   C30       1.0  0.20733  0.39783  0.71278  1.0000
  C   C31       1.0  0.68057  0.33510  0.57831  1.0000
  C   C32       1.0  0.31943  0.66489  0.42169  1.0000
  C   C33       1.0  0.20133  0.00972  0.27599  1.0000
  C   C34       1.0  0.79868  0.99028  0.72401  1.0000
  C   C35       1.0  0.22909  0.00786  0.39008  1.0000
  C   C36       1.0  0.77091  0.99215  0.60991  1.0000
  C   C37       1.0  0.16843  0.91168  0.50975  1.0000
  C   C38       1.0  0.83157  0.08832  0.49025  1.0000
  C   C39       1.0  0.19129  0.90254  0.62056  1.0000
  C   C40       1.0  0.80871  0.09746  0.37944  1.0000
  C   C41       1.0  0.27666  0.99363  0.60829  1.0000
  C   C42       1.0  0.72334  0.00638  0.39170  1.0000
  C   C43       1.0  0.33760  0.09143  0.48914  1.0000
  C   C44       1.0  0.66240  0.90857  0.51086  1.0000
  C   C45       1.0  0.31465  0.09863  0.37860  1.0000
  C   C46       1.0  0.68535  0.90137  0.62140  1.0000
  C   C47       1.0  0.40049  0.11681  0.63320  1.0000
  C   C48       1.0  0.59950  0.88319  0.36680  1.0000
  C   C49       1.0  0.49300  0.05891  0.93633  1.0000
  C   C50       1.0  0.50700  0.94109  0.06368  1.0000
  N   N1        1.0  0.63907  0.67390  0.01231  1.0000
  N   N2        1.0  0.36093  0.32610  0.98769  1.0000
  N   N3        1.0  0.55335  0.49287  0.17485  1.0000
  N   N4        1.0  0.44665  0.50712  0.82515  1.0000
  N   N5        1.0  0.74359  0.40016  0.61714  1.0000
  N   N6        1.0  0.25641  0.59984  0.38286  1.0000
  N   N7        1.0  0.68035  0.39534  0.45562  1.0000
  N   N8        1.0  0.31965  0.60466  0.54438  1.0000
  N   N9        1.0  0.41472  0.16718  0.50878  1.0000
  N   N10       1.0  0.58528  0.83282  0.49122  1.0000
  N   N11       1.0  0.31999  0.01275  0.69622  1.0000
  N   N12       1.0  0.68001  0.98725  0.30378  1.0000
  O   O1        1.0  0.82507  0.25419  0.84308  1.0000
  O   O2        1.0  0.17493  0.74581  0.15692  1.0000
  O   O3        1.0  0.75136  0.13505  0.04679  1.0000
  O   O4        1.0  0.24864  0.86495  0.95321  1.0000
  O   O5        1.0  0.93518  0.91664  0.12559  1.0000
  O   O6        1.0  0.06482  0.08336  0.87441  1.0000
  O   O7        1.0  0.89461  0.79890  0.04484  1.0000
  O   O8        1.0  0.10540  0.20110  0.95516  1.0000
  O   O9        1.0  0.25529  0.09365  0.16507  1.0000
  O   O10       1.0  0.74471  0.90635  0.83493  1.0000
  O   O11       1.0  0.12494  0.92468  0.28817  1.0000
  O   O12       1.0  0.87506  0.07532  0.71183  1.0000
  O   O13       1.0  0.60587  0.11370  0.86535  1.0000
  O   O14       1.0  0.39413  0.88630  0.13465  1.0000
  O   O15       1.0  0.36955  0.09248  0.91282  1.0000
  O   O16       1.0  0.63045  0.90752  0.08718  1.0000
