data_image0
_chemical_formula_structural       Co4H20C24N16
_chemical_formula_sum              "Co4 H20 C24 N16"
_cell_length_a       8.96599
_cell_length_b       10.3127
_cell_length_c       12.4154
_cell_angle_alpha    80.9886
_cell_angle_beta     68.8314
_cell_angle_gamma    64.2228

_space_group_name_H-M_alt    "P 1"
_space_group_IT_number       1

loop_
  _space_group_symop_operation_xyz
  'x, y, z'

loop_
  _atom_site_type_symbol
  _atom_site_label
  _atom_site_symmetry_multiplicity
  _atom_site_fract_x
  _atom_site_fract_y
  _atom_site_fract_z
  _atom_site_occupancy
  Co  Co1       1.0  0.88310  0.09858  0.36926  1.0000
  Co  Co2       1.0  0.35104  0.90141  0.63085  1.0000
  Co  Co3       1.0  0.00209  0.59853  0.13071  1.0000
  Co  Co4       1.0  0.73160  0.40147  0.86921  1.0000
  H   H1        1.0  0.72973  0.11176  0.66095  1.0000
  H   H2        1.0  0.50228  0.88842  0.33916  1.0000
  H   H3        1.0  0.14112  0.61118  0.83887  1.0000
  H   H4        1.0  0.59103  0.38864  0.16095  1.0000
  H   H5        1.0  0.61306  0.99028  0.40173  1.0000
  H   H6        1.0  0.00493  0.00958  0.59849  1.0000
  H   H7        1.0  0.76433  0.49074  0.09812  1.0000
  H   H8        1.0  0.35336  0.50942  0.90153  1.0000
  H   H9        1.0  0.10965  0.76974  0.26795  1.0000
  H   H10       1.0  0.14733  0.23007  0.73234  1.0000
  H   H11       1.0  0.12728  0.27015  0.23237  1.0000
  H   H12       1.0  0.62995  0.73001  0.76791  1.0000
  H   H13       1.0  0.75317  0.89879  0.08323  1.0000
  H   H14       1.0  0.73511  0.10110  0.91690  1.0000
  H   H15       1.0  0.58589  0.39880  0.41669  1.0000
  H   H16       1.0  0.40252  0.60118  0.58299  1.0000
  H   H17       1.0  0.70817  0.13822  0.18720  1.0000
  H   H18       1.0  0.03363  0.86165  0.81280  1.0000
  H   H19       1.0  0.64449  0.63825  0.31256  1.0000
  H   H20       1.0  0.59662  0.36172  0.68708  1.0000
  C   C1        1.0  0.66825  0.07220  0.62063  1.0000
  C   C2        1.0  0.36090  0.92793  0.37953  1.0000
  C   C3        1.0  0.03909  0.57189  0.87924  1.0000
  C   C4        1.0  0.49006  0.42804  0.12055  1.0000
  C   C5        1.0  0.60749  0.00817  0.48686  1.0000
  C   C6        1.0  0.10232  0.99192  0.51331  1.0000
  C   C7        1.0  0.84410  0.50836  0.01300  1.0000
  C   C8        1.0  0.36547  0.49175  0.98672  1.0000
  C   C9        1.0  0.50327  0.98797  0.59657  1.0000
  C   C10       1.0  0.08761  0.01218  0.40358  1.0000
  C   C11       1.0  0.84968  0.48809  0.90326  1.0000
  C   C12       1.0  0.24093  0.51199  0.09642  1.0000
  C   C13       1.0  0.00658  0.83775  0.23231  1.0000
  C   C14       1.0  0.07666  0.16209  0.76793  1.0000
  C   C15       1.0  0.98844  0.33805  0.26784  1.0000
  C   C16       1.0  0.59486  0.66207  0.73221  1.0000
  C   C17       1.0  0.81893  0.90807  0.13790  1.0000
  C   C18       1.0  0.86485  0.09180  0.86229  1.0000
  C   C19       1.0  0.70629  0.40819  0.36211  1.0000
  C   C20       1.0  0.47745  0.59185  0.63775  1.0000
  C   C21       1.0  0.79744  0.02629  0.18934  1.0000
  C   C22       1.0  0.01305  0.97358  0.81077  1.0000
  C   C23       1.0  0.73604  0.52641  0.31058  1.0000
  C   C24       1.0  0.57402  0.47364  0.68922  1.0000
  N   N1        1.0  0.71454  0.06252  0.50303  1.0000
  N   N2        1.0  0.27993  0.93751  0.49715  1.0000
  N   N3        1.0  0.96758  0.56245  0.99684  1.0000
  N   N4        1.0  0.52684  0.43755  0.00296  1.0000
  N   N5        1.0  0.54142  0.02747  0.67913  1.0000
  N   N6        1.0  0.24784  0.97273  0.32104  1.0000
  N   N7        1.0  0.97065  0.52728  0.82072  1.0000
  N   N8        1.0  0.31846  0.47270  0.17900  1.0000
  N   N9        1.0  0.91631  0.98080  0.24897  1.0000
  N   N10       1.0  0.14608  0.01903  0.75121  1.0000
  N   N11       1.0  0.91461  0.48102  0.25104  1.0000
  N   N12       1.0  0.64744  0.51905  0.74887  1.0000
  N   N13       1.0  0.95150  0.78924  0.16557  1.0000
  N   N14       1.0  0.90629  0.21060  0.83468  1.0000
  N   N15       1.0  0.86675  0.28945  0.33457  1.0000
  N   N16       1.0  0.49131  0.71063  0.66546  1.0000
