data_image0
_chemical_formula_structural       Cu2H30C22N10O2
_chemical_formula_sum              "Cu2 H30 C22 N10 O2"
_cell_length_a       6.77001
_cell_length_b       10.2866
_cell_length_c       10.6165
_cell_angle_alpha    118.599
_cell_angle_beta     108.043
_cell_angle_gamma    91.0859

_space_group_name_H-M_alt    "P 1"
_space_group_IT_number       1

loop_
  _space_group_symop_operation_xyz
  'x, y, z'

loop_
  _atom_site_type_symbol
  _atom_site_label
  _atom_site_symmetry_multiplicity
  _atom_site_fract_x
  _atom_site_fract_y
  _atom_site_fract_z
  _atom_site_occupancy
  Cu  Cu1       1.0  0.43317  0.78036  0.06323  1.0000
  Cu  Cu2       1.0  0.86981  0.71724  0.93695  1.0000
  H   H1        1.0  0.27455  0.34412  0.61376  1.0000
  H   H2        1.0  0.16094  0.73024  0.38637  1.0000
  H   H3        1.0  0.21189  0.08940  0.57422  1.0000
  H   H4        1.0  0.13860  0.51474  0.42550  1.0000
  H   H5        1.0  0.30026  0.04968  0.79914  1.0000
  H   H6        1.0  0.00179  0.25017  0.20035  1.0000
  H   H7        1.0  0.45842  0.27466  0.06535  1.0000
  H   H8        1.0  0.89284  0.20923  0.93427  1.0000
  H   H9        1.0  0.62254  0.52282  0.23187  1.0000
  H   H10       1.0  0.89039  0.29104  0.76812  1.0000
  H   H11       1.0  0.76383  0.74093  0.41451  1.0000
  H   H12       1.0  0.84968  0.32649  0.58565  1.0000
  H   H13       1.0  0.85401  0.85801  0.35653  1.0000
  H   H14       1.0  0.99778  0.50162  0.64370  1.0000
  H   H15       1.0  0.70470  0.98669  0.56664  1.0000
  H   H16       1.0  0.63847  0.42003  0.43342  1.0000
  H   H17       1.0  0.45056  0.87707  0.43388  1.0000
  H   H18       1.0  0.51692  0.44301  0.56598  1.0000
  H   H19       1.0  0.52014  0.14047  0.47737  1.0000
  H   H20       1.0  0.54274  0.66299  0.52269  1.0000
  H   H21       1.0  0.72700  0.09212  0.40317  1.0000
  H   H22       1.0  0.82384  0.68905  0.59696  1.0000
  H   H23       1.0  0.38242  0.20927  0.28691  1.0000
  H   H24       1.0  0.59537  0.92229  0.71307  1.0000
  H   H25       1.0  0.29237  0.06777  0.08761  1.0000
  H   H26       1.0  0.70458  0.98023  0.91240  1.0000
  H   H27       1.0  0.57006  0.13548  0.19567  1.0000
  H   H28       1.0  0.87426  0.93987  0.80440  1.0000
  H   H29       1.0  0.27461  0.96025  0.23853  1.0000
  H   H30       1.0  0.53600  0.72167  0.76147  1.0000
  C   C1        1.0  0.39830  0.45987  0.86280  1.0000
  C   C2        1.0  0.03537  0.59712  0.13731  1.0000
  C   C3        1.0  0.31569  0.32910  0.71306  1.0000
  C   C4        1.0  0.10280  0.61595  0.28697  1.0000
  C   C5        1.0  0.28036  0.18549  0.69177  1.0000
  C   C6        1.0  0.08916  0.49345  0.30801  1.0000
  C   C7        1.0  0.32878  0.16329  0.81805  1.0000
  C   C8        1.0  0.01116  0.34498  0.18159  1.0000
  C   C9        1.0  0.41552  0.28832  0.96508  1.0000
  C   C10       1.0  0.95032  0.32313  0.03464  1.0000
  C   C11       1.0  0.45059  0.43625  0.99109  1.0000
  C   C12       1.0  0.95926  0.44520  0.00888  1.0000
  C   C13       1.0  0.55269  0.55757  0.14702  1.0000
  C   C14       1.0  0.90541  0.41063  0.85299  1.0000
  C   C15       1.0  0.71060  0.80510  0.35625  1.0000
  C   C16       1.0  0.85462  0.44894  0.64391  1.0000
  C   C17       1.0  0.60313  0.92802  0.44401  1.0000
  C   C18       1.0  0.65940  0.48397  0.55601  1.0000
  C   C19       1.0  0.57407  0.04611  0.39672  1.0000
  C   C20       1.0  0.67738  0.64936  0.60333  1.0000
  C   C21       1.0  0.41601  0.10779  0.20017  1.0000
  C   C22       1.0  0.71571  0.90762  0.79986  1.0000
  N   N1        1.0  0.19239  0.81556  0.92023  1.0000
  N   N2        1.0  0.77217  0.89557  0.07990  1.0000
  N   N3        1.0  0.20240  0.79031  0.79986  1.0000
  N   N4        1.0  0.90265  0.99070  0.20028  1.0000
  N   N5        1.0  0.20819  0.76634  0.68123  1.0000
  N   N6        1.0  0.02715  0.08537  0.31888  1.0000
  N   N7        1.0  0.57646  0.70121  0.19630  1.0000
  N   N8        1.0  0.88018  0.50506  0.80381  1.0000
  N   N9        1.0  0.42153  0.98745  0.23863  1.0000
  N   N10       1.0  0.68284  0.74881  0.76141  1.0000
  O   O1        1.0  0.42691  0.59380  0.87801  1.0000
  O   O2        1.0  0.04855  0.71592  0.12224  1.0000
