data_image0
_chemical_formula_structural       Zn2H84C48N8O8
_chemical_formula_sum              "Zn2 H84 C48 N8 O8"
_cell_length_a       9.53236
_cell_length_b       9.51932
_cell_length_c       15.0807
_cell_angle_alpha    81.3993
_cell_angle_beta     84.6574
_cell_angle_gamma    83.5483

_space_group_name_H-M_alt    "P 1"
_space_group_IT_number       1

loop_
  _space_group_symop_operation_xyz
  'x, y, z'

loop_
  _atom_site_type_symbol
  _atom_site_label
  _atom_site_symmetry_multiplicity
  _atom_site_fract_x
  _atom_site_fract_y
  _atom_site_fract_z
  _atom_site_occupancy
  Zn  Zn1       1.0  0.25723  0.49407  0.75242  1.0000
  Zn  Zn2       1.0  0.74276  0.50594  0.24758  1.0000
  H   H1        1.0  0.10780  0.57678  0.88238  1.0000
  H   H2        1.0  0.89220  0.42323  0.11763  1.0000
  H   H3        1.0  0.16433  0.75336  0.69132  1.0000
  H   H4        1.0  0.83567  0.24665  0.30868  1.0000
  H   H5        1.0  0.39920  0.41757  0.61896  1.0000
  H   H6        1.0  0.60080  0.58243  0.38104  1.0000
  H   H7        1.0  0.33874  0.23190  0.81748  1.0000
  H   H8        1.0  0.66126  0.76811  0.18252  1.0000
  H   H9        1.0  0.40116  0.61752  0.90828  1.0000
  H   H10       1.0  0.59884  0.38247  0.09172  1.0000
  H   H11       1.0  0.14686  0.81673  0.84136  1.0000
  H   H12       1.0  0.85315  0.18328  0.15864  1.0000
  H   H13       1.0  0.29859  0.87617  0.87628  1.0000
  H   H14       1.0  0.70142  0.12383  0.12372  1.0000
  H   H15       1.0  0.34342  0.90409  0.72087  1.0000
  H   H16       1.0  0.65658  0.09592  0.27913  1.0000
  H   H17       1.0  0.44689  0.74165  0.75659  1.0000
  H   H18       1.0  0.55310  0.25835  0.24341  1.0000
  H   H19       1.0  0.24966  0.58730  0.05846  1.0000
  H   H20       1.0  0.75035  0.41270  0.94154  1.0000
  H   H21       1.0  0.12690  0.72687  0.01174  1.0000
  H   H22       1.0  0.87310  0.27314  0.98827  1.0000
  H   H23       1.0  0.30122  0.76156  0.02827  1.0000
  H   H24       1.0  0.69878  0.23844  0.97173  1.0000
  H   H25       1.0  0.45056  0.67096  0.61455  1.0000
  H   H26       1.0  0.54944  0.32904  0.38545  1.0000
  H   H27       1.0  0.37500  0.93175  0.57377  1.0000
  H   H28       1.0  0.62499  0.06825  0.42623  1.0000
  H   H29       1.0  0.39589  0.83871  0.47978  1.0000
  H   H30       1.0  0.60411  0.16129  0.52022  1.0000
  H   H31       1.0  0.10950  0.92088  0.58040  1.0000
  H   H32       1.0  0.89049  0.07912  0.41960  1.0000
  H   H33       1.0  0.17432  0.00379  0.47466  1.0000
  H   H34       1.0  0.82567  0.99621  0.52533  1.0000
  H   H35       1.0  0.18283  0.77866  0.41011  1.0000
  H   H36       1.0  0.81716  0.22133  0.58989  1.0000
  H   H37       1.0  0.00944  0.82308  0.45812  1.0000
  H   H38       1.0  0.99056  0.17692  0.54188  1.0000
  H   H39       1.0  0.09053  0.56460  0.49598  1.0000
  H   H40       1.0  0.90946  0.43540  0.50402  1.0000
  H   H41       1.0  0.05509  0.64463  0.59454  1.0000
  H   H42       1.0  0.94491  0.35537  0.40546  1.0000
  H   H43       1.0  0.34525  0.58803  0.49407  1.0000
  H   H44       1.0  0.65475  0.41197  0.50593  1.0000
  H   H45       1.0  0.10580  0.37287  0.59544  1.0000
  H   H46       1.0  0.89420  0.62713  0.40456  1.0000
  H   H47       1.0  0.35994  0.17519  0.66421  1.0000
  H   H48       1.0  0.64006  0.82481  0.33580  1.0000
  H   H49       1.0  0.20923  0.11495  0.62857  1.0000
  H   H50       1.0  0.79078  0.88505  0.37143  1.0000
  H   H51       1.0  0.05915  0.25214  0.74704  1.0000
  H   H52       1.0  0.94085  0.74785  0.25296  1.0000
  H   H53       1.0  0.15937  0.08787  0.78322  1.0000
  H   H54       1.0  0.84064  0.91213  0.21678  1.0000
  H   H55       1.0  0.25907  0.40321  0.44590  1.0000
  H   H56       1.0  0.74092  0.59678  0.55410  1.0000
  H   H57       1.0  0.20933  0.22806  0.47588  1.0000
  H   H58       1.0  0.79066  0.77193  0.52412  1.0000
  H   H59       1.0  0.38229  0.26489  0.49368  1.0000
  H   H60       1.0  0.61770  0.73510  0.50632  1.0000
  H   H61       1.0  0.05148  0.32604  0.88667  1.0000
  H   H62       1.0  0.94851  0.67395  0.11333  1.0000
  H   H63       1.0  0.11828  0.06404  0.93153  1.0000
  H   H64       1.0  0.88172  0.93596  0.06846  1.0000
  H   H65       1.0  0.09381  0.16052  0.02408  1.0000
  H   H66       1.0  0.90620  0.83947  0.97592  1.0000
  H   H67       1.0  0.31018  0.98960  0.03731  1.0000
  H   H68       1.0  0.68984  0.01040  0.96268  1.0000
  H   H69       1.0  0.38307  0.06520  0.93176  1.0000
  H   H70       1.0  0.61694  0.93480  0.06823  1.0000
  H   H71       1.0  0.48136  0.16524  0.05324  1.0000
  H   H72       1.0  0.51864  0.83476  0.94676  1.0000
  H   H73       1.0  0.30751  0.21766  0.09760  1.0000
  H   H74       1.0  0.69249  0.78233  0.90240  1.0000
  H   H75       1.0  0.44538  0.33930  0.91302  1.0000
  H   H76       1.0  0.55462  0.66071  0.08698  1.0000
  H   H77       1.0  0.41102  0.42470  0.00935  1.0000
  H   H78       1.0  0.58897  0.57530  0.99065  1.0000
  H   H79       1.0  0.15408  0.40728  0.00964  1.0000
  H   H80       1.0  0.84592  0.59272  0.99036  1.0000
  H   H81       1.0  0.82267  0.38946  0.68986  1.0000
  H   H82       1.0  0.17735  0.61054  0.31015  1.0000
  H   H83       1.0  0.68564  0.60775  0.81091  1.0000
  H   H84       1.0  0.31436  0.39228  0.18908  1.0000
  C   C1        1.0  0.28703  0.65236  0.91288  1.0000
  C   C2        1.0  0.71297  0.34763  0.08712  1.0000
  C   C3        1.0  0.26192  0.78992  0.84612  1.0000
  C   C4        1.0  0.73809  0.21008  0.15388  1.0000
  C   C5        1.0  0.33765  0.79208  0.75209  1.0000
  C   C6        1.0  0.66235  0.20792  0.24791  1.0000
  C   C7        1.0  0.23865  0.68306  0.00833  1.0000
  C   C8        1.0  0.76135  0.31694  0.99167  1.0000
  C   C9        1.0  0.33889  0.70713  0.60357  1.0000
  C   C10       1.0  0.66111  0.29287  0.39643  1.0000
  C   C11       1.0  0.32973  0.85161  0.54249  1.0000
  C   C12       1.0  0.67026  0.14839  0.45751  1.0000
  C   C13       1.0  0.17763  0.90104  0.51916  1.0000
  C   C14       1.0  0.82237  0.09896  0.48084  1.0000
  C   C15       1.0  0.11928  0.78878  0.47412  1.0000
  C   C16       1.0  0.88071  0.21121  0.52588  1.0000
  C   C17       1.0  0.12699  0.64290  0.53305  1.0000
  C   C18       1.0  0.87300  0.35710  0.46695  1.0000
  C   C19       1.0  0.27900  0.59426  0.55767  1.0000
  C   C20       1.0  0.72099  0.40574  0.44233  1.0000
  C   C21       1.0  0.22003  0.33864  0.59143  1.0000
  C   C22       1.0  0.77997  0.66136  0.40857  1.0000
  C   C23       1.0  0.24495  0.20164  0.65875  1.0000
  C   C24       1.0  0.75505  0.79836  0.34125  1.0000
  C   C25       1.0  0.16751  0.19975  0.75239  1.0000
  C   C26       1.0  0.83250  0.80024  0.24761  1.0000
  C   C27       1.0  0.27022  0.30760  0.49621  1.0000
  C   C28       1.0  0.72977  0.69239  0.50379  1.0000
  C   C29       1.0  0.16142  0.28675  0.90061  1.0000
  C   C30       1.0  0.83859  0.71325  0.09939  1.0000
  C   C31       1.0  0.16340  0.14378  0.96325  1.0000
  C   C32       1.0  0.83661  0.85621  0.03675  1.0000
  C   C33       1.0  0.31260  0.09032  0.99099  1.0000
  C   C34       1.0  0.68741  0.90968  0.00900  1.0000
  C   C35       1.0  0.37308  0.20255  0.03497  1.0000
  C   C36       1.0  0.62692  0.79745  0.96502  1.0000
  C   C37       1.0  0.37216  0.34612  0.97361  1.0000
  C   C38       1.0  0.62783  0.65388  0.02639  1.0000
  C   C39       1.0  0.22202  0.39866  0.94692  1.0000
  C   C40       1.0  0.77798  0.60134  0.05308  1.0000
  C   C41       1.0  0.58953  0.42119  0.71533  1.0000
  C   C42       1.0  0.41048  0.57881  0.28467  1.0000
  C   C43       1.0  0.73777  0.44956  0.72635  1.0000
  C   C44       1.0  0.26224  0.55044  0.27366  1.0000
  C   C45       1.0  0.91902  0.57434  0.78567  1.0000
  C   C46       1.0  0.08097  0.42568  0.21433  1.0000
  C   C47       1.0  0.77032  0.54732  0.77447  1.0000
  C   C48       1.0  0.22969  0.45269  0.22553  1.0000
  N   N1        1.0  0.21377  0.53726  0.88668  1.0000
  N   N2        1.0  0.78622  0.46274  0.11332  1.0000
  N   N3        1.0  0.26797  0.71246  0.69493  1.0000
  N   N4        1.0  0.73202  0.28754  0.30507  1.0000
  N   N5        1.0  0.29228  0.45482  0.61710  1.0000
  N   N6        1.0  0.70772  0.54518  0.38290  1.0000
  N   N7        1.0  0.23706  0.27734  0.81083  1.0000
  N   N8        1.0  0.76294  0.72266  0.18917  1.0000
  O   O1        1.0  0.48963  0.47563  0.76652  1.0000
  O   O2        1.0  0.51036  0.52437  0.23347  1.0000
  O   O3        1.0  0.57367  0.34724  0.65399  1.0000
  O   O4        1.0  0.42635  0.65276  0.34601  1.0000
  O   O5        1.0  0.01884  0.51344  0.73775  1.0000
  O   O6        1.0  0.98116  0.48656  0.26225  1.0000
  O   O7        1.0  0.93518  0.65333  0.84433  1.0000
  O   O8        1.0  0.06480  0.34668  0.15567  1.0000
