data_image0
_chemical_formula_structural       Cu4H32C24N8O28
_chemical_formula_sum              "Cu4 H32 C24 N8 O28"
_cell_length_a       5.88554
_cell_length_b       10.5055
_cell_length_c       16.3361
_cell_angle_alpha    96.0601
_cell_angle_beta     90.007
_cell_angle_gamma    90.002

_space_group_name_H-M_alt    "P 1"
_space_group_IT_number       1

loop_
  _space_group_symop_operation_xyz
  'x, y, z'

loop_
  _atom_site_type_symbol
  _atom_site_label
  _atom_site_symmetry_multiplicity
  _atom_site_fract_x
  _atom_site_fract_y
  _atom_site_fract_z
  _atom_site_occupancy
  Cu  Cu1       1.0  0.13016  0.89747  0.36129  1.0000
  Cu  Cu2       1.0  0.63004  0.10251  0.13871  1.0000
  Cu  Cu3       1.0  0.86997  0.10245  0.63871  1.0000
  Cu  Cu4       1.0  0.37013  0.89756  0.86131  1.0000
  H   H1        1.0  0.41288  0.43376  0.39583  1.0000
  H   H2        1.0  0.91291  0.56628  0.10417  1.0000
  H   H3        1.0  0.58708  0.56623  0.60420  1.0000
  H   H4        1.0  0.08705  0.43373  0.89579  1.0000
  H   H5        1.0  0.34595  0.31513  0.46226  1.0000
  H   H6        1.0  0.84584  0.68488  0.03774  1.0000
  H   H7        1.0  0.65404  0.68485  0.53778  1.0000
  H   H8        1.0  0.15414  0.31513  0.96222  1.0000
  H   H9        1.0  0.74602  0.30792  0.34063  1.0000
  H   H10       1.0  0.24596  0.69225  0.15938  1.0000
  H   H11       1.0  0.25398  0.69209  0.65941  1.0000
  H   H12       1.0  0.75400  0.30776  0.84058  1.0000
  H   H13       1.0  0.66673  0.17673  0.39685  1.0000
  H   H14       1.0  0.16661  0.82334  0.10310  1.0000
  H   H15       1.0  0.33327  0.82325  0.60318  1.0000
  H   H16       1.0  0.83336  0.17666  0.89686  1.0000
  H   H17       1.0  0.25940  0.30295  0.28271  1.0000
  H   H18       1.0  0.75944  0.69705  0.21730  1.0000
  H   H19       1.0  0.74045  0.69705  0.71735  1.0000
  H   H20       1.0  0.24039  0.30292  0.78264  1.0000
  H   H21       1.0  0.87201  0.42489  0.46245  1.0000
  H   H22       1.0  0.37188  0.57516  0.03757  1.0000
  H   H23       1.0  0.12793  0.57512  0.53760  1.0000
  H   H24       1.0  0.62802  0.42483  0.96239  1.0000
  H   H25       1.0  0.72829  0.93137  0.48100  1.0000
  H   H26       1.0  0.22815  0.06866  0.01900  1.0000
  H   H27       1.0  0.27176  0.06858  0.51899  1.0000
  H   H28       1.0  0.77193  0.93145  0.98100  1.0000
  H   H29       1.0  0.65222  0.89703  0.38851  1.0000
  H   H30       1.0  0.15206  0.10302  0.11148  1.0000
  H   H31       1.0  0.34786  0.10294  0.61148  1.0000
  H   H32       1.0  0.84801  0.89706  0.88851  1.0000
  C   C1        1.0  0.07074  0.08992  0.26328  1.0000
  C   C2        1.0  0.57072  0.91007  0.23673  1.0000
  C   C3        1.0  0.92921  0.91005  0.73676  1.0000
  C   C4        1.0  0.42924  0.08995  0.76323  1.0000
  C   C5        1.0  0.20371  0.14702  0.33890  1.0000
  C   C6        1.0  0.70364  0.85297  0.16110  1.0000
  C   C7        1.0  0.79634  0.85295  0.66111  1.0000
  C   C8        1.0  0.29639  0.14706  0.83888  1.0000
  C   C9        1.0  0.41828  0.33086  0.40212  1.0000
  C   C10       1.0  0.91825  0.66917  0.09788  1.0000
  C   C11       1.0  0.58168  0.66912  0.59791  1.0000
  C   C12       1.0  0.08171  0.33084  0.90208  1.0000
  C   C13       1.0  0.66496  0.28128  0.39684  1.0000
  C   C14       1.0  0.16489  0.71881  0.10315  1.0000
  C   C15       1.0  0.33502  0.71872  0.60319  1.0000
  C   C16       1.0  0.83511  0.28119  0.89680  1.0000
  C   C17       1.0  0.82075  0.28018  0.53493  1.0000
  C   C18       1.0  0.32072  0.71986  0.96509  1.0000
  C   C19       1.0  0.17927  0.71978  0.46510  1.0000
  C   C20       1.0  0.67932  0.28016  0.03488  1.0000
  C   C21       1.0  0.96172  0.34707  0.60655  1.0000
  C   C22       1.0  0.46162  0.65291  0.89348  1.0000
  C   C23       1.0  0.03830  0.65288  0.39349  1.0000
  C   C24       1.0  0.53839  0.34714  0.10650  1.0000
  N   N1        1.0  0.27721  0.26595  0.33782  1.0000
  N   N2        1.0  0.77717  0.73406  0.16218  1.0000
  N   N3        1.0  0.72277  0.73403  0.66222  1.0000
  N   N4        1.0  0.22278  0.26596  0.83778  1.0000
  N   N5        1.0  0.79497  0.33774  0.46728  1.0000
  N   N6        1.0  0.29487  0.66231  0.03274  1.0000
  N   N7        1.0  0.20499  0.66225  0.53277  1.0000
  N   N8        1.0  0.70509  0.33769  0.96722  1.0000
  O   O1        1.0  0.01479  0.16013  0.20956  1.0000
  O   O2        1.0  0.51481  0.83986  0.29045  1.0000
  O   O3        1.0  0.98507  0.83984  0.79049  1.0000
  O   O4        1.0  0.48505  0.16015  0.70950  1.0000
  O   O5        1.0  0.02589  0.97040  0.26316  1.0000
  O   O6        1.0  0.52587  0.02961  0.23683  1.0000
  O   O7        1.0  0.97401  0.02959  0.73687  1.0000
  O   O8        1.0  0.47404  0.97040  0.76313  1.0000
  O   O9        1.0  0.23424  0.07934  0.39767  1.0000
  O   O10       1.0  0.73409  0.92065  0.10233  1.0000
  O   O11       1.0  0.76592  0.92059  0.60233  1.0000
  O   O12       1.0  0.26608  0.07940  0.89767  1.0000
  O   O13       1.0  0.73312  0.17239  0.54378  1.0000
  O   O14       1.0  0.23322  0.82767  0.95624  1.0000
  O   O15       1.0  0.26698  0.82754  0.45624  1.0000
  O   O16       1.0  0.76695  0.17238  0.04376  1.0000
  O   O17       1.0  0.97583  0.28241  0.66873  1.0000
  O   O18       1.0  0.47586  0.71757  0.83130  1.0000
  O   O19       1.0  0.02420  0.71751  0.33130  1.0000
  O   O20       1.0  0.52425  0.28248  0.16869  1.0000
  O   O21       1.0  0.04565  0.45476  0.60094  1.0000
  O   O22       1.0  0.54538  0.54521  0.89910  1.0000
  O   O23       1.0  0.95432  0.54521  0.39912  1.0000
  O   O24       1.0  0.45453  0.45480  0.10083  1.0000
  O   O25       1.0  0.77351  0.93653  0.42394  1.0000
  O   O26       1.0  0.27335  0.06351  0.07607  1.0000
  O   O27       1.0  0.22653  0.06346  0.57605  1.0000
  O   O28       1.0  0.72672  0.93657  0.92393  1.0000
