data_image0
_chemical_formula_structural       Cd2H16C18S2I2N2O12
_chemical_formula_sum              "Cd2 H16 C18 S2 I2 N2 O12"
_cell_length_a       6.79804
_cell_length_b       10.2117
_cell_length_c       9.97278
_cell_angle_alpha    73.5043
_cell_angle_beta     77.2774
_cell_angle_gamma    85.482

_space_group_name_H-M_alt    "P 1"
_space_group_IT_number       1

loop_
  _space_group_symop_operation_xyz
  'x, y, z'

loop_
  _atom_site_type_symbol
  _atom_site_label
  _atom_site_symmetry_multiplicity
  _atom_site_fract_x
  _atom_site_fract_y
  _atom_site_fract_z
  _atom_site_occupancy
  Cd  Cd1       1.0  0.82006  0.16484  0.65129  1.0000
  Cd  Cd2       1.0  0.17994  0.83515  0.34871  1.0000
  H   H1        1.0  0.97310  0.41774  0.62643  1.0000
  H   H2        1.0  0.02690  0.58226  0.37356  1.0000
  H   H3        1.0  0.29759  0.68529  0.09355  1.0000
  H   H4        1.0  0.70239  0.31471  0.90644  1.0000
  H   H5        1.0  0.77349  0.46022  0.56606  1.0000
  H   H6        1.0  0.22651  0.53978  0.43393  1.0000
  H   H7        1.0  0.36893  0.74741  0.82640  1.0000
  H   H8        1.0  0.63107  0.25260  0.17359  1.0000
  H   H9        1.0  0.78091  0.21891  0.37673  1.0000
  H   H10       1.0  0.21910  0.78109  0.62327  1.0000
  H   H11       1.0  0.35101  0.99207  0.68928  1.0000
  H   H12       1.0  0.64900  0.00795  0.31071  1.0000
  H   H13       1.0  0.98157  0.12676  0.36506  1.0000
  H   H14       1.0  0.01844  0.87323  0.63494  1.0000
  H   H15       1.0  0.23073  0.40871  0.84354  1.0000
  H   H16       1.0  0.76928  0.59130  0.15648  1.0000
  C   C1        1.0  0.29199  0.79137  0.03076  1.0000
  C   C2        1.0  0.70800  0.20863  0.96924  1.0000
  C   C3        1.0  0.32999  0.82742  0.88081  1.0000
  C   C4        1.0  0.67001  0.17259  0.11918  1.0000
  C   C5        1.0  0.32311  0.96313  0.80552  1.0000
  C   C6        1.0  0.67689  0.03687  0.19448  1.0000
  C   C7        1.0  0.26842  0.20811  0.81424  1.0000
  C   C8        1.0  0.73157  0.79189  0.18576  1.0000
  C   C9        1.0  0.23428  0.29974  0.89659  1.0000
  C   C10       1.0  0.76573  0.70027  0.10342  1.0000
  C   C11       1.0  0.20404  0.25437  0.04589  1.0000
  C   C12       1.0  0.79597  0.74562  0.95412  1.0000
  C   C13       1.0  0.20011  0.11455  0.12081  1.0000
  C   C14       1.0  0.79990  0.88545  0.87919  1.0000
  C   C15       1.0  0.27784  0.06476  0.88028  1.0000
  C   C16       1.0  0.72216  0.93524  0.11972  1.0000
  C   C17       1.0  0.24194  0.01945  0.03287  1.0000
  C   C18       1.0  0.75806  0.98055  0.96713  1.0000
  S   S1        1.0  0.30276  0.27270  0.62643  1.0000
  S   S2        1.0  0.69724  0.72730  0.37357  1.0000
  I   I1        1.0  0.17698  0.39766  0.16452  1.0000
  I   I2        1.0  0.82301  0.60234  0.83549  1.0000
  N   N1        1.0  0.24917  0.88434  0.10332  1.0000
  N   N2        1.0  0.75082  0.11566  0.89668  1.0000
  O   O1        1.0  0.17474  0.19211  0.57884  1.0000
  O   O2        1.0  0.82526  0.80790  0.42117  1.0000
  O   O3        1.0  0.82696  0.39810  0.64658  1.0000
  O   O4        1.0  0.17304  0.60190  0.35342  1.0000
  O   O5        1.0  0.51719  0.25643  0.56359  1.0000
  O   O6        1.0  0.48281  0.74356  0.43642  1.0000
  O   O7        1.0  0.84898  0.14013  0.42926  1.0000
  O   O8        1.0  0.15102  0.85986  0.57074  1.0000
  O   O9        1.0  0.23758  0.41824  0.60030  1.0000
  O   O10       1.0  0.76243  0.58176  0.39970  1.0000
  O   O11       1.0  0.16705  0.06968  0.25938  1.0000
  O   O12       1.0  0.83297  0.93031  0.74062  1.0000
