data_image0
_chemical_formula_structural       Cu4H36C20N2O12
_chemical_formula_sum              "Cu4 H36 C20 N2 O12"
_cell_length_a       7.51231
_cell_length_b       10.2183
_cell_length_c       11.1305
_cell_angle_alpha    62.345
_cell_angle_beta     73.1797
_cell_angle_gamma    68.8106

_space_group_name_H-M_alt    "P 1"
_space_group_IT_number       1

loop_
  _space_group_symop_operation_xyz
  'x, y, z'

loop_
  _atom_site_type_symbol
  _atom_site_label
  _atom_site_symmetry_multiplicity
  _atom_site_fract_x
  _atom_site_fract_y
  _atom_site_fract_z
  _atom_site_occupancy
  Cu  Cu1       1.0  0.09682  0.51358  0.79673  1.0000
  Cu  Cu2       1.0  0.90317  0.48642  0.20328  1.0000
  Cu  Cu3       1.0  0.24762  0.55726  0.97723  1.0000
  Cu  Cu4       1.0  0.75234  0.44274  0.02277  1.0000
  H   H1        1.0  0.67718  0.13423  0.94210  1.0000
  H   H2        1.0  0.32279  0.86575  0.05790  1.0000
  H   H3        1.0  0.79879  0.26972  0.82017  1.0000
  H   H4        1.0  0.20123  0.73025  0.17985  1.0000
  H   H5        1.0  0.81744  0.07273  0.73504  1.0000
  H   H6        1.0  0.18255  0.92727  0.26498  1.0000
  H   H7        1.0  0.56154  0.12480  0.75353  1.0000
  H   H8        1.0  0.43847  0.87518  0.24648  1.0000
  H   H9        1.0  0.69155  0.25688  0.62805  1.0000
  H   H10       1.0  0.30845  0.74309  0.37195  1.0000
  H   H11       1.0  0.38790  0.91109  0.52227  1.0000
  H   H12       1.0  0.61209  0.08893  0.47769  1.0000
  H   H13       1.0  0.13823  0.99003  0.52561  1.0000
  H   H14       1.0  0.86176  0.00999  0.47438  1.0000
  H   H15       1.0  0.28489  0.15804  0.55214  1.0000
  H   H16       1.0  0.71514  0.84197  0.44785  1.0000
  H   H17       1.0  0.38017  0.00342  0.70025  1.0000
  H   H18       1.0  0.61988  0.99657  0.29973  1.0000
  H   H19       1.0  0.12767  0.08368  0.70395  1.0000
  H   H20       1.0  0.87237  0.91630  0.29605  1.0000
  H   H21       1.0  0.33075  0.43900  0.53475  1.0000
  H   H22       1.0  0.66926  0.56100  0.46524  1.0000
  H   H23       1.0  0.74782  0.55088  0.68002  1.0000
  H   H24       1.0  0.25218  0.44912  0.31997  1.0000
  H   H25       1.0  0.57175  0.77597  0.83304  1.0000
  H   H26       1.0  0.42826  0.22404  0.16696  1.0000
  H   H27       1.0  0.78309  0.82918  0.81805  1.0000
  H   H28       1.0  0.21693  0.17081  0.18198  1.0000
  H   H29       1.0  0.74363  0.80342  0.68069  1.0000
  H   H30       1.0  0.25639  0.19658  0.31932  1.0000
  H   H31       1.0  0.98706  0.11649  0.05079  1.0000
  H   H32       1.0  0.01293  0.88349  0.94922  1.0000
  H   H33       1.0  0.11000  0.15912  0.87903  1.0000
  H   H34       1.0  0.89000  0.84090  0.12098  1.0000
  H   H35       1.0  0.22264  0.14465  0.00751  1.0000
  H   H36       1.0  0.77733  0.85539  0.99250  1.0000
  C   C1        1.0  0.49321  0.35288  0.84791  1.0000
  C   C2        1.0  0.50677  0.64712  0.15209  1.0000
  C   C3        1.0  0.67460  0.22688  0.83826  1.0000
  C   C4        1.0  0.32541  0.77310  0.16173  1.0000
  C   C5        1.0  0.68681  0.16733  0.73273  1.0000
  C   C6        1.0  0.31319  0.83266  0.26727  1.0000
  C   C7        1.0  0.22393  0.78757  0.70176  1.0000
  C   C8        1.0  0.77607  0.21245  0.29822  1.0000
  C   C9        1.0  0.25327  0.93950  0.58917  1.0000
  C   C10       1.0  0.74674  0.06052  0.41081  1.0000
  C   C11       1.0  0.26262  0.05204  0.63940  1.0000
  C   C12       1.0  0.73741  0.94795  0.36059  1.0000
  C   C13       1.0  0.18290  0.46682  0.51795  1.0000
  C   C14       1.0  0.81711  0.53319  0.48205  1.0000
  C   C15       1.0  0.85921  0.52802  0.59845  1.0000
  C   C16       1.0  0.14080  0.47199  0.40154  1.0000
  C   C17       1.0  0.72692  0.76016  0.79344  1.0000
  C   C18       1.0  0.27309  0.23984  0.20657  1.0000
  C   C19       1.0  0.08347  0.18408  0.97028  1.0000
  C   C20       1.0  0.91650  0.81593  0.02974  1.0000
  N   N1        1.0  0.04205  0.49451  0.61598  1.0000
  N   N2        1.0  0.95795  0.50550  0.38402  1.0000
  O   O1        1.0  0.36213  0.38345  0.78067  1.0000
  O   O2        1.0  0.63786  0.61656  0.21933  1.0000
  O   O3        1.0  0.48466  0.41710  0.92521  1.0000
  O   O4        1.0  0.51533  0.58290  0.07481  1.0000
  O   O5        1.0  0.27236  0.74664  0.81741  1.0000
  O   O6        1.0  0.72760  0.25336  0.18258  1.0000
  O   O7        1.0  0.15553  0.71236  0.67010  1.0000
  O   O8        1.0  0.84447  0.28765  0.32987  1.0000
  O   O9        1.0  0.82391  0.60286  0.84927  1.0000
  O   O10       1.0  0.17608  0.39714  0.15074  1.0000
  O   O11       1.0  0.99587  0.34094  0.93998  1.0000
  O   O12       1.0  0.00409  0.65906  0.06002  1.0000
