data_image0
_chemical_formula_structural       Cd4H58C50N6O22
_chemical_formula_sum              "Cd4 H58 C50 N6 O22"
_cell_length_a       9.9634
_cell_length_b       10.3398
_cell_length_c       15.2528
_cell_angle_alpha    80.9629
_cell_angle_beta     90.3663
_cell_angle_gamma    83.6726

_space_group_name_H-M_alt    "P 1"
_space_group_IT_number       1

loop_
  _space_group_symop_operation_xyz
  'x, y, z'

loop_
  _atom_site_type_symbol
  _atom_site_label
  _atom_site_symmetry_multiplicity
  _atom_site_fract_x
  _atom_site_fract_y
  _atom_site_fract_z
  _atom_site_occupancy
  Cd  Cd1       1.0  0.75699  0.41753  0.38950  1.0000
  Cd  Cd2       1.0  0.24301  0.58247  0.61050  1.0000
  Cd  Cd3       1.0  0.77590  0.21485  0.22521  1.0000
  Cd  Cd4       1.0  0.22410  0.78515  0.77479  1.0000
  H   H1        1.0  0.26621  0.39706  0.37600  1.0000
  H   H2        1.0  0.73380  0.60294  0.62400  1.0000
  H   H3        1.0  0.07393  0.09648  0.27366  1.0000
  H   H4        1.0  0.92607  0.90352  0.72634  1.0000
  H   H5        1.0  0.29895  0.98080  0.24819  1.0000
  H   H6        1.0  0.70105  0.01920  0.75181  1.0000
  H   H7        1.0  0.50851  0.07397  0.28663  1.0000
  H   H8        1.0  0.49149  0.92603  0.71337  1.0000
  H   H9        1.0  0.00279  0.52477  0.05781  1.0000
  H   H10       1.0  0.99721  0.47524  0.94219  1.0000
  H   H11       1.0  0.10476  0.72981  0.99366  1.0000
  H   H12       1.0  0.89525  0.27020  0.00634  1.0000
  H   H13       1.0  0.04308  0.93626  0.05739  1.0000
  H   H14       1.0  0.95692  0.06374  0.94261  1.0000
  H   H15       1.0  0.76354  0.74097  0.23072  1.0000
  H   H16       1.0  0.23646  0.25903  0.76929  1.0000
  H   H17       1.0  0.92588  0.65134  0.43139  1.0000
  H   H18       1.0  0.07411  0.34866  0.56861  1.0000
  H   H19       1.0  0.59737  0.84670  0.40065  1.0000
  H   H20       1.0  0.40263  0.15330  0.59935  1.0000
  H   H21       1.0  0.67319  0.99608  0.40080  1.0000
  H   H22       1.0  0.32681  0.00393  0.59920  1.0000
  H   H23       1.0  0.63375  0.89958  0.50349  1.0000
  H   H24       1.0  0.36625  0.10042  0.49651  1.0000
  H   H25       1.0  0.90552  0.92911  0.51673  1.0000
  H   H26       1.0  0.09448  0.07089  0.48327  1.0000
  H   H27       1.0  0.91798  0.97845  0.39988  1.0000
  H   H28       1.0  0.08202  0.02154  0.60012  1.0000
  H   H29       1.0  0.01077  0.82758  0.45442  1.0000
  H   H30       1.0  0.98923  0.17242  0.54558  1.0000
  H   H31       1.0  0.57023  0.35329  0.55561  1.0000
  H   H32       1.0  0.42977  0.64671  0.44439  1.0000
  H   H33       1.0  0.87223  0.19739  0.70269  1.0000
  H   H34       1.0  0.12777  0.80261  0.29731  1.0000
  H   H35       1.0  0.80281  0.28112  0.78850  1.0000
  H   H36       1.0  0.19719  0.71888  0.21150  1.0000
  H   H37       1.0  0.87338  0.37137  0.69309  1.0000
  H   H38       1.0  0.12662  0.62863  0.30691  1.0000
  H   H39       1.0  0.47108  0.32507  0.68348  1.0000
  H   H40       1.0  0.52892  0.67493  0.31652  1.0000
  H   H41       1.0  0.55558  0.39769  0.76240  1.0000
  H   H42       1.0  0.44442  0.60231  0.23760  1.0000
  H   H43       1.0  0.56285  0.22179  0.77438  1.0000
  H   H44       1.0  0.43715  0.77821  0.22562  1.0000
  H   H45       1.0  0.55691  0.44650  0.13479  1.0000
  H   H46       1.0  0.44308  0.55351  0.86521  1.0000
  H   H47       1.0  0.37950  0.18009  0.08698  1.0000
  H   H48       1.0  0.62050  0.81991  0.91302  1.0000
  H   H49       1.0  0.28863  0.28578  0.99612  1.0000
  H   H50       1.0  0.71137  0.71421  0.00388  1.0000
  H   H51       1.0  0.22175  0.27258  0.10488  1.0000
  H   H52       1.0  0.77825  0.72742  0.89512  1.0000
  H   H53       1.0  0.23497  0.51679  0.12279  1.0000
  H   H54       1.0  0.76502  0.48321  0.87721  1.0000
  H   H55       1.0  0.26983  0.53772  0.00728  1.0000
  H   H56       1.0  0.73017  0.46228  0.99272  1.0000
  H   H57       1.0  0.38553  0.58398  0.08336  1.0000
  H   H58       1.0  0.61447  0.41602  0.91664  1.0000
  C   C1        1.0  0.52514  0.29627  0.35781  1.0000
  C   C2        1.0  0.47486  0.70373  0.64219  1.0000
  C   C3        1.0  0.39992  0.24124  0.33355  1.0000
  C   C4        1.0  0.60008  0.75876  0.66645  1.0000
  C   C5        1.0  0.27295  0.30659  0.34723  1.0000
  C   C6        1.0  0.72705  0.69341  0.65277  1.0000
  C   C7        1.0  0.15539  0.25375  0.32684  1.0000
  C   C8        1.0  0.84461  0.74625  0.67316  1.0000
  C   C9        1.0  0.16559  0.13578  0.29136  1.0000
  C   C10       1.0  0.83441  0.86422  0.70864  1.0000
  C   C11       1.0  0.29207  0.07150  0.27684  1.0000
  C   C12       1.0  0.70793  0.92850  0.72316  1.0000
  C   C13       1.0  0.40932  0.12326  0.29807  1.0000
  C   C14       1.0  0.59068  0.87673  0.70193  1.0000
  C   C15       1.0  0.01994  0.31888  0.34695  1.0000
  C   C16       1.0  0.98006  0.68113  0.65305  1.0000
  C   C17       1.0  0.81303  0.49850  0.17974  1.0000
  C   C18       1.0  0.18697  0.50150  0.82026  1.0000
  C   C19       1.0  0.87743  0.62054  0.14703  1.0000
  C   C20       1.0  0.12257  0.37946  0.85297  1.0000
  C   C21       1.0  0.97499  0.61777  0.08138  1.0000
  C   C22       1.0  0.02502  0.38223  0.91862  1.0000
  C   C23       1.0  0.03337  0.73101  0.04742  1.0000
  C   C24       1.0  0.96663  0.26899  0.95258  1.0000
  C   C25       1.0  0.99720  0.84705  0.08148  1.0000
  C   C26       1.0  0.00280  0.15295  0.91852  1.0000
  C   C27       1.0  0.90038  0.85100  0.14770  1.0000
  C   C28       1.0  0.09962  0.14900  0.85230  1.0000
  C   C29       1.0  0.83976  0.73777  0.17999  1.0000
  C   C30       1.0  0.16024  0.26223  0.82002  1.0000
  C   C31       1.0  0.86054  0.97735  0.18170  1.0000
  C   C32       1.0  0.13946  0.02264  0.81830  1.0000
  C   C33       1.0  0.81977  0.69576  0.42826  1.0000
  C   C34       1.0  0.18023  0.30425  0.57174  1.0000
  C   C35       1.0  0.66835  0.89556  0.43550  1.0000
  C   C36       1.0  0.33164  0.10444  0.56450  1.0000
  C   C37       1.0  0.91615  0.89320  0.45278  1.0000
  C   C38       1.0  0.08384  0.10680  0.54722  1.0000
  C   C39       1.0  0.67342  0.33264  0.58467  1.0000
  C   C40       1.0  0.32657  0.66736  0.41533  1.0000
  C   C41       1.0  0.81529  0.28879  0.71674  1.0000
  C   C42       1.0  0.18471  0.71121  0.28326  1.0000
  C   C43       1.0  0.56150  0.31330  0.72643  1.0000
  C   C44       1.0  0.43850  0.68670  0.27357  1.0000
  C   C45       1.0  0.51556  0.35793  0.11854  1.0000
  C   C46       1.0  0.48442  0.64210  0.88146  1.0000
  C   C47       1.0  0.31534  0.27313  0.06716  1.0000
  C   C48       1.0  0.68465  0.72687  0.93284  1.0000
  C   C49       1.0  0.31579  0.51186  0.07430  1.0000
  C   C50       1.0  0.68420  0.48814  0.92570  1.0000
  N   N1        1.0  0.80214  0.82231  0.43774  1.0000
  N   N2        1.0  0.19785  0.17769  0.56226  1.0000
  N   N3        1.0  0.68199  0.30926  0.67306  1.0000
  N   N4        1.0  0.31801  0.69073  0.32695  1.0000
  N   N5        1.0  0.38875  0.38042  0.08591  1.0000
  N   N6        1.0  0.61125  0.61958  0.91410  1.0000
  O   O1        1.0  0.64006  0.23160  0.34645  1.0000
  O   O2        1.0  0.35994  0.76840  0.65355  1.0000
  O   O3        1.0  0.51619  0.40277  0.38988  1.0000
  O   O4        1.0  0.48381  0.59723  0.61012  1.0000
  O   O5        1.0  0.91744  0.25319  0.34298  1.0000
  O   O6        1.0  0.08256  0.74682  0.65702  1.0000
  O   O7        1.0  0.00810  0.43145  0.37048  1.0000
  O   O8        1.0  0.99190  0.56856  0.62952  1.0000
  O   O9        1.0  0.72077  0.50289  0.23710  1.0000
  O   O10       1.0  0.27924  0.49711  0.76290  1.0000
  O   O11       1.0  0.85331  0.39543  0.14625  1.0000
  O   O12       1.0  0.14669  0.60457  0.85375  1.0000
  O   O13       1.0  0.76615  0.98313  0.23764  1.0000
  O   O14       1.0  0.23385  0.01687  0.76236  1.0000
  O   O15       1.0  0.92265  0.07680  0.15230  1.0000
  O   O16       1.0  0.07736  0.92320  0.84771  1.0000
  O   O17       1.0  0.72346  0.63000  0.41643  1.0000
  O   O18       1.0  0.27654  0.37000  0.58357  1.0000
  O   O19       1.0  0.77707  0.33158  0.53753  1.0000
  O   O20       1.0  0.22293  0.66842  0.46247  1.0000
  O   O21       1.0  0.58368  0.24689  0.13133  1.0000
  O   O22       1.0  0.41632  0.75309  0.86867  1.0000
