data_image0
_chemical_formula_structural       K2Y2H16C8O24
_chemical_formula_sum              "K2 Y2 H16 C8 O24"
_cell_length_a       8.76534
_cell_length_b       9.27143
_cell_length_c       9.27141
_cell_angle_alpha    77.0879
_cell_angle_beta     61.7898
_cell_angle_gamma    61.7899

_space_group_name_H-M_alt    "P 1"
_space_group_IT_number       1

loop_
  _space_group_symop_operation_xyz
  'x, y, z'

loop_
  _atom_site_type_symbol
  _atom_site_label
  _atom_site_symmetry_multiplicity
  _atom_site_fract_x
  _atom_site_fract_y
  _atom_site_fract_z
  _atom_site_occupancy
  K   K1        1.0  0.12500  0.75000  0.74999  1.0000
  K   K2        1.0  0.87500  0.24999  0.25001  1.0000
  Y   Y1        1.0  0.37500  0.25000  0.25000  1.0000
  Y   Y2        1.0  0.62500  0.75000  0.75000  1.0000
  H   H1        1.0  0.05085  0.59291  0.09856  1.0000
  H   H2        1.0  0.14940  0.90144  0.09291  1.0000
  H   H3        1.0  0.24232  0.90708  0.40143  1.0000
  H   H4        1.0  0.64376  0.59856  0.40708  1.0000
  H   H5        1.0  0.94916  0.40709  0.90144  1.0000
  H   H6        1.0  0.85059  0.09856  0.90709  1.0000
  H   H7        1.0  0.75768  0.09292  0.59856  1.0000
  H   H8        1.0  0.35624  0.40144  0.59291  1.0000
  H   H9        1.0  0.82443  0.67440  0.17108  1.0000
  H   H10       1.0  0.99551  0.82892  0.17440  1.0000
  H   H11       1.0  0.16991  0.82560  0.32892  1.0000
  H   H12       1.0  0.49883  0.67108  0.32560  1.0000
  H   H13       1.0  0.17558  0.32560  0.82892  1.0000
  H   H14       1.0  0.00449  0.17108  0.82561  1.0000
  H   H15       1.0  0.83009  0.17440  0.67108  1.0000
  H   H16       1.0  0.50118  0.32892  0.67440  1.0000
  C   C1        1.0  0.41258  0.52859  0.98211  1.0000
  C   C2        1.0  0.39468  0.01789  0.02858  1.0000
  C   C3        1.0  0.42327  0.97141  0.51789  1.0000
  C   C4        1.0  0.94114  0.48211  0.47143  1.0000
  C   C5        1.0  0.58743  0.47141  0.01790  1.0000
  C   C6        1.0  0.60531  0.98211  0.97142  1.0000
  C   C7        1.0  0.57674  0.02858  0.48210  1.0000
  C   C8        1.0  0.05884  0.51789  0.52858  1.0000
  O   O1        1.0  0.30250  0.45782  0.06216  1.0000
  O   O2        1.0  0.36464  0.93783  0.95782  1.0000
  O   O3        1.0  0.32247  0.04218  0.43784  1.0000
  O   O4        1.0  0.76029  0.56217  0.54219  1.0000
  O   O5        1.0  0.69753  0.54218  0.93783  1.0000
  O   O6        1.0  0.63534  0.06216  0.04218  1.0000
  O   O7        1.0  0.67754  0.95782  0.56217  1.0000
  O   O8        1.0  0.23968  0.43784  0.45782  1.0000
  O   O9        1.0  0.39284  0.64076  0.87770  1.0000
  O   O10       1.0  0.27054  0.12231  0.14074  1.0000
  O   O11       1.0  0.41130  0.85924  0.62230  1.0000
  O   O12       1.0  0.03358  0.37770  0.35926  1.0000
  O   O13       1.0  0.60716  0.35926  0.12229  1.0000
  O   O14       1.0  0.72946  0.87770  0.85924  1.0000
  O   O15       1.0  0.58871  0.14074  0.37770  1.0000
  O   O16       1.0  0.96640  0.62231  0.64076  1.0000
  O   O17       1.0  0.93880  0.69781  0.10852  1.0000
  O   O18       1.0  0.04732  0.89148  0.19781  1.0000
  O   O19       1.0  0.24513  0.80219  0.39148  1.0000
  O   O20       1.0  0.63661  0.60851  0.30219  1.0000
  O   O21       1.0  0.06120  0.30219  0.89149  1.0000
  O   O22       1.0  0.95268  0.10852  0.80219  1.0000
  O   O23       1.0  0.75487  0.19781  0.60852  1.0000
  O   O24       1.0  0.36339  0.39149  0.69781  1.0000
