data_image0
_chemical_formula_structural       La2H48C70S4N8O18
_chemical_formula_sum              "La2 H48 C70 S4 N8 O18"
_cell_length_a       11.2156
_cell_length_b       11.7058
_cell_length_c       13.9999
_cell_angle_alpha    108.478
_cell_angle_beta     91.5676
_cell_angle_gamma    113.385

_space_group_name_H-M_alt    "P 1"
_space_group_IT_number       1

loop_
  _space_group_symop_operation_xyz
  'x, y, z'

loop_
  _atom_site_type_symbol
  _atom_site_label
  _atom_site_symmetry_multiplicity
  _atom_site_fract_x
  _atom_site_fract_y
  _atom_site_fract_z
  _atom_site_occupancy
  La  La1       1.0  0.84572  0.64170  0.15147  1.0000
  La  La2       1.0  0.15428  0.35830  0.84853  1.0000
  H   H1        1.0  0.52626  0.62229  0.11559  1.0000
  H   H2        1.0  0.47374  0.37771  0.88441  1.0000
  H   H3        1.0  0.38689  0.73376  0.08796  1.0000
  H   H4        1.0  0.61311  0.26623  0.91204  1.0000
  H   H5        1.0  0.49860  0.96691  0.08500  1.0000
  H   H6        1.0  0.50140  0.03309  0.91500  1.0000
  H   H7        1.0  0.70544  0.15908  0.09337  1.0000
  H   H8        1.0  0.29456  0.84093  0.90663  1.0000
  H   H9        1.0  0.94829  0.25680  0.10195  1.0000
  H   H10       1.0  0.05172  0.74320  0.89805  1.0000
  H   H11       1.0  0.16098  0.23692  0.11569  1.0000
  H   H12       1.0  0.83902  0.76309  0.88432  1.0000
  H   H13       1.0  0.28098  0.10449  0.13542  1.0000
  H   H14       1.0  0.71902  0.89551  0.86458  1.0000
  H   H15       1.0  0.15289  0.88434  0.15702  1.0000
  H   H16       1.0  0.84711  0.11566  0.84298  1.0000
  H   H17       1.0  0.83108  0.94410  0.30587  1.0000
  H   H18       1.0  0.16892  0.05590  0.69413  1.0000
  H   H19       1.0  0.83523  0.08810  0.48131  1.0000
  H   H20       1.0  0.16477  0.91190  0.51869  1.0000
  H   H21       1.0  0.84329  0.00903  0.62672  1.0000
  H   H22       1.0  0.15671  0.99097  0.37328  1.0000
  H   H23       1.0  0.84948  0.83259  0.68590  1.0000
  H   H24       1.0  0.15052  0.16741  0.31410  1.0000
  H   H25       1.0  0.85498  0.61207  0.64847  1.0000
  H   H26       1.0  0.14502  0.38793  0.35153  1.0000
  H   H27       1.0  0.85562  0.41155  0.52458  1.0000
  H   H28       1.0  0.14438  0.58845  0.47543  1.0000
  H   H29       1.0  0.83903  0.27300  0.33894  1.0000
  H   H30       1.0  0.16097  0.72700  0.66106  1.0000
  H   H31       1.0  0.83213  0.37142  0.20561  1.0000
  H   H32       1.0  0.16788  0.62859  0.79439  1.0000
  H   H33       1.0  0.50092  0.62653  0.29605  1.0000
  H   H34       1.0  0.49908  0.37347  0.70396  1.0000
  H   H35       1.0  0.50766  0.28394  0.34530  1.0000
  H   H36       1.0  0.49233  0.71605  0.65470  1.0000
  H   H37       1.0  0.49978  0.27101  0.52033  1.0000
  H   H38       1.0  0.50022  0.72898  0.47967  1.0000
  H   H39       1.0  0.29261  0.75613  0.47657  1.0000
  H   H40       1.0  0.70739  0.24387  0.52342  1.0000
  H   H41       1.0  0.36432  0.92149  0.23846  1.0000
  H   H42       1.0  0.63569  0.07850  0.76153  1.0000
  H   H43       1.0  0.56152  0.11748  0.35204  1.0000
  H   H44       1.0  0.43849  0.88252  0.64795  1.0000
  H   H45       1.0  0.74905  0.48625  0.91401  1.0000
  H   H46       1.0  0.25095  0.51374  0.08599  1.0000
  H   H47       1.0  0.67829  0.58381  0.93575  1.0000
  H   H48       1.0  0.32171  0.41619  0.06425  1.0000
  C   C1        1.0  0.57195  0.72306  0.11438  1.0000
  C   C2        1.0  0.42805  0.27694  0.88561  1.0000
  C   C3        1.0  0.49365  0.78613  0.09818  1.0000
  C   C4        1.0  0.50635  0.21387  0.90182  1.0000
  C   C5        1.0  0.55497  0.91321  0.09625  1.0000
  C   C6        1.0  0.44504  0.08679  0.90375  1.0000
  C   C7        1.0  0.69382  0.97564  0.10805  1.0000
  C   C8        1.0  0.30618  0.02436  0.89194  1.0000
  C   C9        1.0  0.76268  0.10559  0.10343  1.0000
  C   C10       1.0  0.23732  0.89441  0.89657  1.0000
  C   C11       1.0  0.89653  0.16044  0.11000  1.0000
  C   C12       1.0  0.10347  0.83956  0.89000  1.0000
  C   C13       1.0  0.97099  0.08987  0.12259  1.0000
  C   C14       1.0  0.02900  0.91013  0.87742  1.0000
  C   C15       1.0  0.10828  0.14072  0.12373  1.0000
  C   C16       1.0  0.89172  0.85929  0.87628  1.0000
  C   C17       1.0  0.17514  0.06760  0.13521  1.0000
  C   C18       1.0  0.82486  0.93241  0.86480  1.0000
  C   C19       1.0  0.10418  0.94509  0.14738  1.0000
  C   C20       1.0  0.89582  0.05491  0.85262  1.0000
  C   C21       1.0  0.90664  0.96280  0.13191  1.0000
  C   C22       1.0  0.09336  0.03720  0.86810  1.0000
  C   C23       1.0  0.76483  0.90339  0.12284  1.0000
  C   C24       1.0  0.23517  0.09661  0.87716  1.0000
  C   C25       1.0  0.83346  0.91033  0.36970  1.0000
  C   C26       1.0  0.16654  0.08967  0.63030  1.0000
  C   C27       1.0  0.83529  0.99151  0.46869  1.0000
  C   C28       1.0  0.16470  0.00849  0.53131  1.0000
  C   C29       1.0  0.83963  0.94754  0.54864  1.0000
  C   C30       1.0  0.16037  0.05246  0.45135  1.0000
  C   C31       1.0  0.84249  0.82268  0.52869  1.0000
  C   C32       1.0  0.15750  0.17732  0.47131  1.0000
  C   C33       1.0  0.84889  0.77255  0.60845  1.0000
  C   C34       1.0  0.15111  0.22745  0.39155  1.0000
  C   C35       1.0  0.85170  0.65178  0.58814  1.0000
  C   C36       1.0  0.14830  0.34822  0.41186  1.0000
  C   C37       1.0  0.84730  0.57214  0.48554  1.0000
  C   C38       1.0  0.15270  0.42786  0.51446  1.0000
  C   C39       1.0  0.84730  0.44549  0.46164  1.0000
  C   C40       1.0  0.15270  0.55451  0.53837  1.0000
  C   C41       1.0  0.83911  0.37112  0.36106  1.0000
  C   C42       1.0  0.16089  0.62888  0.63894  1.0000
  C   C43       1.0  0.83533  0.42563  0.28545  1.0000
  C   C44       1.0  0.16467  0.57438  0.71455  1.0000
  C   C45       1.0  0.84212  0.61881  0.40398  1.0000
  C   C46       1.0  0.15788  0.38120  0.59602  1.0000
  C   C47       1.0  0.84019  0.74706  0.42583  1.0000
  C   C48       1.0  0.15982  0.25294  0.57417  1.0000
  C   C49       1.0  0.50108  0.57433  0.34812  1.0000
  C   C50       1.0  0.49891  0.42567  0.65188  1.0000
  C   C51       1.0  0.50520  0.44860  0.31122  1.0000
  C   C52       1.0  0.49480  0.55139  0.68878  1.0000
  C   C53       1.0  0.50418  0.38029  0.37556  1.0000
  C   C54       1.0  0.49581  0.61970  0.62444  1.0000
  C   C55       1.0  0.50065  0.43582  0.48079  1.0000
  C   C56       1.0  0.49934  0.56418  0.51921  1.0000
  C   C57       1.0  0.50026  0.36914  0.54969  1.0000
  C   C58       1.0  0.49974  0.63085  0.45031  1.0000
  C   C59       1.0  0.35043  0.83679  0.45083  1.0000
  C   C60       1.0  0.64957  0.16320  0.54917  1.0000
  C   C61       1.0  0.31671  0.82807  0.35252  1.0000
  C   C62       1.0  0.68329  0.17192  0.64748  1.0000
  C   C63       1.0  0.39201  0.93061  0.31658  1.0000
  C   C64       1.0  0.60799  0.06939  0.68341  1.0000
  C   C65       1.0  0.50134  0.03944  0.37992  1.0000
  C   C66       1.0  0.49866  0.96056  0.62008  1.0000
  C   C67       1.0  0.53876  0.05155  0.48179  1.0000
  C   C68       1.0  0.46124  0.94844  0.51820  1.0000
  C   C69       1.0  0.96344  0.43600  0.01224  1.0000
  C   C70       1.0  0.03656  0.56400  0.98776  1.0000
  S   S1        1.0  0.51152  0.37823  0.17932  1.0000
  S   S2        1.0  0.48847  0.62177  0.82068  1.0000
  S   S3        1.0  0.17737  0.68463  0.26913  1.0000
  S   S4        1.0  0.82263  0.31537  0.73087  1.0000
  N   N1        1.0  0.70341  0.77919  0.12732  1.0000
  N   N2        1.0  0.29659  0.22081  0.87268  1.0000
  N   N3        1.0  0.97432  0.89383  0.14651  1.0000
  N   N4        1.0  0.02568  0.10617  0.85349  1.0000
  N   N5        1.0  0.83560  0.79176  0.34759  1.0000
  N   N6        1.0  0.16440  0.20825  0.65241  1.0000
  N   N7        1.0  0.83793  0.54563  0.30568  1.0000
  N   N8        1.0  0.16208  0.45437  0.69432  1.0000
  O   O1        1.0  0.61566  0.48809  0.15657  1.0000
  O   O2        1.0  0.38434  0.51191  0.84343  1.0000
  O   O3        1.0  0.53998  0.26388  0.16702  1.0000
  O   O4        1.0  0.46002  0.73612  0.83299  1.0000
  O   O5        1.0  0.38143  0.34333  0.12359  1.0000
  O   O6        1.0  0.61857  0.65666  0.87641  1.0000
  O   O7        1.0  0.07812  0.73643  0.25794  1.0000
  O   O8        1.0  0.92188  0.26357  0.74206  1.0000
  O   O9        1.0  0.13748  0.58745  0.31962  1.0000
  O   O10       1.0  0.86252  0.41255  0.68038  1.0000
  O   O11       1.0  0.22331  0.64309  0.17237  1.0000
  O   O12       1.0  0.77668  0.35690  0.82763  1.0000
  O   O13       1.0  0.88198  0.43886  0.07348  1.0000
  O   O14       1.0  0.11803  0.56114  0.92652  1.0000
  O   O15       1.0  0.99105  0.33943  0.97031  1.0000
  O   O16       1.0  0.00895  0.66057  0.02969  1.0000
  O   O17       1.0  0.72402  0.54513  0.96904  1.0000
  O   O18       1.0  0.27599  0.45487  0.03096  1.0000
