data_image0
_chemical_formula_structural       La2H26C38S2N4O16
_chemical_formula_sum              "La2 H26 C38 S2 N4 O16"
_cell_length_a       8.52187
_cell_length_b       10.7565
_cell_length_c       11.2033
_cell_angle_alpha    79.9552
_cell_angle_beta     71.8383
_cell_angle_gamma    88.8415

_space_group_name_H-M_alt    "P 1"
_space_group_IT_number       1

loop_
  _space_group_symop_operation_xyz
  'x, y, z'

loop_
  _atom_site_type_symbol
  _atom_site_label
  _atom_site_symmetry_multiplicity
  _atom_site_fract_x
  _atom_site_fract_y
  _atom_site_fract_z
  _atom_site_occupancy
  La  La1       1.0  0.16484  0.58040  0.19964  1.0000
  La  La2       1.0  0.83515  0.41960  0.80036  1.0000
  H   H1        1.0  0.46533  0.43093  0.28773  1.0000
  H   H2        1.0  0.53467  0.56908  0.71227  1.0000
  H   H3        1.0  0.30935  0.43023  0.40617  1.0000
  H   H4        1.0  0.69065  0.56977  0.59383  1.0000
  H   H5        1.0  0.39206  0.84829  0.98472  1.0000
  H   H6        1.0  0.60794  0.15171  0.01527  1.0000
  H   H7        1.0  0.40261  0.08586  0.92719  1.0000
  H   H8        1.0  0.59739  0.91415  0.07281  1.0000
  H   H9        1.0  0.16589  0.20532  0.04347  1.0000
  H   H10       1.0  0.83411  0.79468  0.95654  1.0000
  H   H11       1.0  0.88204  0.19949  0.20272  1.0000
  H   H12       1.0  0.11796  0.80051  0.79729  1.0000
  H   H13       1.0  0.63744  0.07514  0.35229  1.0000
  H   H14       1.0  0.36256  0.92486  0.64772  1.0000
  H   H15       1.0  0.48731  0.86315  0.44831  1.0000
  H   H16       1.0  0.51269  0.13685  0.55170  1.0000
  H   H17       1.0  0.48515  0.63139  0.45810  1.0000
  H   H18       1.0  0.51485  0.36860  0.54190  1.0000
  H   H19       1.0  0.74355  0.53103  0.33755  1.0000
  H   H20       1.0  0.25645  0.46896  0.66245  1.0000
  H   H21       1.0  0.22809  0.28052  0.30396  1.0000
  H   H22       1.0  0.77191  0.71948  0.69603  1.0000
  H   H23       1.0  0.39227  0.09232  0.25845  1.0000
  H   H24       1.0  0.60773  0.90768  0.74155  1.0000
  H   H25       1.0  0.27600  0.87893  0.36844  1.0000
  H   H26       1.0  0.72400  0.12107  0.63155  1.0000
  C   C1        1.0  0.28784  0.90353  0.02870  1.0000
  C   C2        1.0  0.71216  0.09647  0.97130  1.0000
  C   C3        1.0  0.29387  0.03634  0.99806  1.0000
  C   C4        1.0  0.70613  0.96366  0.00194  1.0000
  C   C5        1.0  0.16201  0.10228  0.06066  1.0000
  C   C6        1.0  0.83799  0.89772  0.93935  1.0000
  C   C7        1.0  0.02121  0.03458  0.14939  1.0000
  C   C8        1.0  0.97880  0.96542  0.85061  1.0000
  C   C9        1.0  0.87980  0.09652  0.21745  1.0000
  C   C10       1.0  0.12020  0.90348  0.78255  1.0000
  C   C11       1.0  0.74438  0.02758  0.29983  1.0000
  C   C12       1.0  0.25563  0.97242  0.70018  1.0000
  C   C13       1.0  0.73812  0.89261  0.31771  1.0000
  C   C14       1.0  0.26188  0.10738  0.68229  1.0000
  C   C15       1.0  0.59685  0.81824  0.39582  1.0000
  C   C16       1.0  0.40315  0.18175  0.60418  1.0000
  C   C17       1.0  0.59599  0.68870  0.40288  1.0000
  C   C18       1.0  0.40402  0.31130  0.59712  1.0000
  C   C19       1.0  0.73907  0.63316  0.33448  1.0000
  C   C20       1.0  0.26093  0.36684  0.66552  1.0000
  C   C21       1.0  0.87753  0.82801  0.25281  1.0000
  C   C22       1.0  0.12248  0.17199  0.74719  1.0000
  C   C23       1.0  0.02371  0.90027  0.17035  1.0000
  C   C24       1.0  0.97630  0.09972  0.82966  1.0000
  C   C25       1.0  0.53706  0.56861  0.99010  1.0000
  C   C26       1.0  0.46292  0.43138  0.00991  1.0000
  C   C27       1.0  0.94365  0.45020  0.05449  1.0000
  C   C28       1.0  0.05635  0.54981  0.94551  1.0000
  C   C29       1.0  0.02441  0.17559  0.44803  1.0000
  C   C30       1.0  0.97559  0.82441  0.55196  1.0000
  C   C31       1.0  0.17888  0.18812  0.35787  1.0000
  C   C32       1.0  0.82112  0.81188  0.64213  1.0000
  C   C33       1.0  0.27097  0.08057  0.33093  1.0000
  C   C34       1.0  0.72903  0.91943  0.66907  1.0000
  C   C35       1.0  0.20649  0.96182  0.39238  1.0000
  C   C36       1.0  0.79350  0.03817  0.60761  1.0000
  C   C37       1.0  0.95282  0.05458  0.51503  1.0000
  C   C38       1.0  0.04718  0.94542  0.48496  1.0000
  S   S1        1.0  0.91022  0.31441  0.47317  1.0000
  S   S2        1.0  0.08978  0.68559  0.52681  1.0000
  N   N1        1.0  0.15843  0.83683  0.11351  1.0000
  N   N2        1.0  0.84158  0.16316  0.88648  1.0000
  N   N3        1.0  0.87640  0.70017  0.26309  1.0000
  N   N4        1.0  0.12360  0.29983  0.73691  1.0000
  O   O1        1.0  0.84648  0.38224  0.02531  1.0000
  O   O2        1.0  0.15353  0.61777  0.97468  1.0000
  O   O3        1.0  0.67318  0.59672  0.90270  1.0000
  O   O4        1.0  0.32680  0.40327  0.09731  1.0000
  O   O5        1.0  0.95826  0.44436  0.16426  1.0000
  O   O6        1.0  0.04174  0.55565  0.83573  1.0000
  O   O7        1.0  0.45491  0.64096  0.06317  1.0000
  O   O8        1.0  0.54507  0.35904  0.93683  1.0000
  O   O9        1.0  0.37669  0.48333  0.32757  1.0000
  O   O10       1.0  0.62331  0.51667  0.67243  1.0000
  O   O11       1.0  0.02897  0.41989  0.40168  1.0000
  O   O12       1.0  0.97103  0.58011  0.59831  1.0000
  O   O13       1.0  0.76833  0.30611  0.42880  1.0000
  O   O14       1.0  0.23167  0.69390  0.57120  1.0000
  O   O15       1.0  0.86140  0.31333  0.61236  1.0000
  O   O16       1.0  0.13860  0.68667  0.38764  1.0000
