data_image0
_chemical_formula_structural       Sm2H26C38S2N4O16
_chemical_formula_sum              "Sm2 H26 C38 S2 N4 O16"
_cell_length_a       8.75004
_cell_length_b       10.6149
_cell_length_c       11.039
_cell_angle_alpha    81.0199
_cell_angle_beta     69.2107
_cell_angle_gamma    88.8642

_space_group_name_H-M_alt    "P 1"
_space_group_IT_number       1

loop_
  _space_group_symop_operation_xyz
  'x, y, z'

loop_
  _atom_site_type_symbol
  _atom_site_label
  _atom_site_symmetry_multiplicity
  _atom_site_fract_x
  _atom_site_fract_y
  _atom_site_fract_z
  _atom_site_occupancy
  Sm  Sm1       1.0  0.15720  0.07524  0.19373  1.0000
  Sm  Sm2       1.0  0.84280  0.92475  0.80626  1.0000
  H   H1        1.0  0.24322  0.78258  0.31093  1.0000
  H   H2        1.0  0.75679  0.21742  0.68907  1.0000
  H   H3        1.0  0.72190  0.62495  0.63267  1.0000
  H   H4        1.0  0.27810  0.37505  0.36733  1.0000
  H   H5        1.0  0.59749  0.41054  0.73958  1.0000
  H   H6        1.0  0.40252  0.58947  0.26042  1.0000
  H   H7        1.0  0.74857  0.01789  0.34406  1.0000
  H   H8        1.0  0.25142  0.98211  0.65595  1.0000
  H   H9        1.0  0.46016  0.04983  0.26450  1.0000
  H   H10       1.0  0.53984  0.95018  0.73550  1.0000
  H   H11       1.0  0.31476  0.01261  0.39580  1.0000
  H   H12       1.0  0.68525  0.98739  0.60421  1.0000
  H   H13       1.0  0.48935  0.12012  0.47433  1.0000
  H   H14       1.0  0.51064  0.87988  0.52567  1.0000
  H   H15       1.0  0.48350  0.35424  0.45413  1.0000
  H   H16       1.0  0.51650  0.64576  0.54587  1.0000
  H   H17       1.0  0.63064  0.56843  0.35298  1.0000
  H   H18       1.0  0.36936  0.43158  0.64701  1.0000
  H   H19       1.0  0.87939  0.69406  0.20342  1.0000
  H   H20       1.0  0.12061  0.30594  0.79657  1.0000
  H   H21       1.0  0.16730  0.69950  0.04392  1.0000
  H   H22       1.0  0.83270  0.30049  0.95608  1.0000
  H   H23       1.0  0.40860  0.57768  0.92638  1.0000
  H   H24       1.0  0.59139  0.42232  0.07363  1.0000
  H   H25       1.0  0.39831  0.33866  0.98669  1.0000
  H   H26       1.0  0.60169  0.66134  0.01331  1.0000
  C   C1        1.0  0.18793  0.68890  0.35979  1.0000
  C   C2        1.0  0.81207  0.31110  0.64021  1.0000
  C   C3        1.0  0.02918  0.67689  0.44797  1.0000
  C   C4        1.0  0.97082  0.32312  0.55202  1.0000
  C   C5        1.0  0.95309  0.55549  0.51493  1.0000
  C   C6        1.0  0.04692  0.44451  0.48507  1.0000
  C   C7        1.0  0.79083  0.54048  0.60802  1.0000
  C   C8        1.0  0.20917  0.45952  0.39198  1.0000
  C   C9        1.0  0.72185  0.42113  0.66805  1.0000
  C   C10       1.0  0.27816  0.57887  0.33195  1.0000
  C   C11       1.0  0.94790  0.94632  0.05405  1.0000
  C   C12       1.0  0.05208  0.05368  0.94595  1.0000
  C   C13       1.0  0.46293  0.93248  0.00378  1.0000
  C   C14       1.0  0.53709  0.06751  0.99621  1.0000
  C   C15       1.0  0.74199  0.12124  0.34087  1.0000
  C   C16       1.0  0.25801  0.87876  0.65913  1.0000
  C   C17       1.0  0.59789  0.17775  0.41135  1.0000
  C   C18       1.0  0.40210  0.82225  0.58865  1.0000
  C   C19       1.0  0.59489  0.30907  0.40103  1.0000
  C   C20       1.0  0.40510  0.69094  0.59897  1.0000
  C   C21       1.0  0.73597  0.38410  0.32044  1.0000
  C   C22       1.0  0.26403  0.61591  0.67956  1.0000
  C   C23       1.0  0.74045  0.52054  0.30140  1.0000
  C   C24       1.0  0.25954  0.47946  0.69860  1.0000
  C   C25       1.0  0.87770  0.59001  0.21893  1.0000
  C   C26       1.0  0.12229  0.40999  0.78107  1.0000
  C   C27       1.0  0.02192  0.52712  0.15131  1.0000
  C   C28       1.0  0.97808  0.47288  0.84869  1.0000
  C   C29       1.0  0.16428  0.59540  0.06142  1.0000
  C   C30       1.0  0.83571  0.40460  0.93858  1.0000
  C   C31       1.0  0.29810  0.52834  0.99836  1.0000
  C   C32       1.0  0.70190  0.47166  0.00164  1.0000
  C   C33       1.0  0.29252  0.39442  0.03041  1.0000
  C   C34       1.0  0.70747  0.60558  0.96960  1.0000
  C   C35       1.0  0.02516  0.39152  0.17311  1.0000
  C   C36       1.0  0.97483  0.60848  0.82689  1.0000
  C   C37       1.0  0.87803  0.31856  0.25588  1.0000
  C   C38       1.0  0.12196  0.68144  0.74412  1.0000
  S   S1        1.0  0.91654  0.81705  0.47542  1.0000
  S   S2        1.0  0.08346  0.18296  0.52458  1.0000
  N   N1        1.0  0.87893  0.18916  0.26660  1.0000
  N   N2        1.0  0.12106  0.81084  0.73340  1.0000
  N   N3        1.0  0.16164  0.32721  0.11665  1.0000
  N   N4        1.0  0.83836  0.67278  0.88335  1.0000
  O   O1        1.0  0.03141  0.92339  0.39603  1.0000
  O   O2        1.0  0.96858  0.07661  0.60397  1.0000
  O   O3        1.0  0.77280  0.80631  0.43979  1.0000
  O   O4        1.0  0.22720  0.19369  0.56021  1.0000
  O   O5        1.0  0.86907  0.81975  0.61793  1.0000
  O   O6        1.0  0.13093  0.18024  0.38207  1.0000
  O   O7        1.0  0.85442  0.87766  0.02390  1.0000
  O   O8        1.0  0.14556  0.12233  0.97611  1.0000
  O   O9        1.0  0.96502  0.93527  0.16419  1.0000
  O   O10       1.0  0.03498  0.06472  0.83581  1.0000
  O   O11       1.0  0.55651  0.85853  0.93212  1.0000
  O   O12       1.0  0.44350  0.14146  0.06787  1.0000
  O   O13       1.0  0.31655  0.90723  0.07889  1.0000
  O   O14       1.0  0.68347  0.09276  0.92111  1.0000
  O   O15       1.0  0.36657  0.98998  0.30842  1.0000
  O   O16       1.0  0.63344  0.01001  0.69158  1.0000
