data_image0
_chemical_formula_structural       Cu4H48C40S4O20
_chemical_formula_sum              "Cu4 H48 C40 S4 O20"
_cell_length_a       7.28302
_cell_length_b       12.0352
_cell_length_c       13.655
_cell_angle_alpha    103.352
_cell_angle_beta     89.9999
_cell_angle_gamma    90.0001

_space_group_name_H-M_alt    "P 1"
_space_group_IT_number       1

loop_
  _space_group_symop_operation_xyz
  'x, y, z'

loop_
  _atom_site_type_symbol
  _atom_site_label
  _atom_site_symmetry_multiplicity
  _atom_site_fract_x
  _atom_site_fract_y
  _atom_site_fract_z
  _atom_site_occupancy
  Cu  Cu1       1.0  0.96410  0.85274  0.45196  1.0000
  Cu  Cu2       1.0  0.46410  0.64726  0.54804  1.0000
  Cu  Cu3       1.0  0.03591  0.14726  0.54804  1.0000
  Cu  Cu4       1.0  0.53590  0.35274  0.45196  1.0000
  H   H1        1.0  0.37533  0.52510  0.23983  1.0000
  H   H2        1.0  0.87534  0.97490  0.76017  1.0000
  H   H3        1.0  0.62466  0.47490  0.76016  1.0000
  H   H4        1.0  0.12467  0.02510  0.23983  1.0000
  H   H5        1.0  0.31532  0.49636  0.05507  1.0000
  H   H6        1.0  0.81531  0.00363  0.94494  1.0000
  H   H7        1.0  0.68468  0.50364  0.94493  1.0000
  H   H8        1.0  0.18468  0.99637  0.05506  1.0000
  H   H9        1.0  0.94526  0.78496  0.12068  1.0000
  H   H10       1.0  0.44525  0.71504  0.87932  1.0000
  H   H11       1.0  0.05474  0.21504  0.87932  1.0000
  H   H12       1.0  0.55475  0.28496  0.12068  1.0000
  H   H13       1.0  0.84832  0.69026  0.96754  1.0000
  H   H14       1.0  0.34831  0.80974  0.03246  1.0000
  H   H15       1.0  0.15168  0.30974  0.03246  1.0000
  H   H16       1.0  0.65168  0.19026  0.96753  1.0000
  H   H17       1.0  0.98493  0.66475  0.85612  1.0000
  H   H18       1.0  0.48493  0.83526  0.14389  1.0000
  H   H19       1.0  0.01507  0.33526  0.14388  1.0000
  H   H20       1.0  0.51507  0.16474  0.85611  1.0000
  H   H21       1.0  0.03387  0.78480  0.95765  1.0000
  H   H22       1.0  0.53387  0.71520  0.04236  1.0000
  H   H23       1.0  0.96613  0.21520  0.04236  1.0000
  H   H24       1.0  0.46613  0.28480  0.95764  1.0000
  H   H25       1.0  0.40431  0.89964  0.30819  1.0000
  H   H26       1.0  0.90431  0.60036  0.69181  1.0000
  H   H27       1.0  0.59569  0.10035  0.69181  1.0000
  H   H28       1.0  0.09570  0.39965  0.30819  1.0000
  H   H29       1.0  0.48992  0.85044  0.41417  1.0000
  H   H30       1.0  0.98993  0.64957  0.58583  1.0000
  H   H31       1.0  0.51008  0.14956  0.58583  1.0000
  H   H32       1.0  0.01009  0.35044  0.41417  1.0000
  H   H33       1.0  0.62295  0.82380  0.30016  1.0000
  H   H34       1.0  0.12296  0.67620  0.69984  1.0000
  H   H35       1.0  0.37705  0.17620  0.69984  1.0000
  H   H36       1.0  0.87706  0.32380  0.30016  1.0000
  H   H37       1.0  0.62929  0.04273  0.23010  1.0000
  H   H38       1.0  0.12929  0.45727  0.76990  1.0000
  H   H39       1.0  0.37070  0.95727  0.76991  1.0000
  H   H40       1.0  0.87071  0.54273  0.23010  1.0000
  H   H41       1.0  0.83241  0.96397  0.25284  1.0000
  H   H42       1.0  0.33240  0.53603  0.74716  1.0000
  H   H43       1.0  0.16759  0.03604  0.74717  1.0000
  H   H44       1.0  0.66759  0.46396  0.25283  1.0000
  H   H45       1.0  0.81911  0.11661  0.30195  1.0000
  H   H46       1.0  0.31911  0.38339  0.69805  1.0000
  H   H47       1.0  0.18089  0.88339  0.69806  1.0000
  H   H48       1.0  0.68088  0.61661  0.30195  1.0000
  C   C1        1.0  0.25347  0.68615  0.38946  1.0000
  C   C2        1.0  0.75348  0.81385  0.61054  1.0000
  C   C3        1.0  0.74652  0.31385  0.61054  1.0000
  C   C4        1.0  0.24653  0.18615  0.38946  1.0000
  C   C5        1.0  0.19732  0.67005  0.28394  1.0000
  C   C6        1.0  0.69733  0.82994  0.71606  1.0000
  C   C7        1.0  0.80267  0.32994  0.71606  1.0000
  C   C8        1.0  0.30268  0.17005  0.28394  1.0000
  C   C9        1.0  0.28201  0.58145  0.21189  1.0000
  C   C10       1.0  0.78202  0.91855  0.78812  1.0000
  C   C11       1.0  0.71798  0.41855  0.78812  1.0000
  C   C12       1.0  0.21798  0.08145  0.21188  1.0000
  C   C13       1.0  0.25001  0.56500  0.11003  1.0000
  C   C14       1.0  0.75000  0.93500  0.88997  1.0000
  C   C15       1.0  0.75000  0.43500  0.88997  1.0000
  C   C16       1.0  0.25000  0.06500  0.11003  1.0000
  C   C17       1.0  0.12932  0.64021  0.07641  1.0000
  C   C18       1.0  0.62932  0.85979  0.92359  1.0000
  C   C19       1.0  0.87068  0.35979  0.92359  1.0000
  C   C20       1.0  0.37069  0.14021  0.07641  1.0000
  C   C21       1.0  0.04000  0.72676  0.14498  1.0000
  C   C22       1.0  0.54000  0.77324  0.85502  1.0000
  C   C23       1.0  0.96000  0.27324  0.85502  1.0000
  C   C24       1.0  0.46000  0.22676  0.14498  1.0000
  C   C25       1.0  0.06983  0.74341  0.25035  1.0000
  C   C26       1.0  0.56982  0.75658  0.74965  1.0000
  C   C27       1.0  0.93017  0.25659  0.74965  1.0000
  C   C28       1.0  0.43017  0.24342  0.25035  1.0000
  C   C29       1.0  0.98731  0.69536  0.93782  1.0000
  C   C30       1.0  0.48730  0.80464  0.06218  1.0000
  C   C31       1.0  0.01270  0.30464  0.06218  1.0000
  C   C32       1.0  0.51270  0.19536  0.93781  1.0000
  C   C33       1.0  0.52792  0.88289  0.34837  1.0000
  C   C34       1.0  0.02792  0.61711  0.65163  1.0000
  C   C35       1.0  0.47208  0.11711  0.65163  1.0000
  C   C36       1.0  0.97209  0.38289  0.34837  1.0000
  C   C37       1.0  0.74171  0.03663  0.28210  1.0000
  C   C38       1.0  0.24171  0.46337  0.71790  1.0000
  C   C39       1.0  0.25829  0.96337  0.71790  1.0000
  C   C40       1.0  0.75829  0.53663  0.28210  1.0000
  S   S1        1.0  0.64150  0.01628  0.39684  1.0000
  S   S2        1.0  0.14150  0.48373  0.60317  1.0000
  S   S3        1.0  0.35850  0.98372  0.60317  1.0000
  S   S4        1.0  0.85850  0.51628  0.39683  1.0000
  O   O1        1.0  0.16545  0.75013  0.46335  1.0000
  O   O2        1.0  0.66546  0.74986  0.53665  1.0000
  O   O3        1.0  0.83455  0.24987  0.53665  1.0000
  O   O4        1.0  0.33454  0.25014  0.46335  1.0000
  O   O5        1.0  0.40031  0.63505  0.40670  1.0000
  O   O6        1.0  0.90031  0.86494  0.59330  1.0000
  O   O7        1.0  0.59969  0.36494  0.59330  1.0000
  O   O8        1.0  0.09970  0.13505  0.40670  1.0000
  O   O9        1.0  0.97893  0.82739  0.30947  1.0000
  O   O10       1.0  0.47891  0.67261  0.69054  1.0000
  O   O11       1.0  0.02109  0.17261  0.69053  1.0000
  O   O12       1.0  0.52108  0.32739  0.30947  1.0000
  O   O13       1.0  0.11091  0.62204  0.97447  1.0000
  O   O14       1.0  0.61090  0.87796  0.02553  1.0000
  O   O15       1.0  0.88909  0.37796  0.02552  1.0000
  O   O16       1.0  0.38910  0.12204  0.97447  1.0000
  O   O17       1.0  0.79599  0.98869  0.46425  1.0000
  O   O18       1.0  0.29599  0.51131  0.53575  1.0000
  O   O19       1.0  0.20401  0.01131  0.53576  1.0000
  O   O20       1.0  0.70401  0.48869  0.46425  1.0000
