data_image0
_chemical_formula_structural       Cu4H48C40N4O16
_chemical_formula_sum              "Cu4 H48 C40 N4 O16"
_cell_length_a       8.77364
_cell_length_b       13.0143
_cell_length_c       14.0991
_cell_angle_alpha    117.507
_cell_angle_beta     92.8135
_cell_angle_gamma    89.995

_space_group_name_H-M_alt    "P 1"
_space_group_IT_number       1

loop_
  _space_group_symop_operation_xyz
  'x, y, z'

loop_
  _atom_site_type_symbol
  _atom_site_label
  _atom_site_symmetry_multiplicity
  _atom_site_fract_x
  _atom_site_fract_y
  _atom_site_fract_z
  _atom_site_occupancy
  Cu  Cu1       1.0  0.92106  0.42568  0.41680  1.0000
  Cu  Cu2       1.0  0.57893  0.00877  0.58317  1.0000
  Cu  Cu3       1.0  0.07895  0.57431  0.58320  1.0000
  Cu  Cu4       1.0  0.42105  0.99124  0.41684  1.0000
  H   H1        1.0  0.49065  0.42795  0.38903  1.0000
  H   H2        1.0  0.00936  0.03862  0.61079  1.0000
  H   H3        1.0  0.50935  0.57205  0.61097  1.0000
  H   H4        1.0  0.99063  0.96138  0.38921  1.0000
  H   H5        1.0  0.38010  0.35026  0.26386  1.0000
  H   H6        1.0  0.11994  0.08621  0.73594  1.0000
  H   H7        1.0  0.61990  0.64974  0.73614  1.0000
  H   H8        1.0  0.88003  0.91379  0.26406  1.0000
  H   H9        1.0  0.41224  0.28804  0.35104  1.0000
  H   H10       1.0  0.08753  0.93673  0.64891  1.0000
  H   H11       1.0  0.58777  0.71196  0.64895  1.0000
  H   H12       1.0  0.91245  0.06327  0.35109  1.0000
  H   H13       1.0  0.05150  0.31007  0.70622  1.0000
  H   H14       1.0  0.44829  0.60356  0.29343  1.0000
  H   H15       1.0  0.94850  0.68994  0.29378  1.0000
  H   H16       1.0  0.55170  0.39645  0.70657  1.0000
  H   H17       1.0  0.12833  0.21251  0.58234  1.0000
  H   H18       1.0  0.37157  0.63034  0.41743  1.0000
  H   H19       1.0  0.87167  0.78749  0.41766  1.0000
  H   H20       1.0  0.62843  0.36966  0.58257  1.0000
  H   H21       1.0  0.92831  0.21118  0.59523  1.0000
  H   H22       1.0  0.57152  0.61576  0.40441  1.0000
  H   H23       1.0  0.07169  0.78883  0.40478  1.0000
  H   H24       1.0  0.42848  0.38424  0.59559  1.0000
  H   H25       1.0  0.78938  0.38224  0.19158  1.0000
  H   H26       1.0  0.71081  0.19081  0.80826  1.0000
  H   H27       1.0  0.21063  0.61776  0.80842  1.0000
  H   H28       1.0  0.28919  0.80919  0.19174  1.0000
  H   H29       1.0  0.60302  0.24646  0.04619  1.0000
  H   H30       1.0  0.89726  0.20075  0.95370  1.0000
  H   H31       1.0  0.39699  0.75354  0.95381  1.0000
  H   H32       1.0  0.10274  0.79924  0.04630  1.0000
  H   H33       1.0  0.56615  0.05710  0.22868  1.0000
  H   H34       1.0  0.93366  0.82865  0.77176  1.0000
  H   H35       1.0  0.43386  0.94290  0.77132  1.0000
  H   H36       1.0  0.06634  0.17134  0.22824  1.0000
  H   H37       1.0  0.74963  0.20110  0.36468  1.0000
  H   H38       1.0  0.75016  0.83633  0.63564  1.0000
  H   H39       1.0  0.25037  0.79890  0.63531  1.0000
  H   H40       1.0  0.24985  0.16367  0.36435  1.0000
  H   H41       1.0  0.36911  0.02893  0.07613  1.0000
  H   H42       1.0  0.13089  0.95306  0.92383  1.0000
  H   H43       1.0  0.63090  0.97106  0.92387  1.0000
  H   H44       1.0  0.86912  0.04693  0.07616  1.0000
  H   H45       1.0  0.40321  0.09514  0.99360  1.0000
  H   H46       1.0  0.09671  0.10177  0.00676  1.0000
  H   H47       1.0  0.59680  0.90486  0.00640  1.0000
  H   H48       1.0  0.90330  0.89823  0.99324  1.0000
  C   C1        1.0  0.24697  0.41938  0.40295  1.0000
  C   C2        1.0  0.25298  0.01592  0.59685  1.0000
  C   C3        1.0  0.75303  0.58062  0.59705  1.0000
  C   C4        1.0  0.74701  0.98409  0.40315  1.0000
  C   C5        1.0  0.39232  0.36988  0.34826  1.0000
  C   C6        1.0  0.10762  0.02127  0.65157  1.0000
  C   C7        1.0  0.60768  0.63012  0.65174  1.0000
  C   C8        1.0  0.89236  0.97873  0.34843  1.0000
  C   C9        1.0  0.01798  0.35569  0.57794  1.0000
  C   C10       1.0  0.48229  0.77765  0.42160  1.0000
  C   C11       1.0  0.98203  0.64431  0.42206  1.0000
  C   C12       1.0  0.51770  0.22236  0.57841  1.0000
  C   C13       1.0  0.03091  0.26734  0.61907  1.0000
  C   C14       1.0  0.46902  0.64818  0.38056  1.0000
  C   C15       1.0  0.96910  0.73266  0.38094  1.0000
  C   C16       1.0  0.53098  0.35182  0.61943  1.0000
  C   C17       1.0  0.73766  0.30786  0.19515  1.0000
  C   C18       1.0  0.76247  0.11289  0.80482  1.0000
  C   C19       1.0  0.26235  0.69214  0.80485  1.0000
  C   C20       1.0  0.23753  0.88711  0.19518  1.0000
  C   C21       1.0  0.63398  0.23245  0.11515  1.0000
  C   C22       1.0  0.86619  0.11763  0.88486  1.0000
  C   C23       1.0  0.36603  0.76754  0.88484  1.0000
  C   C24       1.0  0.13381  0.88237  0.11515  1.0000
  C   C25       1.0  0.56878  0.13947  0.12439  1.0000
  C   C26       1.0  0.93121  0.01539  0.87579  1.0000
  C   C27       1.0  0.43123  0.86053  0.87560  1.0000
  C   C28       1.0  0.06879  0.98461  0.12421  1.0000
  C   C29       1.0  0.61250  0.12670  0.21514  1.0000
  C   C30       1.0  0.88734  0.91177  0.78514  1.0000
  C   C31       1.0  0.38751  0.87329  0.78486  1.0000
  C   C32       1.0  0.11266  0.08823  0.21486  1.0000
  C   C33       1.0  0.71592  0.20649  0.29171  1.0000
  C   C34       1.0  0.78394  0.91483  0.70852  1.0000
  C   C35       1.0  0.28409  0.79351  0.70828  1.0000
  C   C36       1.0  0.21606  0.08517  0.29148  1.0000
  C   C37       1.0  0.45904  0.05470  0.03911  1.0000
  C   C38       1.0  0.04092  0.01579  0.96102  1.0000
  C   C39       1.0  0.54097  0.94530  0.96088  1.0000
  C   C40       1.0  0.95908  0.98420  0.03898  1.0000
  N   N1        1.0  0.77847  0.29550  0.28238  1.0000
  N   N2        1.0  0.72148  0.01315  0.71771  1.0000
  N   N3        1.0  0.22154  0.70450  0.71762  1.0000
  N   N4        1.0  0.27852  0.98684  0.28229  1.0000
  O   O1        1.0  0.12166  0.37323  0.35036  1.0000
  O   O2        1.0  0.37827  0.02215  0.64937  1.0000
  O   O3        1.0  0.87834  0.62676  0.64963  1.0000
  O   O4        1.0  0.62171  0.97783  0.35062  1.0000
  O   O5        1.0  0.26074  0.50215  0.49822  1.0000
  O   O6        1.0  0.23925  0.00356  0.50165  1.0000
  O   O7        1.0  0.73926  0.49784  0.50178  1.0000
  O   O8        1.0  0.76073  0.99646  0.49836  1.0000
  O   O9        1.0  0.94425  0.32341  0.48800  1.0000
  O   O10       1.0  0.55612  0.83526  0.51152  1.0000
  O   O11       1.0  0.05576  0.67660  0.51200  1.0000
  O   O12       1.0  0.44388  0.16474  0.48848  1.0000
  O   O13       1.0  0.08404  0.45419  0.63459  1.0000
  O   O14       1.0  0.41639  0.81956  0.36499  1.0000
  O   O15       1.0  0.91597  0.54582  0.36541  1.0000
  O   O16       1.0  0.58359  0.18045  0.63502  1.0000
