data_image0
_chemical_formula_structural       Zn4H48C56N4O20
_chemical_formula_sum              "Zn4 H48 C56 N4 O20"
_cell_length_a       7.50538
_cell_length_b       11.0128
_cell_length_c       16.5549
_cell_angle_alpha    90
_cell_angle_beta     89.9998
_cell_angle_gamma    102.475

_space_group_name_H-M_alt    "P 1"
_space_group_IT_number       1

loop_
  _space_group_symop_operation_xyz
  'x, y, z'

loop_
  _atom_site_type_symbol
  _atom_site_label
  _atom_site_symmetry_multiplicity
  _atom_site_fract_x
  _atom_site_fract_y
  _atom_site_fract_z
  _atom_site_occupancy
  Zn  Zn1       1.0  0.40846  0.97871  0.92250  1.0000
  Zn  Zn2       1.0  0.09154  0.52129  0.42249  1.0000
  Zn  Zn3       1.0  0.59154  0.02129  0.07750  1.0000
  Zn  Zn4       1.0  0.90846  0.47871  0.57750  1.0000
  H   H1        1.0  0.15513  0.86210  0.23057  1.0000
  H   H2        1.0  0.34486  0.63791  0.73057  1.0000
  H   H3        1.0  0.84487  0.13791  0.76943  1.0000
  H   H4        1.0  0.65513  0.36210  0.26943  1.0000
  H   H5        1.0  0.91818  0.69723  0.29614  1.0000
  H   H6        1.0  0.58181  0.80277  0.79614  1.0000
  H   H7        1.0  0.08182  0.30278  0.70386  1.0000
  H   H8        1.0  0.41818  0.19722  0.20386  1.0000
  H   H9        1.0  0.67010  0.57049  0.21336  1.0000
  H   H10       1.0  0.82990  0.92951  0.71336  1.0000
  H   H11       1.0  0.32991  0.42950  0.78664  1.0000
  H   H12       1.0  0.17010  0.07049  0.28664  1.0000
  H   H13       1.0  0.89584  0.77438  0.00106  1.0000
  H   H14       1.0  0.60417  0.72562  0.50106  1.0000
  H   H15       1.0  0.10417  0.22562  0.99894  1.0000
  H   H16       1.0  0.39584  0.27439  0.49894  1.0000
  H   H17       1.0  0.69542  0.41803  0.09607  1.0000
  H   H18       1.0  0.80459  0.08197  0.59607  1.0000
  H   H19       1.0  0.30460  0.58196  0.90393  1.0000
  H   H20       1.0  0.19541  0.91804  0.40393  1.0000
  H   H21       1.0  0.47725  0.17750  0.80888  1.0000
  H   H22       1.0  0.02275  0.32249  0.30888  1.0000
  H   H23       1.0  0.52275  0.82249  0.19112  1.0000
  H   H24       1.0  0.97726  0.67750  0.69112  1.0000
  H   H25       1.0  0.39350  0.27636  0.63412  1.0000
  H   H26       1.0  0.10649  0.22363  0.13411  1.0000
  H   H27       1.0  0.60649  0.72363  0.36588  1.0000
  H   H28       1.0  0.89350  0.77637  0.86588  1.0000
  H   H29       1.0  0.59401  0.22059  0.61038  1.0000
  H   H30       1.0  0.90598  0.27941  0.11038  1.0000
  H   H31       1.0  0.40598  0.77941  0.38962  1.0000
  H   H32       1.0  0.09402  0.72060  0.88962  1.0000
  H   H33       1.0  0.57565  0.29268  0.70515  1.0000
  H   H34       1.0  0.92435  0.20731  0.20514  1.0000
  H   H35       1.0  0.42435  0.70732  0.29486  1.0000
  H   H36       1.0  0.07565  0.79269  0.79485  1.0000
  H   H37       1.0  0.43045  0.99866  0.59301  1.0000
  H   H38       1.0  0.06955  0.50134  0.09302  1.0000
  H   H39       1.0  0.56954  0.00134  0.40698  1.0000
  H   H40       1.0  0.93047  0.49866  0.90699  1.0000
  H   H41       1.0  0.21250  0.03444  0.61042  1.0000
  H   H42       1.0  0.28751  0.46556  0.11042  1.0000
  H   H43       1.0  0.78750  0.96556  0.38958  1.0000
  H   H44       1.0  0.71251  0.53444  0.88958  1.0000
  H   H45       1.0  0.29070  0.92531  0.67424  1.0000
  H   H46       1.0  0.20930  0.57469  0.17425  1.0000
  H   H47       1.0  0.70930  0.07469  0.32576  1.0000
  H   H48       1.0  0.79071  0.42532  0.82576  1.0000
  C   C1        1.0  0.19040  0.91738  0.07040  1.0000
  C   C2        1.0  0.30960  0.58262  0.57040  1.0000
  C   C3        1.0  0.80960  0.08262  0.92960  1.0000
  C   C4        1.0  0.69040  0.41738  0.42960  1.0000
  C   C5        1.0  0.03855  0.82776  0.11165  1.0000
  C   C6        1.0  0.46145  0.67225  0.61165  1.0000
  C   C7        1.0  0.96145  0.17225  0.88835  1.0000
  C   C8        1.0  0.53855  0.32776  0.38835  1.0000
  C   C9        1.0  0.04407  0.80695  0.19522  1.0000
  C   C10       1.0  0.45592  0.69305  0.69522  1.0000
  C   C11       1.0  0.95593  0.19305  0.80478  1.0000
  C   C12       1.0  0.54407  0.30695  0.30477  1.0000
  C   C13       1.0  0.91162  0.71483  0.23155  1.0000
  C   C14       1.0  0.58838  0.78517  0.73155  1.0000
  C   C15       1.0  0.08839  0.28517  0.76845  1.0000
  C   C16       1.0  0.41161  0.21483  0.26845  1.0000
  C   C17       1.0  0.77299  0.64289  0.18470  1.0000
  C   C18       1.0  0.72701  0.85711  0.68470  1.0000
  C   C19       1.0  0.22702  0.35711  0.81530  1.0000
  C   C20       1.0  0.27299  0.14289  0.31530  1.0000
  C   C21       1.0  0.76375  0.66423  0.10137  1.0000
  C   C22       1.0  0.73625  0.83577  0.60137  1.0000
  C   C23       1.0  0.23626  0.33576  0.89863  1.0000
  C   C24       1.0  0.26374  0.16424  0.39863  1.0000
  C   C25       1.0  0.89771  0.75703  0.06571  1.0000
  C   C26       1.0  0.60229  0.74297  0.56571  1.0000
  C   C27       1.0  0.10230  0.24297  0.93429  1.0000
  C   C28       1.0  0.39771  0.25703  0.43429  1.0000
  C   C29       1.0  0.62345  0.58411  0.05047  1.0000
  C   C30       1.0  0.87655  0.91589  0.55047  1.0000
  C   C31       1.0  0.37656  0.41589  0.94953  1.0000
  C   C32       1.0  0.12344  0.08411  0.44953  1.0000
  C   C33       1.0  0.51035  0.62883  0.99467  1.0000
  C   C34       1.0  0.98965  0.87117  0.49467  1.0000
  C   C35       1.0  0.48967  0.37116  0.00532  1.0000
  C   C36       1.0  0.01034  0.12884  0.50532  1.0000
  C   C37       1.0  0.60855  0.45539  0.05438  1.0000
  C   C38       1.0  0.89145  0.04461  0.55438  1.0000
  C   C39       1.0  0.39146  0.54460  0.94561  1.0000
  C   C40       1.0  0.10854  0.95540  0.44561  1.0000
  C   C41       1.0  0.49937  0.76318  0.98855  1.0000
  C   C42       1.0  0.00063  0.73682  0.48854  1.0000
  C   C43       1.0  0.50064  0.23681  0.01146  1.0000
  C   C44       1.0  0.99936  0.26319  0.51145  1.0000
  C   C45       1.0  0.40697  0.09662  0.77364  1.0000
  C   C46       1.0  0.09303  0.40337  0.27363  1.0000
  C   C47       1.0  0.59303  0.90337  0.22636  1.0000
  C   C48       1.0  0.90699  0.59663  0.72636  1.0000
  C   C49       1.0  0.49922  0.23156  0.65891  1.0000
  C   C50       1.0  0.00077  0.26844  0.15891  1.0000
  C   C51       1.0  0.50077  0.76844  0.34109  1.0000
  C   C52       1.0  0.99923  0.73157  0.84109  1.0000
  C   C53       1.0  0.33211  0.01141  0.63965  1.0000
  C   C54       1.0  0.16789  0.48859  0.13965  1.0000
  C   C55       1.0  0.66788  0.98859  0.36035  1.0000
  C   C56       1.0  0.83213  0.51141  0.86035  1.0000
  N   N1        1.0  0.41684  0.11113  0.69397  1.0000
  N   N2        1.0  0.08316  0.38887  0.19397  1.0000
  N   N3        1.0  0.58316  0.88887  0.30603  1.0000
  N   N4        1.0  0.91686  0.61113  0.80602  1.0000
  O   O1        1.0  0.18479  0.92317  0.99331  1.0000
  O   O2        1.0  0.31521  0.57683  0.49331  1.0000
  O   O3        1.0  0.81521  0.07684  0.00669  1.0000
  O   O4        1.0  0.68479  0.42317  0.50669  1.0000
  O   O5        1.0  0.31795  0.97734  0.11479  1.0000
  O   O6        1.0  0.18205  0.52266  0.61479  1.0000
  O   O7        1.0  0.68206  0.02265  0.88521  1.0000
  O   O8        1.0  0.81794  0.47735  0.38520  1.0000
  O   O9        1.0  0.54877  0.83230  0.04949  1.0000
  O   O10       1.0  0.95123  0.66770  0.54949  1.0000
  O   O11       1.0  0.45124  0.16769  0.95051  1.0000
  O   O12       1.0  0.04876  0.33231  0.45051  1.0000
  O   O13       1.0  0.43439  0.79628  0.92310  1.0000
  O   O14       1.0  0.06561  0.70372  0.42309  1.0000
  O   O15       1.0  0.56561  0.20371  0.07691  1.0000
  O   O16       1.0  0.93439  0.29629  0.57691  1.0000
  O   O17       1.0  0.32399  0.99812  0.80823  1.0000
  O   O18       1.0  0.17602  0.50188  0.30823  1.0000
  O   O19       1.0  0.67602  0.00188  0.19177  1.0000
  O   O20       1.0  0.82399  0.49812  0.69176  1.0000
