data_image0
_chemical_formula_structural       Zn4H36C52N4O16
_chemical_formula_sum              "Zn4 H36 C52 N4 O16"
_cell_length_a       7.32897
_cell_length_b       10.2804
_cell_length_c       16.7865
_cell_angle_alpha    90.0001
_cell_angle_beta     90.0001
_cell_angle_gamma    105.52

_space_group_name_H-M_alt    "P 1"
_space_group_IT_number       1

loop_
  _space_group_symop_operation_xyz
  'x, y, z'

loop_
  _atom_site_type_symbol
  _atom_site_label
  _atom_site_symmetry_multiplicity
  _atom_site_fract_x
  _atom_site_fract_y
  _atom_site_fract_z
  _atom_site_occupancy
  Zn  Zn1       1.0  0.31803  0.89700  0.49255  1.0000
  Zn  Zn2       1.0  0.18198  0.60300  0.99255  1.0000
  Zn  Zn3       1.0  0.68197  0.10300  0.50745  1.0000
  Zn  Zn4       1.0  0.81803  0.39700  0.00745  1.0000
  H   H1        1.0  0.95986  0.85812  0.65470  1.0000
  H   H2        1.0  0.54016  0.64188  0.15470  1.0000
  H   H3        1.0  0.04012  0.14188  0.34530  1.0000
  H   H4        1.0  0.45987  0.35813  0.84530  1.0000
  H   H5        1.0  0.05810  0.74651  0.77266  1.0000
  H   H6        1.0  0.44190  0.75348  0.27266  1.0000
  H   H7        1.0  0.94188  0.25348  0.22733  1.0000
  H   H8        1.0  0.55811  0.24652  0.72733  1.0000
  H   H9        1.0  0.47341  0.57283  0.83427  1.0000
  H   H10       1.0  0.02659  0.92718  0.33427  1.0000
  H   H11       1.0  0.52658  0.42717  0.16573  1.0000
  H   H12       1.0  0.97342  0.07282  0.66573  1.0000
  H   H13       1.0  0.37425  0.68464  0.71610  1.0000
  H   H14       1.0  0.12577  0.81537  0.21610  1.0000
  H   H15       1.0  0.62574  0.31535  0.28391  1.0000
  H   H16       1.0  0.87425  0.18464  0.78391  1.0000
  H   H17       1.0  0.90376  0.82518  0.52008  1.0000
  H   H18       1.0  0.59625  0.67483  0.02008  1.0000
  H   H19       1.0  0.09625  0.17483  0.47993  1.0000
  H   H20       1.0  0.40376  0.32518  0.97992  1.0000
  H   H21       1.0  0.61997  0.63660  0.48649  1.0000
  H   H22       1.0  0.88003  0.86341  0.98649  1.0000
  H   H23       1.0  0.38003  0.36342  0.51351  1.0000
  H   H24       1.0  0.11997  0.13659  0.01351  1.0000
  H   H25       1.0  0.66625  0.44130  0.40420  1.0000
  H   H26       1.0  0.83374  0.05871  0.90420  1.0000
  H   H27       1.0  0.33373  0.55871  0.59580  1.0000
  H   H28       1.0  0.16625  0.94129  0.09580  1.0000
  H   H29       1.0  0.99357  0.44975  0.35674  1.0000
  H   H30       1.0  0.50643  0.05024  0.85674  1.0000
  H   H31       1.0  0.00641  0.55025  0.64325  1.0000
  H   H32       1.0  0.49357  0.94975  0.14326  1.0000
  H   H33       1.0  0.26255  0.64715  0.39676  1.0000
  H   H34       1.0  0.23745  0.85284  0.89676  1.0000
  H   H35       1.0  0.73743  0.35285  0.60324  1.0000
  H   H36       1.0  0.76255  0.14715  0.10324  1.0000
  C   C1        1.0  0.66038  0.77763  0.67782  1.0000
  C   C2        1.0  0.83964  0.72238  0.17782  1.0000
  C   C3        1.0  0.33961  0.22237  0.32218  1.0000
  C   C4        1.0  0.16038  0.27763  0.82218  1.0000
  C   C5        1.0  0.85344  0.79476  0.69365  1.0000
  C   C6        1.0  0.64657  0.70524  0.19365  1.0000
  C   C7        1.0  0.14655  0.20524  0.30635  1.0000
  C   C8        1.0  0.35345  0.29476  0.80635  1.0000
  C   C9        1.0  0.90850  0.73247  0.75943  1.0000
  C   C10       1.0  0.59151  0.76753  0.25943  1.0000
  C   C11       1.0  0.09149  0.26752  0.24057  1.0000
  C   C12       1.0  0.40851  0.23248  0.74057  1.0000
  C   C13       1.0  0.77205  0.65201  0.81017  1.0000
  C   C14       1.0  0.72795  0.84799  0.31016  1.0000
  C   C15       1.0  0.22794  0.34798  0.18983  1.0000
  C   C16       1.0  0.27206  0.15202  0.68983  1.0000
  C   C17       1.0  0.57912  0.63368  0.79406  1.0000
  C   C18       1.0  0.92088  0.86632  0.29406  1.0000
  C   C19       1.0  0.42086  0.36631  0.20595  1.0000
  C   C20       1.0  0.07913  0.13368  0.70595  1.0000
  C   C21       1.0  0.52391  0.69621  0.72817  1.0000
  C   C22       1.0  0.97610  0.80380  0.22817  1.0000
  C   C23       1.0  0.47608  0.30378  0.27183  1.0000
  C   C24       1.0  0.02391  0.19621  0.77183  1.0000
  C   C25       1.0  0.60238  0.84985  0.60873  1.0000
  C   C26       1.0  0.89763  0.65015  0.10873  1.0000
  C   C27       1.0  0.39760  0.15014  0.39128  1.0000
  C   C28       1.0  0.10239  0.34986  0.89127  1.0000
  C   C29       1.0  0.83444  0.59002  0.88238  1.0000
  C   C30       1.0  0.66556  0.90998  0.38237  1.0000
  C   C31       1.0  0.16555  0.40997  0.11763  1.0000
  C   C32       1.0  0.33445  0.09002  0.61763  1.0000
  C   C33       1.0  0.91658  0.73865  0.48521  1.0000
  C   C34       1.0  0.58343  0.76135  0.98521  1.0000
  C   C35       1.0  0.08342  0.26135  0.51479  1.0000
  C   C36       1.0  0.41658  0.23865  0.01479  1.0000
  C   C37       1.0  0.75953  0.63327  0.46583  1.0000
  C   C38       1.0  0.74047  0.86674  0.96583  1.0000
  C   C39       1.0  0.24046  0.36674  0.53417  1.0000
  C   C40       1.0  0.25953  0.13326  0.03417  1.0000
  C   C41       1.0  0.78498  0.52701  0.41935  1.0000
  C   C42       1.0  0.71502  0.97299  0.91935  1.0000
  C   C43       1.0  0.21501  0.47300  0.58065  1.0000
  C   C44       1.0  0.28498  0.02701  0.08065  1.0000
  C   C45       1.0  0.96702  0.53046  0.39324  1.0000
  C   C46       1.0  0.53297  0.96954  0.89324  1.0000
  C   C47       1.0  0.03296  0.46955  0.60675  1.0000
  C   C48       1.0  0.46702  0.03045  0.10676  1.0000
  C   C49       1.0  0.11727  0.63867  0.41532  1.0000
  C   C50       1.0  0.38273  0.86133  0.91532  1.0000
  C   C51       1.0  0.88272  0.36133  0.58467  1.0000
  C   C52       1.0  0.61727  0.13867  0.08468  1.0000
  N   N1        1.0  0.09240  0.74061  0.46088  1.0000
  N   N2        1.0  0.40760  0.75939  0.96088  1.0000
  N   N3        1.0  0.90759  0.25939  0.53911  1.0000
  N   N4        1.0  0.59240  0.24061  0.03912  1.0000
  O   O1        1.0  0.43708  0.80127  0.57998  1.0000
  O   O2        1.0  0.06294  0.69874  0.07999  1.0000
  O   O3        1.0  0.56291  0.19872  0.42002  1.0000
  O   O4        1.0  0.93709  0.30127  0.92002  1.0000
  O   O5        1.0  0.72440  0.95492  0.58380  1.0000
  O   O6        1.0  0.77562  0.54508  0.08380  1.0000
  O   O7        1.0  0.27558  0.04507  0.41620  1.0000
  O   O8        1.0  0.22441  0.45494  0.91619  1.0000
  O   O9        1.0  0.00267  0.64365  0.90646  1.0000
  O   O10       1.0  0.49733  0.85634  0.40646  1.0000
  O   O11       1.0  0.99732  0.35634  0.09354  1.0000
  O   O12       1.0  0.50267  0.14366  0.59354  1.0000
  O   O13       1.0  0.71693  0.48974  0.91476  1.0000
  O   O14       1.0  0.78306  0.01026  0.41476  1.0000
  O   O15       1.0  0.28306  0.51025  0.08524  1.0000
  O   O16       1.0  0.21694  0.98974  0.58524  1.0000
