data_image0
_chemical_formula_structural       Cu4H28C48S4N8
_chemical_formula_sum              "Cu4 H28 C48 S4 N8"
_cell_length_a       3.77708
_cell_length_b       12.7306
_cell_length_c       19.0327
_cell_angle_alpha    90
_cell_angle_beta     89.9999
_cell_angle_gamma    93.8512

_space_group_name_H-M_alt    "P 1"
_space_group_IT_number       1

loop_
  _space_group_symop_operation_xyz
  'x, y, z'

loop_
  _atom_site_type_symbol
  _atom_site_label
  _atom_site_symmetry_multiplicity
  _atom_site_fract_x
  _atom_site_fract_y
  _atom_site_fract_z
  _atom_site_occupancy
  Cu  Cu1       1.0  0.58432  0.02544  0.42759  1.0000
  Cu  Cu2       1.0  0.41566  0.47456  0.92759  1.0000
  Cu  Cu3       1.0  0.41568  0.97455  0.57241  1.0000
  Cu  Cu4       1.0  0.58434  0.52544  0.07241  1.0000
  H   H1        1.0  0.28464  0.02745  0.26602  1.0000
  H   H2        1.0  0.71535  0.47255  0.76602  1.0000
  H   H3        1.0  0.71538  0.97255  0.73397  1.0000
  H   H4        1.0  0.28465  0.52745  0.23397  1.0000
  H   H5        1.0  0.23131  0.16789  0.17441  1.0000
  H   H6        1.0  0.76868  0.33211  0.67441  1.0000
  H   H7        1.0  0.76868  0.83212  0.82559  1.0000
  H   H8        1.0  0.23132  0.66789  0.32559  1.0000
  H   H9        1.0  0.49601  0.34935  0.19794  1.0000
  H   H10       1.0  0.50397  0.15065  0.69794  1.0000
  H   H11       1.0  0.50397  0.65065  0.80206  1.0000
  H   H12       1.0  0.49604  0.84935  0.30206  1.0000
  H   H13       1.0  0.82767  0.47396  0.28373  1.0000
  H   H14       1.0  0.17233  0.02604  0.78373  1.0000
  H   H15       1.0  0.17233  0.52604  0.71627  1.0000
  H   H16       1.0  0.82769  0.97396  0.21627  1.0000
  H   H17       1.0  0.13607  0.50178  0.39808  1.0000
  H   H18       1.0  0.86391  0.99822  0.89808  1.0000
  H   H19       1.0  0.86393  0.49821  0.60192  1.0000
  H   H20       1.0  0.13608  0.00179  0.10192  1.0000
  H   H21       1.0  0.30925  0.42874  0.51767  1.0000
  H   H22       1.0  0.69072  0.07126  0.01767  1.0000
  H   H23       1.0  0.69076  0.57125  0.48233  1.0000
  H   H24       1.0  0.30924  0.92875  0.98233  1.0000
  H   H25       1.0  0.27114  0.27685  0.60089  1.0000
  H   H26       1.0  0.72885  0.22315  0.10089  1.0000
  H   H27       1.0  0.72887  0.72314  0.39911  1.0000
  H   H28       1.0  0.27112  0.77686  0.89911  1.0000
  C   C1        1.0  0.39216  0.10794  0.27514  1.0000
  C   C2        1.0  0.60783  0.39206  0.77514  1.0000
  C   C3        1.0  0.60785  0.89206  0.72486  1.0000
  C   C4        1.0  0.39218  0.60794  0.22486  1.0000
  C   C5        1.0  0.36578  0.18657  0.22397  1.0000
  C   C6        1.0  0.63420  0.31343  0.72397  1.0000
  C   C7        1.0  0.63422  0.81343  0.77603  1.0000
  C   C8        1.0  0.36580  0.68657  0.27603  1.0000
  C   C9        1.0  0.50953  0.28754  0.23740  1.0000
  C   C10       1.0  0.49046  0.21246  0.73740  1.0000
  C   C11       1.0  0.49046  0.71246  0.76260  1.0000
  C   C12       1.0  0.50955  0.78754  0.26260  1.0000
  C   C13       1.0  0.67516  0.30943  0.30285  1.0000
  C   C14       1.0  0.32483  0.19057  0.80285  1.0000
  C   C15       1.0  0.32484  0.69056  0.69715  1.0000
  C   C16       1.0  0.67518  0.80943  0.19716  1.0000
  C   C17       1.0  0.68157  0.22526  0.35186  1.0000
  C   C18       1.0  0.31843  0.27474  0.85186  1.0000
  C   C19       1.0  0.31844  0.77473  0.64814  1.0000
  C   C20       1.0  0.68158  0.72526  0.14814  1.0000
  C   C21       1.0  0.83613  0.41010  0.32163  1.0000
  C   C22       1.0  0.16386  0.08990  0.82163  1.0000
  C   C23       1.0  0.16388  0.58990  0.67837  1.0000
  C   C24       1.0  0.83615  0.91010  0.17837  1.0000
  C   C25       1.0  0.00275  0.42553  0.38525  1.0000
  C   C26       1.0  0.99723  0.07447  0.88525  1.0000
  C   C27       1.0  0.99725  0.57447  0.61475  1.0000
  C   C28       1.0  0.00276  0.92553  0.11475  1.0000
  C   C29       1.0  0.00669  0.34325  0.43604  1.0000
  C   C30       1.0  0.99329  0.15675  0.93604  1.0000
  C   C31       1.0  0.99332  0.65675  0.56396  1.0000
  C   C32       1.0  0.00670  0.84326  0.06396  1.0000
  C   C33       1.0  0.83634  0.24326  0.42017  1.0000
  C   C34       1.0  0.16365  0.25674  0.92017  1.0000
  C   C35       1.0  0.16367  0.75674  0.57983  1.0000
  C   C36       1.0  0.83635  0.74326  0.07983  1.0000
  C   C37       1.0  0.16967  0.35416  0.50306  1.0000
  C   C38       1.0  0.83031  0.14584  0.00306  1.0000
  C   C39       1.0  0.83035  0.64583  0.49694  1.0000
  C   C40       1.0  0.16966  0.85417  0.99694  1.0000
  C   C41       1.0  0.14859  0.27076  0.54916  1.0000
  C   C42       1.0  0.85140  0.22924  0.04916  1.0000
  C   C43       1.0  0.85142  0.72923  0.45084  1.0000
  C   C44       1.0  0.14858  0.77077  0.95084  1.0000
  C   C45       1.0  0.95985  0.17423  0.53053  1.0000
  C   C46       1.0  0.04015  0.32577  0.03053  1.0000
  C   C47       1.0  0.04016  0.82576  0.46947  1.0000
  C   C48       1.0  0.95984  0.67424  0.96947  1.0000
  S   S1        1.0  0.91970  0.07146  0.59017  1.0000
  S   S2        1.0  0.08032  0.42854  0.09017  1.0000
  S   S3        1.0  0.08031  0.92853  0.40983  1.0000
  S   S4        1.0  0.91968  0.57147  0.90983  1.0000
  N   N1        1.0  0.54716  0.12607  0.33726  1.0000
  N   N2        1.0  0.45283  0.37393  0.83726  1.0000
  N   N3        1.0  0.45286  0.87393  0.66274  1.0000
  N   N4        1.0  0.54718  0.62607  0.16274  1.0000
  N   N5        1.0  0.80763  0.16219  0.46661  1.0000
  N   N6        1.0  0.19236  0.33781  0.96661  1.0000
  N   N7        1.0  0.19238  0.83781  0.53338  1.0000
  N   N8        1.0  0.80763  0.66219  0.03339  1.0000
