data_image0
_chemical_formula_structural       Mn2H28C24N20
_chemical_formula_sum              "Mn2 H28 C24 N20"
_cell_length_a       7.75221
_cell_length_b       9.51405
_cell_length_c       11.7074
_cell_angle_alpha    103.342
_cell_angle_beta     106.46
_cell_angle_gamma    105.634

_space_group_name_H-M_alt    "P 1"
_space_group_IT_number       1

loop_
  _space_group_symop_operation_xyz
  'x, y, z'

loop_
  _atom_site_type_symbol
  _atom_site_label
  _atom_site_symmetry_multiplicity
  _atom_site_fract_x
  _atom_site_fract_y
  _atom_site_fract_z
  _atom_site_occupancy
  Mn  Mn1       1.0  0.18891  0.07648  0.45655  1.0000
  Mn  Mn2       1.0  0.81109  0.92356  0.54345  1.0000
  H   H1        1.0  0.35648  0.66384  0.53381  1.0000
  H   H2        1.0  0.64352  0.33615  0.46619  1.0000
  H   H3        1.0  0.36669  0.85970  0.72059  1.0000
  H   H4        1.0  0.63332  0.14030  0.27941  1.0000
  H   H5        1.0  0.05733  0.49372  0.82597  1.0000
  H   H6        1.0  0.94266  0.50628  0.17403  1.0000
  H   H7        1.0  0.04697  0.29928  0.64015  1.0000
  H   H8        1.0  0.95302  0.70072  0.35986  1.0000
  H   H9        1.0  0.27787  0.92541  0.89891  1.0000
  H   H10       1.0  0.72214  0.07459  0.10109  1.0000
  H   H11       1.0  0.35298  0.81243  0.99008  1.0000
  H   H12       1.0  0.64703  0.18757  0.00993  1.0000
  H   H13       1.0  0.10487  0.78286  0.92522  1.0000
  H   H14       1.0  0.89514  0.21714  0.07478  1.0000
  H   H15       1.0  0.27779  0.14944  0.02738  1.0000
  H   H16       1.0  0.72218  0.85054  0.97262  1.0000
  H   H17       1.0  0.16765  0.93202  0.14308  1.0000
  H   H18       1.0  0.83235  0.06799  0.85694  1.0000
  H   H19       1.0  0.35436  0.54141  0.25801  1.0000
  H   H20       1.0  0.64564  0.45858  0.74198  1.0000
  H   H21       1.0  0.51090  0.47658  0.19430  1.0000
  H   H22       1.0  0.48909  0.52340  0.80569  1.0000
  H   H23       1.0  0.31802  0.57790  0.04948  1.0000
  H   H24       1.0  0.68198  0.42208  0.95051  1.0000
  H   H25       1.0  0.09895  0.43923  0.03530  1.0000
  H   H26       1.0  0.90105  0.56077  0.96469  1.0000
  H   H27       1.0  0.26293  0.37797  0.97449  1.0000
  H   H28       1.0  0.73705  0.62201  0.02551  1.0000
  C   C1        1.0  0.20589  0.46958  0.57774  1.0000
  C   C2        1.0  0.79412  0.53042  0.42226  1.0000
  C   C3        1.0  0.29203  0.62849  0.59881  1.0000
  C   C4        1.0  0.70798  0.37150  0.40120  1.0000
  C   C5        1.0  0.29787  0.73665  0.70347  1.0000
  C   C6        1.0  0.70214  0.26334  0.29653  1.0000
  C   C7        1.0  0.21965  0.69100  0.78970  1.0000
  C   C8        1.0  0.78036  0.30900  0.21030  1.0000
  C   C9        1.0  0.12624  0.53219  0.76374  1.0000
  C   C10       1.0  0.87376  0.46781  0.23626  1.0000
  C   C11       1.0  0.12049  0.42218  0.66002  1.0000
  C   C12       1.0  0.87951  0.57782  0.33998  1.0000
  C   C13       1.0  0.23921  0.80934  0.90679  1.0000
  C   C14       1.0  0.76080  0.19066  0.09322  1.0000
  C   C15       1.0  0.23995  0.28066  0.29655  1.0000
  C   C16       1.0  0.76006  0.71936  0.70345  1.0000
  C   C17       1.0  0.25377  0.16232  0.11557  1.0000
  C   C18       1.0  0.74621  0.83766  0.88443  1.0000
  C   C19       1.0  0.19890  0.05575  0.17400  1.0000
  C   C20       1.0  0.80111  0.94425  0.82601  1.0000
  C   C21       1.0  0.35850  0.45465  0.17990  1.0000
  C   C22       1.0  0.64150  0.54534  0.82009  1.0000
  C   C23       1.0  0.25204  0.46156  0.05184  1.0000
  C   C24       1.0  0.74795  0.53843  0.94815  1.0000
  N   N1        1.0  0.19883  0.35244  0.47701  1.0000
  N   N2        1.0  0.80117  0.64756  0.52299  1.0000
  N   N3        1.0  0.24821  0.39843  0.39244  1.0000
  N   N4        1.0  0.75180  0.60158  0.60756  1.0000
  N   N5        1.0  0.19056  0.12999  0.28571  1.0000
  N   N6        1.0  0.80944  0.87001  0.71429  1.0000
  N   N7        1.0  0.27947  0.30390  0.19408  1.0000
  N   N8        1.0  0.72052  0.69609  0.80591  1.0000
  N   N9        1.0  0.48212  0.19782  0.57386  1.0000
  N   N10       1.0  0.51788  0.80221  0.42613  1.0000
  N   N11       1.0  0.61785  0.15916  0.59734  1.0000
  N   N12       1.0  0.38213  0.84086  0.40266  1.0000
  N   N13       1.0  0.75816  0.12697  0.62323  1.0000
  N   N14       1.0  0.24182  0.87303  0.37678  1.0000
  N   N15       1.0  0.12663  0.04636  0.62073  1.0000
  N   N16       1.0  0.87338  0.95367  0.37926  1.0000
  N   N17       1.0  0.23056  0.10720  0.73041  1.0000
  N   N18       1.0  0.76946  0.89281  0.26958  1.0000
  N   N19       1.0  0.33124  0.16560  0.83680  1.0000
  N   N20       1.0  0.66878  0.83440  0.16319  1.0000
