data_image0
_chemical_formula_structural       Zn2H34C54N12O12
_chemical_formula_sum              "Zn2 H34 C54 N12 O12"
_cell_length_a       8.79432
_cell_length_b       12.101
_cell_length_c       12.7789
_cell_angle_alpha    99.6307
_cell_angle_beta     93.6132
_cell_angle_gamma    105.329

_space_group_name_H-M_alt    "P 1"
_space_group_IT_number       1

loop_
  _space_group_symop_operation_xyz
  'x, y, z'

loop_
  _atom_site_type_symbol
  _atom_site_label
  _atom_site_symmetry_multiplicity
  _atom_site_fract_x
  _atom_site_fract_y
  _atom_site_fract_z
  _atom_site_occupancy
  Zn  Zn1       1.0  0.82555  0.33979  0.06004  1.0000
  Zn  Zn2       1.0  0.17443  0.66020  0.93994  1.0000
  H   H1        1.0  0.77448  0.10133  0.40869  1.0000
  H   H2        1.0  0.22552  0.89868  0.59131  1.0000
  H   H3        1.0  0.02825  0.70099  0.59532  1.0000
  H   H4        1.0  0.97176  0.29902  0.40468  1.0000
  H   H5        1.0  0.06014  0.61453  0.24520  1.0000
  H   H6        1.0  0.93986  0.38547  0.75479  1.0000
  H   H7        1.0  0.95316  0.93867  0.23822  1.0000
  H   H8        1.0  0.04685  0.06134  0.76177  1.0000
  H   H9        1.0  0.84822  0.77060  0.50646  1.0000
  H   H10       1.0  0.15178  0.22940  0.49353  1.0000
  H   H11       1.0  0.80815  0.49787  0.87636  1.0000
  H   H12       1.0  0.19183  0.50212  0.12365  1.0000
  H   H13       1.0  0.71832  0.70053  0.92508  1.0000
  H   H14       1.0  0.28168  0.29947  0.07493  1.0000
  H   H15       1.0  0.65820  0.51758  0.18315  1.0000
  H   H16       1.0  0.34181  0.48242  0.81686  1.0000
  H   H17       1.0  0.68654  0.84964  0.03211  1.0000
  H   H18       1.0  0.31344  0.15035  0.96789  1.0000
  H   H19       1.0  0.47492  0.96434  0.30836  1.0000
  H   H20       1.0  0.52509  0.03566  0.69165  1.0000
  H   H21       1.0  0.51537  0.61331  0.24559  1.0000
  H   H22       1.0  0.48464  0.38668  0.75443  1.0000
  H   H23       1.0  0.79785  0.06429  0.05934  1.0000
  H   H24       1.0  0.20213  0.93571  0.94067  1.0000
  H   H25       1.0  0.49421  0.27176  0.14898  1.0000
  H   H26       1.0  0.50577  0.72823  0.85102  1.0000
  H   H27       1.0  0.36652  0.05275  0.19779  1.0000
  H   H28       1.0  0.63347  0.94723  0.80221  1.0000
  H   H29       1.0  0.51735  0.63078  0.42760  1.0000
  H   H30       1.0  0.48267  0.36923  0.57241  1.0000
  H   H31       1.0  0.38022  0.68216  0.61276  1.0000
  H   H32       1.0  0.61979  0.31785  0.38725  1.0000
  H   H33       1.0  0.31329  0.91090  0.41185  1.0000
  H   H34       1.0  0.68670  0.08910  0.58815  1.0000
  C   C1        1.0  0.88112  0.42503  0.27606  1.0000
  C   C2        1.0  0.11887  0.57497  0.72395  1.0000
  C   C3        1.0  0.95863  0.47007  0.38921  1.0000
  C   C4        1.0  0.04137  0.52993  0.61078  1.0000
  C   C5        1.0  0.97132  0.58514  0.44201  1.0000
  C   C6        1.0  0.02868  0.41486  0.55798  1.0000
  C   C7        1.0  0.01109  0.61169  0.55317  1.0000
  C   C8        1.0  0.98891  0.38831  0.44682  1.0000
  C   C9        1.0  0.95594  0.67873  0.38394  1.0000
  C   C10       1.0  0.04406  0.32127  0.61605  1.0000
  C   C11       1.0  0.01127  0.68278  0.28335  1.0000
  C   C12       1.0  0.98874  0.31723  0.71664  1.0000
  C   C13       1.0  0.00860  0.77473  0.23032  1.0000
  C   C14       1.0  0.99140  0.22528  0.76968  1.0000
  C   C15       1.0  0.95259  0.86629  0.27866  1.0000
  C   C16       1.0  0.04742  0.13371  0.72133  1.0000
  C   C17       1.0  0.89414  0.86304  0.37768  1.0000
  C   C18       1.0  0.10586  0.13696  0.62231  1.0000
  C   C19       1.0  0.89538  0.76990  0.42955  1.0000
  C   C20       1.0  0.10463  0.23010  0.57045  1.0000
  C   C21       1.0  0.06120  0.77439  0.12018  1.0000
  C   C22       1.0  0.93880  0.22562  0.87981  1.0000
  C   C23       1.0  0.82491  0.95591  0.42903  1.0000
  C   C24       1.0  0.17512  0.04411  0.57097  1.0000
  C   C25       1.0  0.75774  0.53056  0.94614  1.0000
  C   C26       1.0  0.24225  0.46943  0.05387  1.0000
  C   C27       1.0  0.71316  0.63129  0.96942  1.0000
  C   C28       1.0  0.28683  0.36871  0.03059  1.0000
  C   C29       1.0  0.67882  0.53755  0.10492  1.0000
  C   C30       1.0  0.32118  0.46245  0.89509  1.0000
  C   C31       1.0  0.60678  0.72216  0.13213  1.0000
  C   C32       1.0  0.39322  0.27785  0.86788  1.0000
  C   C33       1.0  0.62682  0.83010  0.10142  1.0000
  C   C34       1.0  0.37317  0.16990  0.89858  1.0000
  C   C35       1.0  0.56867  0.91310  0.16285  1.0000
  C   C36       1.0  0.43133  0.08689  0.83715  1.0000
  C   C37       1.0  0.50306  0.89342  0.25649  1.0000
  C   C38       1.0  0.49695  0.10658  0.74352  1.0000
  C   C39       1.0  0.48750  0.78608  0.28731  1.0000
  C   C40       1.0  0.51250  0.21392  0.71271  1.0000
  C   C41       1.0  0.53422  0.69835  0.22348  1.0000
  C   C42       1.0  0.46580  0.30165  0.77653  1.0000
  C   C43       1.0  0.69761  0.09036  0.08991  1.0000
  C   C44       1.0  0.30238  0.90963  0.91009  1.0000
  C   C45       1.0  0.53531  0.19443  0.13616  1.0000
  C   C46       1.0  0.46468  0.80556  0.86384  1.0000
  C   C47       1.0  0.47437  0.08880  0.16399  1.0000
  C   C48       1.0  0.52562  0.91118  0.83601  1.0000
  C   C49       1.0  0.45313  0.69426  0.45094  1.0000
  C   C50       1.0  0.54689  0.30574  0.54908  1.0000
  C   C51       1.0  0.38864  0.72303  0.54307  1.0000
  C   C52       1.0  0.61137  0.27697  0.45694  1.0000
  C   C53       1.0  0.35166  0.84231  0.44092  1.0000
  C   C54       1.0  0.64835  0.15769  0.55908  1.0000
  N   N1        1.0  0.73582  0.47310  0.03166  1.0000
  N   N2        1.0  0.26418  0.52690  0.96834  1.0000
  N   N3        1.0  0.66211  0.63479  0.07074  1.0000
  N   N4        1.0  0.33790  0.36521  0.92927  1.0000
  N   N5        1.0  0.57903  0.02337  0.13514  1.0000
  N   N6        1.0  0.42098  0.97662  0.86486  1.0000
  N   N7        1.0  0.67299  0.19408  0.08964  1.0000
  N   N8        1.0  0.32701  0.80591  0.91035  1.0000
  N   N9        1.0  0.42915  0.77112  0.38579  1.0000
  N   N10       1.0  0.57086  0.22888  0.61423  1.0000
  N   N11       1.0  0.32576  0.81566  0.53548  1.0000
  N   N12       1.0  0.67424  0.18434  0.46452  1.0000
  O   O1        1.0  0.73465  0.41363  0.26207  1.0000
  O   O2        1.0  0.26534  0.58635  0.73793  1.0000
  O   O3        1.0  0.96499  0.39780  0.20139  1.0000
  O   O4        1.0  0.03498  0.60220  0.79860  1.0000
  O   O5        1.0  0.09460  0.67905  0.07867  1.0000
  O   O6        1.0  0.90538  0.32095  0.92132  1.0000
  O   O7        1.0  0.06664  0.85940  0.07542  1.0000
  O   O8        1.0  0.93334  0.14059  0.92457  1.0000
  O   O9        1.0  0.83570  0.04339  0.37586  1.0000
  O   O10       1.0  0.16431  0.95662  0.62413  1.0000
  O   O11       1.0  0.76208  0.94917  0.51243  1.0000
  O   O12       1.0  0.23793  0.05084  0.48757  1.0000
