data_image0
_chemical_formula_structural       Ag4H44C52S4N12O12F12
_chemical_formula_sum              "Ag4 H44 C52 S4 N12 O12 F12"
_cell_length_a       6.6942
_cell_length_b       14.6091
_cell_length_c       16.2118
_cell_angle_alpha    90.0006
_cell_angle_beta     102.736
_cell_angle_gamma    89.9992

_space_group_name_H-M_alt    "P 1"
_space_group_IT_number       1

loop_
  _space_group_symop_operation_xyz
  'x, y, z'

loop_
  _atom_site_type_symbol
  _atom_site_label
  _atom_site_symmetry_multiplicity
  _atom_site_fract_x
  _atom_site_fract_y
  _atom_site_fract_z
  _atom_site_occupancy
  Ag  Ag1       1.0  0.15303  0.80185  0.83970  1.0000
  Ag  Ag2       1.0  0.34698  0.30185  0.66030  1.0000
  Ag  Ag3       1.0  0.84697  0.19815  0.16031  1.0000
  Ag  Ag4       1.0  0.65304  0.69815  0.33970  1.0000
  H   H1        1.0  0.10262  0.13438  0.88839  1.0000
  H   H2        1.0  0.39738  0.63438  0.61161  1.0000
  H   H3        1.0  0.89739  0.86562  0.11161  1.0000
  H   H4        1.0  0.60260  0.36562  0.38839  1.0000
  H   H5        1.0  0.36449  0.14634  0.20000  1.0000
  H   H6        1.0  0.13549  0.64633  0.30000  1.0000
  H   H7        1.0  0.63549  0.85366  0.80000  1.0000
  H   H8        1.0  0.86450  0.35367  0.70000  1.0000
  H   H9        1.0  0.22658  0.99706  0.96274  1.0000
  H   H10       1.0  0.27342  0.49706  0.53725  1.0000
  H   H11       1.0  0.77343  0.00294  0.03726  1.0000
  H   H12       1.0  0.72656  0.50294  0.46274  1.0000
  H   H13       1.0  0.24058  0.28739  0.12553  1.0000
  H   H14       1.0  0.25940  0.78739  0.37447  1.0000
  H   H15       1.0  0.75940  0.71261  0.87447  1.0000
  H   H16       1.0  0.74060  0.21261  0.62553  1.0000
  H   H17       1.0  0.91513  0.36087  0.84710  1.0000
  H   H18       1.0  0.58486  0.86087  0.65290  1.0000
  H   H19       1.0  0.08486  0.63913  0.15290  1.0000
  H   H20       1.0  0.41513  0.13913  0.34710  1.0000
  H   H21       1.0  0.12752  0.29019  0.83713  1.0000
  H   H22       1.0  0.37248  0.79019  0.66286  1.0000
  H   H23       1.0  0.87249  0.70981  0.16287  1.0000
  H   H24       1.0  0.62751  0.20981  0.33713  1.0000
  H   H25       1.0  0.89245  0.23940  0.84474  1.0000
  H   H26       1.0  0.60755  0.73940  0.65525  1.0000
  H   H27       1.0  0.10756  0.76059  0.15526  1.0000
  H   H28       1.0  0.39244  0.26060  0.34474  1.0000
  H   H29       1.0  0.93402  0.42628  0.96109  1.0000
  H   H30       1.0  0.56597  0.92627  0.53890  1.0000
  H   H31       1.0  0.06598  0.57373  0.03890  1.0000
  H   H32       1.0  0.43402  0.07373  0.46109  1.0000
  H   H33       1.0  0.95799  0.36365  0.05709  1.0000
  H   H34       1.0  0.54200  0.86365  0.44291  1.0000
  H   H35       1.0  0.04200  0.63635  0.94291  1.0000
  H   H36       1.0  0.45799  0.13635  0.55708  1.0000
  H   H37       1.0  0.17873  0.41410  0.03163  1.0000
  H   H38       1.0  0.32127  0.91409  0.46836  1.0000
  H   H39       1.0  0.82127  0.58591  0.96836  1.0000
  H   H40       1.0  0.67872  0.08591  0.53163  1.0000
  H   H41       1.0  0.43132  0.99519  0.20627  1.0000
  H   H42       1.0  0.06867  0.49518  0.29373  1.0000
  H   H43       1.0  0.56868  0.00481  0.79373  1.0000
  H   H44       1.0  0.93132  0.50481  0.70627  1.0000
  C   C1        1.0  0.14794  0.22190  0.00079  1.0000
  C   C2        1.0  0.35206  0.72190  0.49921  1.0000
  C   C3        1.0  0.85207  0.77810  0.99922  1.0000
  C   C4        1.0  0.64794  0.27810  0.50078  1.0000
  C   C5        1.0  0.30326  0.05898  0.08916  1.0000
  C   C6        1.0  0.19673  0.55898  0.41084  1.0000
  C   C7        1.0  0.69675  0.94102  0.91084  1.0000
  C   C8        1.0  0.80325  0.44102  0.58916  1.0000
  C   C9        1.0  0.12142  0.00838  0.63942  1.0000
  C   C10       1.0  0.37857  0.50839  0.86059  1.0000
  C   C11       1.0  0.87858  0.99162  0.36058  1.0000
  C   C12       1.0  0.62143  0.49162  0.13941  1.0000
  C   C13       1.0  0.38039  0.98247  0.13862  1.0000
  C   C14       1.0  0.11961  0.48247  0.36139  1.0000
  C   C15       1.0  0.61962  0.01753  0.86139  1.0000
  C   C16       1.0  0.88038  0.51753  0.63861  1.0000
  C   C17       1.0  0.15625  0.13765  0.95679  1.0000
  C   C18       1.0  0.34375  0.63765  0.54321  1.0000
  C   C19       1.0  0.84376  0.86235  0.04321  1.0000
  C   C20       1.0  0.65624  0.36235  0.45679  1.0000
  C   C21       1.0  0.30303  0.14434  0.13192  1.0000
  C   C22       1.0  0.19696  0.64434  0.36808  1.0000
  C   C23       1.0  0.69697  0.85566  0.86808  1.0000
  C   C24       1.0  0.80303  0.35566  0.63192  1.0000
  C   C25       1.0  0.22798  0.05921  0.99973  1.0000
  C   C26       1.0  0.27202  0.55921  0.50027  1.0000
  C   C27       1.0  0.77203  0.94079  0.00027  1.0000
  C   C28       1.0  0.72796  0.44079  0.49973  1.0000
  C   C29       1.0  0.48279  0.82690  0.17859  1.0000
  C   C30       1.0  0.01721  0.32690  0.32141  1.0000
  C   C31       1.0  0.51722  0.17310  0.82141  1.0000
  C   C32       1.0  0.98278  0.67310  0.67859  1.0000
  C   C33       1.0  0.22844  0.22344  0.09030  1.0000
  C   C34       1.0  0.27154  0.72343  0.40970  1.0000
  C   C35       1.0  0.77155  0.77656  0.90970  1.0000
  C   C36       1.0  0.72845  0.27656  0.59029  1.0000
  C   C37       1.0  0.39996  0.89095  0.11556  1.0000
  C   C38       1.0  0.10004  0.39095  0.38445  1.0000
  C   C39       1.0  0.60005  0.10906  0.88445  1.0000
  C   C40       1.0  0.89996  0.60905  0.61555  1.0000
  C   C41       1.0  0.99582  0.29681  0.86701  1.0000
  C   C42       1.0  0.50418  0.79681  0.63299  1.0000
  C   C43       1.0  0.00419  0.70318  0.13299  1.0000
  C   C44       1.0  0.49581  0.20319  0.36700  1.0000
  C   C45       1.0  0.03276  0.37985  0.00491  1.0000
  C   C46       1.0  0.46723  0.87985  0.49509  1.0000
  C   C47       1.0  0.96724  0.62015  0.99509  1.0000
  C   C48       1.0  0.53275  0.12015  0.50491  1.0000
  C   C49       1.0  0.34366  0.85617  0.03293  1.0000
  C   C50       1.0  0.15635  0.35617  0.46707  1.0000
  C   C51       1.0  0.65635  0.14383  0.96707  1.0000
  C   C52       1.0  0.84365  0.64383  0.53293  1.0000
  S   S1        1.0  0.97785  0.02216  0.72535  1.0000
  S   S2        1.0  0.52218  0.52217  0.77466  1.0000
  S   S3        1.0  0.02217  0.97784  0.27466  1.0000
  S   S4        1.0  0.47783  0.47783  0.22534  1.0000
  N   N1        1.0  0.06228  0.29690  0.95902  1.0000
  N   N2        1.0  0.43772  0.79690  0.54097  1.0000
  N   N3        1.0  0.93772  0.70310  0.04098  1.0000
  N   N4        1.0  0.56228  0.20310  0.45902  1.0000
  N   N5        1.0  0.29691  0.82721  0.96423  1.0000
  N   N6        1.0  0.20310  0.32722  0.53577  1.0000
  N   N7        1.0  0.70310  0.17279  0.03577  1.0000
  N   N8        1.0  0.79691  0.67279  0.46423  1.0000
  N   N9        1.0  0.55078  0.77391  0.23116  1.0000
  N   N10       1.0  0.94922  0.27391  0.26885  1.0000
  N   N11       1.0  0.44924  0.22609  0.76884  1.0000
  N   N12       1.0  0.05077  0.72609  0.73116  1.0000
  O   O1        1.0  0.09874  0.96728  0.79461  1.0000
  O   O2        1.0  0.40130  0.46727  0.70540  1.0000
  O   O3        1.0  0.90130  0.03272  0.20540  1.0000
  O   O4        1.0  0.59871  0.53272  0.29460  1.0000
  O   O5        1.0  0.77666  0.98535  0.68645  1.0000
  O   O6        1.0  0.72336  0.48536  0.81357  1.0000
  O   O7        1.0  0.22336  0.01464  0.31356  1.0000
  O   O8        1.0  0.27665  0.51464  0.18644  1.0000
  O   O9        1.0  0.98431  0.12030  0.74162  1.0000
  O   O10       1.0  0.51569  0.62030  0.75840  1.0000
  O   O11       1.0  0.01569  0.87969  0.25839  1.0000
  O   O12       1.0  0.48430  0.37970  0.24161  1.0000
  F   F1        1.0  0.05163  0.06754  0.57471  1.0000
  F   F2        1.0  0.44835  0.56754  0.92529  1.0000
  F   F3        1.0  0.94836  0.93247  0.42529  1.0000
  F   F4        1.0  0.55165  0.43246  0.07471  1.0000
  F   F5        1.0  0.32541  0.02446  0.66751  1.0000
  F   F6        1.0  0.17459  0.52446  0.83249  1.0000
  F   F7        1.0  0.67460  0.97555  0.33249  1.0000
  F   F8        1.0  0.82541  0.47554  0.16751  1.0000
  F   F9        1.0  0.09980  0.92181  0.60771  1.0000
  F   F10       1.0  0.40020  0.42182  0.89230  1.0000
  F   F11       1.0  0.90022  0.07819  0.39229  1.0000
  F   F12       1.0  0.59980  0.57818  0.10771  1.0000
