data_image0
_chemical_formula_structural       Cu2H20C16S2N6
_chemical_formula_sum              "Cu2 H20 C16 S2 N6"
_cell_length_a       5.71052
_cell_length_b       9.04109
_cell_length_c       9.64369
_cell_angle_alpha    71.9832
_cell_angle_beta     79.8348
_cell_angle_gamma    89.3406

_space_group_name_H-M_alt    "P 1"
_space_group_IT_number       1

loop_
  _space_group_symop_operation_xyz
  'x, y, z'

loop_
  _atom_site_type_symbol
  _atom_site_label
  _atom_site_symmetry_multiplicity
  _atom_site_fract_x
  _atom_site_fract_y
  _atom_site_fract_z
  _atom_site_occupancy
  Cu  Cu1       1.0  0.38978  0.84921  0.54509  1.0000
  Cu  Cu2       1.0  0.61021  0.15079  0.45491  1.0000
  H   H1        1.0  0.72158  0.86454  0.73707  1.0000
  H   H2        1.0  0.27841  0.13546  0.26292  1.0000
  H   H3        1.0  0.94369  0.67329  0.91477  1.0000
  H   H4        1.0  0.05631  0.32671  0.08522  1.0000
  H   H5        1.0  0.40961  0.22058  0.90190  1.0000
  H   H6        1.0  0.59040  0.77941  0.09810  1.0000
  H   H7        1.0  0.61954  0.23787  0.74247  1.0000
  H   H8        1.0  0.38048  0.76213  0.25753  1.0000
  H   H9        1.0  0.73234  0.03414  0.95463  1.0000
  H   H10       1.0  0.26767  0.96586  0.04538  1.0000
  H   H11       1.0  0.74028  0.16801  0.05510  1.0000
  H   H12       1.0  0.25972  0.83199  0.94491  1.0000
  H   H13       1.0  0.95158  0.18873  0.89101  1.0000
  H   H14       1.0  0.04843  0.81127  0.10900  1.0000
  H   H15       1.0  0.24991  0.57171  0.57789  1.0000
  H   H16       1.0  0.75010  0.42829  0.42211  1.0000
  H   H17       1.0  0.15401  0.42674  0.75154  1.0000
  H   H18       1.0  0.84599  0.57325  0.24846  1.0000
  H   H19       1.0  0.37529  0.38346  0.61902  1.0000
  H   H20       1.0  0.62471  0.61654  0.38098  1.0000
  C   C1        1.0  0.05871  0.11431  0.59125  1.0000
  C   C2        1.0  0.94125  0.88570  0.40875  1.0000
  C   C3        1.0  0.62743  0.42951  0.82468  1.0000
  C   C4        1.0  0.37258  0.57049  0.17532  1.0000
  C   C5        1.0  0.49394  0.53470  0.72973  1.0000
  C   C6        1.0  0.50606  0.46530  0.27027  1.0000
  C   C7        1.0  0.69126  0.73909  0.76504  1.0000
  C   C8        1.0  0.30873  0.26092  0.23494  1.0000
  C   C9        1.0  0.81431  0.63430  0.86102  1.0000
  C   C10       1.0  0.18570  0.36570  0.13899  1.0000
  C   C11       1.0  0.59708  0.25745  0.85117  1.0000
  C   C12       1.0  0.40293  0.74255  0.14883  1.0000
  C   C13       1.0  0.76448  0.15710  0.94342  1.0000
  C   C14       1.0  0.23552  0.84290  0.05658  1.0000
  C   C15       1.0  0.30991  0.47674  0.66443  1.0000
  C   C16       1.0  0.69009  0.52325  0.33557  1.0000
  S   S1        1.0  0.29877  0.05460  0.65949  1.0000
  S   S2        1.0  0.70122  0.94540  0.34051  1.0000
  N   N1        1.0  0.88538  0.15588  0.54142  1.0000
  N   N2        1.0  0.11461  0.84411  0.45859  1.0000
  N   N3        1.0  0.78422  0.47975  0.89014  1.0000
  N   N4        1.0  0.21578  0.52025  0.10985  1.0000
  N   N5        1.0  0.53041  0.68989  0.69928  1.0000
  N   N6        1.0  0.46959  0.31011  0.30071  1.0000
