data_image0
_chemical_formula_structural       Sr4H56C16N32O20
_chemical_formula_sum              "Sr4 H56 C16 N32 O20"
_cell_length_a       7.18611
_cell_length_b       11.3198
_cell_length_c       13.829
_cell_angle_alpha    90
_cell_angle_beta     90.0001
_cell_angle_gamma    90

_space_group_name_H-M_alt    "P 1"
_space_group_IT_number       1

loop_
  _space_group_symop_operation_xyz
  'x, y, z'

loop_
  _atom_site_type_symbol
  _atom_site_label
  _atom_site_symmetry_multiplicity
  _atom_site_fract_x
  _atom_site_fract_y
  _atom_site_fract_z
  _atom_site_occupancy
  Sr  Sr1       1.0  0.50000  0.58108  0.63930  1.0000
  Sr  Sr2       1.0  0.50000  0.41893  0.36070  1.0000
  Sr  Sr3       1.0  0.00000  0.91893  0.13930  1.0000
  Sr  Sr4       1.0  0.00000  0.08107  0.86070  1.0000
  H   H1        1.0  0.62019  0.47024  0.90984  1.0000
  H   H2        1.0  0.62018  0.52975  0.09017  1.0000
  H   H3        1.0  0.87981  0.02976  0.40983  1.0000
  H   H4        1.0  0.87981  0.97024  0.59016  1.0000
  H   H5        1.0  0.37982  0.52975  0.09017  1.0000
  H   H6        1.0  0.37981  0.47024  0.90984  1.0000
  H   H7        1.0  0.12019  0.97024  0.59016  1.0000
  H   H8        1.0  0.12019  0.02976  0.40983  1.0000
  H   H9        1.0  0.62006  0.92336  0.56893  1.0000
  H   H10       1.0  0.62007  0.07664  0.43107  1.0000
  H   H11       1.0  0.87993  0.57664  0.06893  1.0000
  H   H12       1.0  0.87993  0.42336  0.93107  1.0000
  H   H13       1.0  0.37993  0.07664  0.43107  1.0000
  H   H14       1.0  0.37994  0.92336  0.56893  1.0000
  H   H15       1.0  0.12006  0.42336  0.93107  1.0000
  H   H16       1.0  0.12007  0.57664  0.06893  1.0000
  H   H17       1.0  0.84754  0.53955  0.77950  1.0000
  H   H18       1.0  0.84754  0.46046  0.22050  1.0000
  H   H19       1.0  0.65246  0.96046  0.27950  1.0000
  H   H20       1.0  0.65246  0.03955  0.72050  1.0000
  H   H21       1.0  0.15246  0.46046  0.22050  1.0000
  H   H22       1.0  0.15246  0.53955  0.77950  1.0000
  H   H23       1.0  0.34754  0.03955  0.72050  1.0000
  H   H24       1.0  0.34754  0.96046  0.27950  1.0000
  H   H25       1.0  0.83574  0.41653  0.72795  1.0000
  H   H26       1.0  0.83574  0.58347  0.27205  1.0000
  H   H27       1.0  0.66426  0.08347  0.22795  1.0000
  H   H28       1.0  0.66426  0.91653  0.77205  1.0000
  H   H29       1.0  0.16426  0.58347  0.27205  1.0000
  H   H30       1.0  0.16426  0.41653  0.72795  1.0000
  H   H31       1.0  0.33574  0.91653  0.77205  1.0000
  H   H32       1.0  0.33574  0.08347  0.22795  1.0000
  H   H33       1.0  0.15711  0.75111  0.58899  1.0000
  H   H34       1.0  0.15711  0.24889  0.41101  1.0000
  H   H35       1.0  0.34289  0.74889  0.08899  1.0000
  H   H36       1.0  0.34289  0.25111  0.91101  1.0000
  H   H37       1.0  0.84289  0.24889  0.41101  1.0000
  H   H38       1.0  0.84289  0.75111  0.58899  1.0000
  H   H39       1.0  0.65711  0.25111  0.91101  1.0000
  H   H40       1.0  0.65711  0.74889  0.08899  1.0000
  H   H41       1.0  0.15912  0.75204  0.70193  1.0000
  H   H42       1.0  0.15912  0.24796  0.29807  1.0000
  H   H43       1.0  0.34088  0.74796  0.20193  1.0000
  H   H44       1.0  0.34088  0.25204  0.79807  1.0000
  H   H45       1.0  0.84088  0.24796  0.29807  1.0000
  H   H46       1.0  0.84088  0.75204  0.70193  1.0000
  H   H47       1.0  0.65912  0.25204  0.79807  1.0000
  H   H48       1.0  0.65912  0.74796  0.20193  1.0000
  H   H49       1.0  0.17855  0.55981  0.47251  1.0000
  H   H50       1.0  0.17855  0.44019  0.52749  1.0000
  H   H51       1.0  0.32145  0.94019  0.97251  1.0000
  H   H52       1.0  0.32145  0.05981  0.02749  1.0000
  H   H53       1.0  0.82145  0.44019  0.52749  1.0000
  H   H54       1.0  0.82145  0.55981  0.47251  1.0000
  H   H55       1.0  0.67855  0.05981  0.02749  1.0000
  H   H56       1.0  0.67855  0.94019  0.97251  1.0000
  C   C1        1.0  0.50000  0.63916  0.91938  1.0000
  C   C2        1.0  0.50000  0.36083  0.08062  1.0000
  C   C3        1.0  0.00000  0.86083  0.41938  1.0000
  C   C4        1.0  0.00000  0.13917  0.58062  1.0000
  C   C5        1.0  0.50000  0.51153  0.94551  1.0000
  C   C6        1.0  0.50000  0.48846  0.05449  1.0000
  C   C7        1.0  0.00000  0.98847  0.44551  1.0000
  C   C8        1.0  0.00000  0.01153  0.55449  1.0000
  C   C9        1.0  0.50000  0.84216  0.44702  1.0000
  C   C10       1.0  0.50000  0.15784  0.55298  1.0000
  C   C11       1.0  1.00000  0.65784  0.94702  1.0000
  C   C12       1.0  0.00000  0.34216  0.05298  1.0000
  C   C13       1.0  0.50000  0.93766  0.52115  1.0000
  C   C14       1.0  0.50000  0.06234  0.47885  1.0000
  C   C15       1.0  0.00000  0.56234  0.02114  1.0000
  C   C16       1.0  1.00000  0.43766  0.97885  1.0000
  N   N1        1.0  0.50000  0.72545  0.46750  1.0000
  N   N2        1.0  0.50000  0.27455  0.53250  1.0000
  N   N3        1.0  1.00000  0.77455  0.96750  1.0000
  N   N4        1.0  1.00000  0.22545  0.03250  1.0000
  N   N5        1.0  0.50000  0.67031  0.38146  1.0000
  N   N6        1.0  0.50000  0.32969  0.61855  1.0000
  N   N7        1.0  1.00000  0.82969  0.88145  1.0000
  N   N8        1.0  0.00000  0.17031  0.11854  1.0000
  N   N9        1.0  0.50000  0.74941  0.31150  1.0000
  N   N10       1.0  0.50000  0.25059  0.68850  1.0000
  N   N11       1.0  1.00000  0.75059  0.81150  1.0000
  N   N12       1.0  0.00000  0.24941  0.18850  1.0000
  N   N13       1.0  0.50000  0.85887  0.35070  1.0000
  N   N14       1.0  0.50000  0.14113  0.64930  1.0000
  N   N15       1.0  0.00000  0.64113  0.85070  1.0000
  N   N16       1.0  0.00000  0.35887  0.14930  1.0000
  N   N17       1.0  0.50000  0.72892  0.98327  1.0000
  N   N18       1.0  0.50000  0.27108  0.01673  1.0000
  N   N19       1.0  0.00000  0.77108  0.48327  1.0000
  N   N20       1.0  0.00000  0.22892  0.51673  1.0000
  N   N21       1.0  0.50000  0.82847  0.92981  1.0000
  N   N22       1.0  0.50000  0.17153  0.07019  1.0000
  N   N23       1.0  1.00000  0.67153  0.42981  1.0000
  N   N24       1.0  0.00000  0.32847  0.57019  1.0000
  N   N25       1.0  0.50000  0.79972  0.83712  1.0000
  N   N26       1.0  0.50000  0.20027  0.16288  1.0000
  N   N27       1.0  0.00000  0.70028  0.33712  1.0000
  N   N28       1.0  0.00000  0.29972  0.66288  1.0000
  N   N29       1.0  0.50000  0.68172  0.82801  1.0000
  N   N30       1.0  0.50000  0.31828  0.17199  1.0000
  N   N31       1.0  0.00000  0.81828  0.32801  1.0000
  N   N32       1.0  0.00000  0.18172  0.67199  1.0000
  O   O1        1.0  0.76134  0.48660  0.74437  1.0000
  O   O2        1.0  0.76134  0.51340  0.25563  1.0000
  O   O3        1.0  0.73866  0.01340  0.24437  1.0000
  O   O4        1.0  0.73866  0.98660  0.75562  1.0000
  O   O5        1.0  0.23866  0.51340  0.25563  1.0000
  O   O6        1.0  0.23866  0.48660  0.74437  1.0000
  O   O7        1.0  0.26134  0.98660  0.75563  1.0000
  O   O8        1.0  0.26134  0.01340  0.24437  1.0000
  O   O9        1.0  0.24009  0.73950  0.64518  1.0000
  O   O10       1.0  0.24008  0.26050  0.35482  1.0000
  O   O11       1.0  0.25991  0.76050  0.14518  1.0000
  O   O12       1.0  0.25991  0.23950  0.85482  1.0000
  O   O13       1.0  0.75991  0.26050  0.35482  1.0000
  O   O14       1.0  0.75991  0.73950  0.64518  1.0000
  O   O15       1.0  0.74009  0.23950  0.85482  1.0000
  O   O16       1.0  0.74009  0.76050  0.14518  1.0000
  O   O17       1.0  0.26405  0.50000  0.50000  1.0000
  O   O18       1.0  0.23595  0.00000  0.00000  1.0000
  O   O19       1.0  0.73595  0.50000  0.50000  1.0000
  O   O20       1.0  0.76405  0.00000  1.00000  1.0000
