data_image0
_chemical_formula_structural       Ba4H56C16N32O20
_chemical_formula_sum              "Ba4 H56 C16 N32 O20"
_cell_length_a       7.39322
_cell_length_b       11.5063
_cell_length_c       14.1673
_cell_angle_alpha    90.0001
_cell_angle_beta     90.0001
_cell_angle_gamma    90

_space_group_name_H-M_alt    "P 1"
_space_group_IT_number       1

loop_
  _space_group_symop_operation_xyz
  'x, y, z'

loop_
  _atom_site_type_symbol
  _atom_site_label
  _atom_site_symmetry_multiplicity
  _atom_site_fract_x
  _atom_site_fract_y
  _atom_site_fract_z
  _atom_site_occupancy
  Ba  Ba1       1.0  0.00000  0.08291  0.64083  1.0000
  Ba  Ba2       1.0  1.00000  0.91709  0.35917  1.0000
  Ba  Ba3       1.0  0.50001  0.41709  0.14083  1.0000
  Ba  Ba4       1.0  0.50000  0.58291  0.85917  1.0000
  H   H1        1.0  0.34569  0.91608  0.72750  1.0000
  H   H2        1.0  0.34569  0.08392  0.27250  1.0000
  H   H3        1.0  0.15431  0.58392  0.22750  1.0000
  H   H4        1.0  0.15431  0.41608  0.77250  1.0000
  H   H5        1.0  0.65431  0.08392  0.27250  1.0000
  H   H6        1.0  0.65431  0.91608  0.72750  1.0000
  H   H7        1.0  0.84569  0.41608  0.77250  1.0000
  H   H8        1.0  0.84569  0.58392  0.22750  1.0000
  H   H9        1.0  0.35755  0.03503  0.78193  1.0000
  H   H10       1.0  0.35755  0.96497  0.21807  1.0000
  H   H11       1.0  0.14244  0.46497  0.28193  1.0000
  H   H12       1.0  0.14245  0.53503  0.71807  1.0000
  H   H13       1.0  0.64245  0.96497  0.21807  1.0000
  H   H14       1.0  0.64244  0.03503  0.78193  1.0000
  H   H15       1.0  0.85756  0.53503  0.71807  1.0000
  H   H16       1.0  0.85755  0.46497  0.28193  1.0000
  H   H17       1.0  0.11739  0.97290  0.91180  1.0000
  H   H18       1.0  0.11739  0.02710  0.08820  1.0000
  H   H19       1.0  0.38261  0.52710  0.41180  1.0000
  H   H20       1.0  0.38261  0.47290  0.58820  1.0000
  H   H21       1.0  0.88261  0.02710  0.08820  1.0000
  H   H22       1.0  0.88261  0.97290  0.91179  1.0000
  H   H23       1.0  0.61739  0.47290  0.58820  1.0000
  H   H24       1.0  0.61739  0.52710  0.41180  1.0000
  H   H25       1.0  0.11721  0.42380  0.56637  1.0000
  H   H26       1.0  0.11720  0.57620  0.43364  1.0000
  H   H27       1.0  0.38280  0.07620  0.06637  1.0000
  H   H28       1.0  0.38279  0.92380  0.93363  1.0000
  H   H29       1.0  0.88279  0.57620  0.43363  1.0000
  H   H30       1.0  0.88279  0.42380  0.56637  1.0000
  H   H31       1.0  0.61721  0.92380  0.93363  1.0000
  H   H32       1.0  0.61720  0.07620  0.06637  1.0000
  H   H33       1.0  0.34955  0.25594  0.70345  1.0000
  H   H34       1.0  0.34955  0.74406  0.29655  1.0000
  H   H35       1.0  0.15045  0.24406  0.20345  1.0000
  H   H36       1.0  0.15045  0.75594  0.79654  1.0000
  H   H37       1.0  0.65045  0.74406  0.29655  1.0000
  H   H38       1.0  0.65045  0.25594  0.70345  1.0000
  H   H39       1.0  0.84955  0.75594  0.79655  1.0000
  H   H40       1.0  0.84955  0.24406  0.20345  1.0000
  H   H41       1.0  0.35259  0.25762  0.59266  1.0000
  H   H42       1.0  0.35259  0.74239  0.40734  1.0000
  H   H43       1.0  0.14741  0.24238  0.09266  1.0000
  H   H44       1.0  0.14741  0.75761  0.90734  1.0000
  H   H45       1.0  0.64741  0.74239  0.40734  1.0000
  H   H46       1.0  0.64740  0.25762  0.59266  1.0000
  H   H47       1.0  0.85259  0.75762  0.90734  1.0000
  H   H48       1.0  0.85259  0.24239  0.09266  1.0000
  H   H49       1.0  0.66592  0.06041  0.47491  1.0000
  H   H50       1.0  0.66592  0.93959  0.52509  1.0000
  H   H51       1.0  0.83408  0.43959  0.97491  1.0000
  H   H52       1.0  0.83408  0.56041  0.02509  1.0000
  H   H53       1.0  0.33408  0.93959  0.52509  1.0000
  H   H54       1.0  0.33408  0.06041  0.47491  1.0000
  H   H55       1.0  0.16592  0.56041  0.02508  1.0000
  H   H56       1.0  0.16592  0.43959  0.97491  1.0000
  C   C1        1.0  0.00000  0.13915  0.92327  1.0000
  C   C2        1.0  1.00000  0.86085  0.07673  1.0000
  C   C3        1.0  0.50000  0.36085  0.42327  1.0000
  C   C4        1.0  0.50000  0.63915  0.57673  1.0000
  C   C5        1.0  1.00000  0.01276  0.94691  1.0000
  C   C6        1.0  1.00000  0.98724  0.05308  1.0000
  C   C7        1.0  0.50000  0.48724  0.44691  1.0000
  C   C8        1.0  0.50000  0.51276  0.55309  1.0000
  C   C9        1.0  0.00000  0.43833  0.51999  1.0000
  C   C10       1.0  1.00000  0.56167  0.48001  1.0000
  C   C11       1.0  0.50000  0.06167  0.01999  1.0000
  C   C12       1.0  0.50000  0.93833  0.98001  1.0000
  C   C13       1.0  0.00000  0.34551  0.44647  1.0000
  C   C14       1.0  0.00000  0.65449  0.55353  1.0000
  C   C15       1.0  0.50000  0.15449  0.94647  1.0000
  C   C16       1.0  0.50000  0.84551  0.05353  1.0000
  N   N1        1.0  1.00000  0.18204  0.83443  1.0000
  N   N2        1.0  0.00000  0.81797  0.16557  1.0000
  N   N3        1.0  0.50000  0.31797  0.33443  1.0000
  N   N4        1.0  0.50000  0.68203  0.66557  1.0000
  N   N5        1.0  1.00000  0.29800  0.84395  1.0000
  N   N6        1.0  1.00000  0.70200  0.15604  1.0000
  N   N7        1.0  0.50000  0.20200  0.34396  1.0000
  N   N8        1.0  0.50000  0.79800  0.65604  1.0000
  N   N9        1.0  1.00000  0.32523  0.93461  1.0000
  N   N10       1.0  1.00000  0.67477  0.06539  1.0000
  N   N11       1.0  0.50000  0.17477  0.43461  1.0000
  N   N12       1.0  0.50000  0.82523  0.56539  1.0000
  N   N13       1.0  1.00000  0.22671  0.98627  1.0000
  N   N14       1.0  0.00000  0.77329  0.01373  1.0000
  N   N15       1.0  0.50000  0.27329  0.48627  1.0000
  N   N16       1.0  0.50000  0.72671  0.51373  1.0000
  N   N17       1.0  0.00000  0.23065  0.46596  1.0000
  N   N18       1.0  1.00000  0.76935  0.53404  1.0000
  N   N19       1.0  0.50000  0.26935  0.96596  1.0000
  N   N20       1.0  0.50000  0.73065  0.03404  1.0000
  N   N21       1.0  0.00000  0.17684  0.38182  1.0000
  N   N22       1.0  0.00000  0.82316  0.61818  1.0000
  N   N23       1.0  0.50000  0.32316  0.88182  1.0000
  N   N24       1.0  0.50000  0.67684  0.11818  1.0000
  N   N25       1.0  0.00000  0.25497  0.31383  1.0000
  N   N26       1.0  0.00000  0.74503  0.68617  1.0000
  N   N27       1.0  0.50000  0.24503  0.81383  1.0000
  N   N28       1.0  0.50000  0.75497  0.18617  1.0000
  N   N29       1.0  0.00000  0.36256  0.35246  1.0000
  N   N30       1.0  0.00000  0.63744  0.64754  1.0000
  N   N31       1.0  0.50000  0.13744  0.85246  1.0000
  N   N32       1.0  0.50000  0.86256  0.14754  1.0000
  O   O1        1.0  0.27419  0.98424  0.74614  1.0000
  O   O2        1.0  0.27419  0.01576  0.25386  1.0000
  O   O3        1.0  0.22581  0.51576  0.24614  1.0000
  O   O4        1.0  0.22581  0.48424  0.75386  1.0000
  O   O5        1.0  0.72581  0.01576  0.25386  1.0000
  O   O6        1.0  0.72581  0.98424  0.74614  1.0000
  O   O7        1.0  0.77419  0.48424  0.75386  1.0000
  O   O8        1.0  0.77419  0.51576  0.24614  1.0000
  O   O9        1.0  0.74841  1.00000  0.50000  1.0000
  O   O10       1.0  0.75159  0.50000  1.00000  1.0000
  O   O11       1.0  0.25159  1.00000  0.50000  1.0000
  O   O12       1.0  0.24841  0.50000  0.00000  1.0000
  O   O13       1.0  0.27126  0.24781  0.64742  1.0000
  O   O14       1.0  0.27126  0.75219  0.35258  1.0000
  O   O15       1.0  0.22874  0.25219  0.14742  1.0000
  O   O16       1.0  0.22874  0.74781  0.85258  1.0000
  O   O17       1.0  0.72874  0.75219  0.35258  1.0000
  O   O18       1.0  0.72874  0.24781  0.64742  1.0000
  O   O19       1.0  0.77126  0.74781  0.85258  1.0000
  O   O20       1.0  0.77126  0.25219  0.14742  1.0000
