data_image0
_chemical_formula_structural       Cd2H26C36N10O14
_chemical_formula_sum              "Cd2 H26 C36 N10 O14"
_cell_length_a       10.3659
_cell_length_b       10.8865
_cell_length_c       11.0605
_cell_angle_alpha    102.531
_cell_angle_beta     104.677
_cell_angle_gamma    111.719

_space_group_name_H-M_alt    "P 1"
_space_group_IT_number       1

loop_
  _space_group_symop_operation_xyz
  'x, y, z'

loop_
  _atom_site_type_symbol
  _atom_site_label
  _atom_site_symmetry_multiplicity
  _atom_site_fract_x
  _atom_site_fract_y
  _atom_site_fract_z
  _atom_site_occupancy
  Cd  Cd1       1.0  0.34726  0.41255  0.65748  1.0000
  Cd  Cd2       1.0  0.65274  0.58745  0.34252  1.0000
  H   H1        1.0  0.84343  0.42218  0.65218  1.0000
  H   H2        1.0  0.15657  0.57781  0.34782  1.0000
  H   H3        1.0  0.83902  0.67741  0.00755  1.0000
  H   H4        1.0  0.16098  0.32259  0.99245  1.0000
  H   H5        1.0  0.37650  0.39170  0.92974  1.0000
  H   H6        1.0  0.62351  0.60830  0.07026  1.0000
  H   H7        1.0  0.24818  0.66723  0.99593  1.0000
  H   H8        1.0  0.75182  0.33277  0.00406  1.0000
  H   H9        1.0  0.44818  0.27149  0.08431  1.0000
  H   H10       1.0  0.55182  0.72851  0.91569  1.0000
  H   H11       1.0  0.90895  0.10312  0.17425  1.0000
  H   H12       1.0  0.09104  0.89688  0.82575  1.0000
  H   H13       1.0  0.03058  0.25758  0.41757  1.0000
  H   H14       1.0  0.96942  0.74242  0.58243  1.0000
  H   H15       1.0  0.32070  0.07924  0.60141  1.0000
  H   H16       1.0  0.67930  0.92076  0.39859  1.0000
  H   H17       1.0  0.39267  0.94577  0.74323  1.0000
  H   H18       1.0  0.60733  0.05423  0.25677  1.0000
  H   H19       1.0  0.32863  0.09431  0.20278  1.0000
  H   H20       1.0  0.67136  0.90569  0.79722  1.0000
  H   H21       1.0  0.43145  0.24600  0.44411  1.0000
  H   H22       1.0  0.56854  0.75399  0.55588  1.0000
  H   H23       1.0  0.22188  0.55841  0.56151  1.0000
  H   H24       1.0  0.77812  0.44159  0.43848  1.0000
  H   H25       1.0  0.34281  0.58430  0.49115  1.0000
  H   H26       1.0  0.65719  0.41570  0.50885  1.0000
  C   C1        1.0  0.82289  0.54711  0.82094  1.0000
  C   C2        1.0  0.17711  0.45290  0.17906  1.0000
  C   C3        1.0  0.05350  0.54081  0.81490  1.0000
  C   C4        1.0  0.94650  0.45919  0.18509  1.0000
  C   C5        1.0  0.05047  0.68204  0.01260  1.0000
  C   C6        1.0  0.94954  0.31796  0.98740  1.0000
  C   C7        1.0  0.90095  0.49762  0.75338  1.0000
  C   C8        1.0  0.09905  0.50238  0.24662  1.0000
  C   C9        1.0  0.65969  0.50214  0.75345  1.0000
  C   C10       1.0  0.34031  0.49786  0.24655  1.0000
  C   C11       1.0  0.42822  0.10105  0.92524  1.0000
  C   C12       1.0  0.57178  0.89895  0.07476  1.0000
  C   C13       1.0  0.89826  0.63975  0.95267  1.0000
  C   C14       1.0  0.10174  0.36026  0.04733  1.0000
  C   C15       1.0  0.38130  0.29298  0.89229  1.0000
  C   C16       1.0  0.61871  0.70702  0.10771  1.0000
  C   C17       1.0  0.12990  0.63447  0.94631  1.0000
  C   C18       1.0  0.87010  0.36553  0.05369  1.0000
  C   C19       1.0  0.42045  0.22563  0.97809  1.0000
  C   C20       1.0  0.57955  0.77437  0.02191  1.0000
  C   C21       1.0  0.02508  0.13407  0.23148  1.0000
  C   C22       1.0  0.97492  0.86594  0.76852  1.0000
  C   C23       1.0  0.09101  0.21774  0.36514  1.0000
  C   C24       1.0  0.90899  0.78226  0.63486  1.0000
  C   C25       1.0  0.35040  0.11817  0.70906  1.0000
  C   C26       1.0  0.64960  0.88183  0.29094  1.0000
  C   C27       1.0  0.39021  0.04423  0.78719  1.0000
  C   C28       1.0  0.60979  0.95577  0.21281  1.0000
  C   C29       1.0  0.11195  0.09000  0.17123  1.0000
  C   C30       1.0  0.88805  0.91000  0.82877  1.0000
  C   C31       1.0  0.13391  0.48475  0.73980  1.0000
  C   C32       1.0  0.86609  0.51525  0.26020  1.0000
  C   C33       1.0  0.25997  0.12894  0.24742  1.0000
  C   C34       1.0  0.74002  0.87106  0.75258  1.0000
  C   C35       1.0  0.31687  0.21251  0.38077  1.0000
  C   C36       1.0  0.68313  0.78749  0.61923  1.0000
  N   N1        1.0  0.23472  0.25675  0.43855  1.0000
  N   N2        1.0  0.76528  0.74325  0.56145  1.0000
  N   N3        1.0  0.34745  0.24093  0.76029  1.0000
  N   N4        1.0  0.65255  0.75907  0.23971  1.0000
  N   N5        1.0  0.12902  0.77719  0.15224  1.0000
  N   N6        1.0  0.87098  0.22280  0.84776  1.0000
  N   N7        1.0  0.47264  0.04015  0.01895  1.0000
  N   N8        1.0  0.52735  0.95984  0.98105  1.0000
  N   N9        1.0  0.05984  0.00352  0.03655  1.0000
  N   N10       1.0  0.94015  0.99648  0.96344  1.0000
  O   O1        1.0  0.59341  0.42238  0.63119  1.0000
  O   O2        1.0  0.40659  0.57763  0.36881  1.0000
  O   O3        1.0  0.59224  0.54468  0.82074  1.0000
  O   O4        1.0  0.40776  0.45532  0.17925  1.0000
  O   O5        1.0  0.26161  0.50025  0.80991  1.0000
  O   O6        1.0  0.73839  0.49975  0.19009  1.0000
  O   O7        1.0  0.07323  0.42887  0.61426  1.0000
  O   O8        1.0  0.92677  0.57113  0.38574  1.0000
  O   O9        1.0  0.05336  0.80644  0.21384  1.0000
  O   O10       1.0  0.94665  0.19357  0.78616  1.0000
  O   O11       1.0  0.26667  0.82253  0.20104  1.0000
  O   O12       1.0  0.73333  0.17745  0.79897  1.0000
  O   O13       1.0  0.32956  0.59638  0.57905  1.0000
  O   O14       1.0  0.67044  0.40362  0.42095  1.0000
