data_image0
_chemical_formula_structural       Cu2H44C48N4O14
_chemical_formula_sum              "Cu2 H44 C48 N4 O14"
_cell_length_a       6.71958
_cell_length_b       13.2314
_cell_length_c       13.382
_cell_angle_alpha    111.33
_cell_angle_beta     90.0001
_cell_angle_gamma    89.9999

_space_group_name_H-M_alt    "P 1"
_space_group_IT_number       1

loop_
  _space_group_symop_operation_xyz
  'x, y, z'

loop_
  _atom_site_type_symbol
  _atom_site_label
  _atom_site_symmetry_multiplicity
  _atom_site_fract_x
  _atom_site_fract_y
  _atom_site_fract_z
  _atom_site_occupancy
  Cu  Cu1       1.0  0.48599  0.73134  0.29374  1.0000
  Cu  Cu2       1.0  0.98599  0.26866  0.70626  1.0000
  H   H1        1.0  0.75523  0.73385  0.98451  1.0000
  H   H2        1.0  0.25524  0.26615  0.01549  1.0000
  H   H3        1.0  0.70875  0.87504  0.04951  1.0000
  H   H4        1.0  0.20875  0.12497  0.95049  1.0000
  H   H5        1.0  0.34816  0.86459  0.00354  1.0000
  H   H6        1.0  0.84818  0.13541  0.99646  1.0000
  H   H7        1.0  0.52044  0.04301  0.07785  1.0000
  H   H8        1.0  0.02045  0.95698  0.92215  1.0000
  H   H9        1.0  0.83777  0.99878  0.20321  1.0000
  H   H10       1.0  0.33778  0.00123  0.79680  1.0000
  H   H11       1.0  0.84335  0.18901  0.32888  1.0000
  H   H12       1.0  0.34335  0.81100  0.67112  1.0000
  H   H13       1.0  0.34581  0.39354  0.33175  1.0000
  H   H14       1.0  0.84582  0.60646  0.66825  1.0000
  H   H15       1.0  0.51412  0.23817  0.19144  1.0000
  H   H16       1.0  0.01413  0.76182  0.80856  1.0000
  H   H17       1.0  0.43038  0.93612  0.25278  1.0000
  H   H18       1.0  0.93039  0.06388  0.74722  1.0000
  H   H19       1.0  0.43597  0.13499  0.36068  1.0000
  H   H20       1.0  0.93598  0.86501  0.63932  1.0000
  H   H21       1.0  0.47416  0.19703  0.56095  1.0000
  H   H22       1.0  0.97415  0.80297  0.43904  1.0000
  H   H23       1.0  0.50351  0.05549  0.64402  1.0000
  H   H24       1.0  0.00351  0.94451  0.35597  1.0000
  H   H25       1.0  0.50636  0.85945  0.52372  1.0000
  H   H26       1.0  0.00636  0.14055  0.47628  1.0000
  H   H27       1.0  0.71305  0.34411  0.39454  1.0000
  H   H28       1.0  0.21306  0.65589  0.60546  1.0000
  H   H29       1.0  0.76731  0.47652  0.48570  1.0000
  H   H30       1.0  0.26731  0.52349  0.51430  1.0000
  H   H31       1.0  0.40797  0.55834  0.08886  1.0000
  H   H32       1.0  0.90797  0.44166  0.91114  1.0000
  H   H33       1.0  0.57850  0.38663  0.97021  1.0000
  H   H34       1.0  0.07850  0.61337  0.02979  1.0000
  H   H35       1.0  0.87116  0.31971  0.04298  1.0000
  H   H36       1.0  0.37117  0.68029  0.95702  1.0000
  H   H37       1.0  0.98204  0.42674  0.23385  1.0000
  H   H38       1.0  0.48205  0.57326  0.76615  1.0000
  H   H39       1.0  0.79660  0.59398  0.33940  1.0000
  H   H40       1.0  0.29661  0.40602  0.66060  1.0000
  H   H41       1.0  0.14485  0.65387  0.28430  1.0000
  H   H42       1.0  0.64485  0.34613  0.71570  1.0000
  H   H43       1.0  0.08129  0.72803  0.22034  1.0000
  H   H44       1.0  0.58131  0.27197  0.77966  1.0000
  C   C1        1.0  0.73504  0.78662  0.15654  1.0000
  C   C2        1.0  0.23506  0.21338  0.84346  1.0000
  C   C3        1.0  0.79420  0.80599  0.05454  1.0000
  C   C4        1.0  0.29421  0.19401  0.94547  1.0000
  C   C5        1.0  0.08170  0.92206  0.09757  1.0000
  C   C6        1.0  0.58171  0.07794  0.90243  1.0000
  C   C7        1.0  0.27726  0.93433  0.06358  1.0000
  C   C8        1.0  0.77727  0.06567  0.93642  1.0000
  C   C9        1.0  0.37100  0.03322  0.10468  1.0000
  C   C10       1.0  0.87101  0.96678  0.89532  1.0000
  C   C11       1.0  0.27609  0.12416  0.18117  1.0000
  C   C12       1.0  0.77609  0.87584  0.81883  1.0000
  C   C13       1.0  0.08124  0.11082  0.21858  1.0000
  C   C14       1.0  0.58125  0.88918  0.78142  1.0000
  C   C15       1.0  0.98596  0.00812  0.17466  1.0000
  C   C16       1.0  0.48597  0.99188  0.82535  1.0000
  C   C17       1.0  0.98939  0.20052  0.29926  1.0000
  C   C18       1.0  0.48940  0.79949  0.70075  1.0000
  C   C19       1.0  0.08651  0.29963  0.33985  1.0000
  C   C20       1.0  0.58652  0.70038  0.66015  1.0000
  C   C21       1.0  0.27707  0.31350  0.30019  1.0000
  C   C22       1.0  0.77707  0.68650  0.69981  1.0000
  C   C23       1.0  0.36872  0.22757  0.22276  1.0000
  C   C24       1.0  0.86872  0.77243  0.77724  1.0000
  C   C25       1.0  0.44965  0.96632  0.33945  1.0000
  C   C26       1.0  0.94966  0.03368  0.66055  1.0000
  C   C27       1.0  0.45298  0.07683  0.40037  1.0000
  C   C28       1.0  0.95299  0.92317  0.59962  1.0000
  C   C29       1.0  0.47265  0.11095  0.51151  1.0000
  C   C30       1.0  0.97265  0.88905  0.48848  1.0000
  C   C31       1.0  0.49002  0.03243  0.55756  1.0000
  C   C32       1.0  0.99002  0.96757  0.44244  1.0000
  C   C33       1.0  0.48944  0.92355  0.49155  1.0000
  C   C34       1.0  0.98944  0.07645  0.50845  1.0000
  C   C35       1.0  0.81772  0.39183  0.45740  1.0000
  C   C36       1.0  0.31773  0.60817  0.54260  1.0000
  C   C37       1.0  0.80366  0.35350  0.55250  1.0000
  C   C38       1.0  0.30365  0.64650  0.44750  1.0000
  C   C39       1.0  0.53526  0.52463  0.11617  1.0000
  C   C40       1.0  0.03526  0.47537  0.88383  1.0000
  C   C41       1.0  0.62893  0.42945  0.05212  1.0000
  C   C42       1.0  0.12893  0.57055  0.94788  1.0000
  C   C43       1.0  0.79256  0.39247  0.09344  1.0000
  C   C44       1.0  0.29257  0.60752  0.90656  1.0000
  C   C45       1.0  0.85427  0.45110  0.19802  1.0000
  C   C46       1.0  0.35428  0.54890  0.80198  1.0000
  C   C47       1.0  0.75203  0.54546  0.25774  1.0000
  C   C48       1.0  0.25204  0.45453  0.74226  1.0000
  N   N1        1.0  0.46912  0.89039  0.38410  1.0000
  N   N2        1.0  0.96912  0.10961  0.61590  1.0000
  N   N3        1.0  0.59715  0.58182  0.21670  1.0000
  N   N4        1.0  0.09716  0.41818  0.78330  1.0000
  O   O1        1.0  0.54948  0.76490  0.16018  1.0000
  O   O2        1.0  0.04950  0.23510  0.83982  1.0000
  O   O3        1.0  0.86075  0.79330  0.22754  1.0000
  O   O4        1.0  0.36078  0.20670  0.77246  1.0000
  O   O5        1.0  0.00182  0.82162  0.04500  1.0000
  O   O6        1.0  0.50183  0.17838  0.95501  1.0000
  O   O7        1.0  0.01287  0.39165  0.41566  1.0000
  O   O8        1.0  0.51288  0.60835  0.58434  1.0000
  O   O9        1.0  0.95989  0.31053  0.57510  1.0000
  O   O10       1.0  0.45989  0.68947  0.42490  1.0000
  O   O11       1.0  0.63840  0.36938  0.59966  1.0000
  O   O12       1.0  0.13841  0.63062  0.40033  1.0000
  O   O13       1.0  0.18418  0.67535  0.22283  1.0000
  O   O14       1.0  0.68419  0.32465  0.77717  1.0000
