data_image0
_chemical_formula_structural       Cu4H24C36N8Cl2O4
_chemical_formula_sum              "Cu4 H24 C36 N8 Cl2 O4"
_cell_length_a       7.81636
_cell_length_b       7.81634
_cell_length_c       13.2533
_cell_angle_alpha    89.9999
_cell_angle_beta     89.9997
_cell_angle_gamma    98.6386

_space_group_name_H-M_alt    "P 1"
_space_group_IT_number       1

loop_
  _space_group_symop_operation_xyz
  'x, y, z'

loop_
  _atom_site_type_symbol
  _atom_site_label
  _atom_site_symmetry_multiplicity
  _atom_site_fract_x
  _atom_site_fract_y
  _atom_site_fract_z
  _atom_site_occupancy
  Cu  Cu1       1.0  0.12671  0.72018  0.75000  1.0000
  Cu  Cu2       1.0  0.27982  0.87328  0.25000  1.0000
  Cu  Cu3       1.0  0.50894  0.49106  0.50000  1.0000
  Cu  Cu4       1.0  0.50894  0.49106  1.00000  1.0000
  H   H1        1.0  0.06902  0.69666  0.52363  1.0000
  H   H2        1.0  0.30334  0.93097  0.47638  1.0000
  H   H3        1.0  0.30334  0.93097  0.02362  1.0000
  H   H4        1.0  0.06902  0.69666  0.97638  1.0000
  H   H5        1.0  0.83986  0.76751  0.40759  1.0000
  H   H6        1.0  0.23249  0.16013  0.59241  1.0000
  H   H7        1.0  0.23249  0.16013  0.90758  1.0000
  H   H8        1.0  0.83986  0.76750  0.09242  1.0000
  H   H9        1.0  0.58842  0.89661  0.48242  1.0000
  H   H10       1.0  0.10339  0.41157  0.51758  1.0000
  H   H11       1.0  0.10339  0.41157  0.98242  1.0000
  H   H12       1.0  0.58843  0.89660  0.01759  1.0000
  H   H13       1.0  0.57524  0.93724  0.66947  1.0000
  H   H14       1.0  0.06277  0.42476  0.33053  1.0000
  H   H15       1.0  0.06276  0.42475  0.16947  1.0000
  H   H16       1.0  0.57524  0.93723  0.83054  1.0000
  H   H17       1.0  0.76747  0.34655  0.56260  1.0000
  H   H18       1.0  0.65346  0.23252  0.43740  1.0000
  H   H19       1.0  0.65346  0.23252  0.06260  1.0000
  H   H20       1.0  0.76748  0.34655  0.93740  1.0000
  H   H21       1.0  0.99603  0.22047  0.65703  1.0000
  H   H22       1.0  0.77954  0.00397  0.34296  1.0000
  H   H23       1.0  0.77954  0.00397  0.15704  1.0000
  H   H24       1.0  0.99603  0.22047  0.84296  1.0000
  C   C1        1.0  0.95665  0.74857  0.55225  1.0000
  C   C2        1.0  0.25144  0.04335  0.44775  1.0000
  C   C3        1.0  0.25144  0.04334  0.05225  1.0000
  C   C4        1.0  0.95665  0.74856  0.94775  1.0000
  C   C5        1.0  0.82784  0.79070  0.48846  1.0000
  C   C6        1.0  0.20931  0.17215  0.51154  1.0000
  C   C7        1.0  0.20930  0.17215  0.98846  1.0000
  C   C8        1.0  0.82785  0.79069  0.01155  1.0000
  C   C9        1.0  0.69041  0.86155  0.53083  1.0000
  C   C10       1.0  0.13846  0.30958  0.46917  1.0000
  C   C11       1.0  0.13845  0.30958  0.03083  1.0000
  C   C12       1.0  0.69042  0.86155  0.96917  1.0000
  C   C13       1.0  0.68305  0.88436  0.63491  1.0000
  C   C14       1.0  0.11565  0.31694  0.36509  1.0000
  C   C15       1.0  0.11565  0.31694  0.13490  1.0000
  C   C16       1.0  0.68306  0.88435  0.86510  1.0000
  C   C17       1.0  0.81308  0.83188  0.69460  1.0000
  C   C18       1.0  0.16813  0.18692  0.30540  1.0000
  C   C19       1.0  0.16813  0.18692  0.19459  1.0000
  C   C20       1.0  0.81308  0.83187  0.80541  1.0000
  C   C21       1.0  0.38566  0.54101  0.69425  1.0000
  C   C22       1.0  0.45899  0.61434  0.30575  1.0000
  C   C23       1.0  0.45899  0.61434  0.19425  1.0000
  C   C24       1.0  0.38566  0.54101  0.80575  1.0000
  C   C25       1.0  0.63415  0.40774  0.69637  1.0000
  C   C26       1.0  0.59227  0.36585  0.30363  1.0000
  C   C27       1.0  0.59227  0.36585  0.19637  1.0000
  C   C28       1.0  0.63415  0.40773  0.80363  1.0000
  C   C29       1.0  0.76725  0.34202  0.64491  1.0000
  C   C30       1.0  0.65798  0.23275  0.35509  1.0000
  C   C31       1.0  0.65799  0.23275  0.14492  1.0000
  C   C32       1.0  0.76725  0.34202  0.85508  1.0000
  C   C33       1.0  0.89558  0.27493  0.69713  1.0000
  C   C34       1.0  0.72508  0.10442  0.30287  1.0000
  C   C35       1.0  0.72508  0.10442  0.19713  1.0000
  C   C36       1.0  0.89558  0.27493  0.80286  1.0000
  N   N1        1.0  0.94855  0.76826  0.65235  1.0000
  N   N2        1.0  0.23174  0.05144  0.34765  1.0000
  N   N3        1.0  0.23174  0.05144  0.15235  1.0000
  N   N4        1.0  0.94856  0.76826  0.84765  1.0000
  N   N5        1.0  0.50738  0.47573  0.64259  1.0000
  N   N6        1.0  0.52428  0.49262  0.35741  1.0000
  N   N7        1.0  0.52428  0.49262  0.14259  1.0000
  N   N8        1.0  0.50738  0.47573  0.85741  1.0000
  Cl  Cl1       1.0  0.30454  0.01823  0.75000  1.0000
  Cl  Cl2       1.0  0.98177  0.69546  0.25000  1.0000
  O   O1        1.0  0.26628  0.60977  0.64944  1.0000
  O   O2        1.0  0.39023  0.73372  0.35056  1.0000
  O   O3        1.0  0.39023  0.73372  0.14944  1.0000
  O   O4        1.0  0.26628  0.60977  0.85056  1.0000
