data_image0
_chemical_formula_structural       Zn3H28C38S6N10O12
_chemical_formula_sum              "Zn3 H28 C38 S6 N10 O12"
_cell_length_a       8.84851
_cell_length_b       11.5018
_cell_length_c       12.9036
_cell_angle_alpha    111.541
_cell_angle_beta     108.23
_cell_angle_gamma    93.2606

_space_group_name_H-M_alt    "P 1"
_space_group_IT_number       1

loop_
  _space_group_symop_operation_xyz
  'x, y, z'

loop_
  _atom_site_type_symbol
  _atom_site_label
  _atom_site_symmetry_multiplicity
  _atom_site_fract_x
  _atom_site_fract_y
  _atom_site_fract_z
  _atom_site_occupancy
  Zn  Zn1       1.0  0.50000  0.00000  1.00000  1.0000
  Zn  Zn2       1.0  0.34880  0.24792  0.15033  1.0000
  Zn  Zn3       1.0  0.65120  0.75208  0.84967  1.0000
  H   H1        1.0  0.05685  0.79646  0.02408  1.0000
  H   H2        1.0  0.94315  0.20354  0.97592  1.0000
  H   H3        1.0  0.99191  0.93112  0.11182  1.0000
  H   H4        1.0  0.00810  0.06888  0.88819  1.0000
  H   H5        1.0  0.30645  0.29292  0.79683  1.0000
  H   H6        1.0  0.69355  0.70708  0.20317  1.0000
  H   H7        1.0  0.11908  0.18730  0.74535  1.0000
  H   H8        1.0  0.88092  0.81270  0.25465  1.0000
  H   H9        1.0  0.93411  0.25781  0.21255  1.0000
  H   H10       1.0  0.06588  0.74219  0.78745  1.0000
  H   H11       1.0  0.82674  0.11042  0.19491  1.0000
  H   H12       1.0  0.17326  0.88958  0.80509  1.0000
  H   H13       1.0  0.15127  0.42686  0.05958  1.0000
  H   H14       1.0  0.84874  0.57315  0.94042  1.0000
  H   H15       1.0  0.98195  0.58537  0.13337  1.0000
  H   H16       1.0  0.01805  0.41463  0.86664  1.0000
  H   H17       1.0  0.98086  0.64038  0.34087  1.0000
  H   H18       1.0  0.01913  0.35961  0.65913  1.0000
  H   H19       1.0  0.14607  0.53697  0.46360  1.0000
  H   H20       1.0  0.85393  0.46302  0.53640  1.0000
  H   H21       1.0  0.31011  0.46626  0.56651  1.0000
  H   H22       1.0  0.68989  0.53373  0.43349  1.0000
  H   H23       1.0  0.47755  0.34448  0.66375  1.0000
  H   H24       1.0  0.52245  0.65552  0.33625  1.0000
  H   H25       1.0  0.59688  0.17203  0.54327  1.0000
  H   H26       1.0  0.40312  0.82797  0.45672  1.0000
  H   H27       1.0  0.54598  0.13780  0.33222  1.0000
  H   H28       1.0  0.45402  0.86220  0.66778  1.0000
  C   C1        1.0  0.16677  0.98238  0.34376  1.0000
  C   C2        1.0  0.83323  0.01762  0.65624  1.0000
  C   C3        1.0  0.21181  0.07508  0.54127  1.0000
  C   C4        1.0  0.78819  0.92492  0.45873  1.0000
  C   C5        1.0  0.04880  0.14684  0.41450  1.0000
  C   C6        1.0  0.95120  0.85316  0.58550  1.0000
  C   C7        1.0  0.09645  0.89007  0.09931  1.0000
  C   C8        1.0  0.90355  0.10993  0.90070  1.0000
  C   C9        1.0  0.21024  0.97766  0.07971  1.0000
  C   C10       1.0  0.78975  0.02235  0.92029  1.0000
  C   C11       1.0  0.25156  0.19749  0.78188  1.0000
  C   C12       1.0  0.74844  0.80251  0.21811  1.0000
  C   C13       1.0  0.30142  0.18005  0.89923  1.0000
  C   C14       1.0  0.69857  0.81995  0.10077  1.0000
  C   C15       1.0  0.84813  0.21419  0.23958  1.0000
  C   C16       1.0  0.15187  0.78581  0.76042  1.0000
  C   C17       1.0  0.69228  0.26711  0.21754  1.0000
  C   C18       1.0  0.30772  0.73289  0.78246  1.0000
  C   C19       1.0  0.14473  0.45475  0.14825  1.0000
  C   C20       1.0  0.85527  0.54526  0.85176  1.0000
  C   C21       1.0  0.05191  0.54179  0.18977  1.0000
  C   C22       1.0  0.94809  0.45822  0.81024  1.0000
  C   C23       1.0  0.05162  0.57230  0.30485  1.0000
  C   C24       1.0  0.94837  0.42769  0.69515  1.0000
  C   C25       1.0  0.14440  0.51507  0.37382  1.0000
  C   C26       1.0  0.85561  0.48493  0.62618  1.0000
  C   C27       1.0  0.23516  0.42864  0.32698  1.0000
  C   C28       1.0  0.76484  0.57136  0.67302  1.0000
  C   C29       1.0  0.33621  0.36394  0.39520  1.0000
  C   C30       1.0  0.66379  0.63606  0.60480  1.0000
  C   C31       1.0  0.36095  0.39196  0.51512  1.0000
  C   C32       1.0  0.63905  0.60804  0.48488  1.0000
  C   C33       1.0  0.45640  0.32381  0.57028  1.0000
  C   C34       1.0  0.54360  0.67619  0.42972  1.0000
  C   C35       1.0  0.52358  0.22972  0.50540  1.0000
  C   C36       1.0  0.47642  0.77028  0.49460  1.0000
  C   C37       1.0  0.49540  0.20927  0.38700  1.0000
  C   C38       1.0  0.50460  0.79072  0.61300  1.0000
  S   S1        1.0  0.20339  0.86119  0.22964  1.0000
  S   S2        1.0  0.79662  0.13881  0.77037  1.0000
  S   S3        1.0  0.31569  0.07401  0.67930  1.0000
  S   S4        1.0  0.68431  0.92600  0.32071  1.0000
  S   S5        1.0  0.93054  0.25953  0.39964  1.0000
  S   S6        1.0  0.06946  0.74047  0.60036  1.0000
  N   N1        1.0  0.24174  0.98432  0.45214  1.0000
  N   N2        1.0  0.75826  0.01569  0.54786  1.0000
  N   N3        1.0  0.11480  0.15833  0.52827  1.0000
  N   N4        1.0  0.88520  0.84167  0.47173  1.0000
  N   N5        1.0  0.06998  0.06179  0.31891  1.0000
  N   N6        1.0  0.93003  0.93821  0.68109  1.0000
  N   N7        1.0  0.23353  0.39910  0.21491  1.0000
  N   N8        1.0  0.76647  0.60091  0.78509  1.0000
  N   N9        1.0  0.40508  0.27524  0.33397  1.0000
  N   N10       1.0  0.59492  0.72476  0.66602  1.0000
  O   O1        1.0  0.32203  0.93054  0.04698  1.0000
  O   O2        1.0  0.67797  0.06946  0.95302  1.0000
  O   O3        1.0  0.18376  0.09011  0.09999  1.0000
  O   O4        1.0  0.81624  0.90989  0.90001  1.0000
  O   O5        1.0  0.33911  0.07451  0.89491  1.0000
  O   O6        1.0  0.66089  0.92550  0.10509  1.0000
  O   O7        1.0  0.29707  0.27205  0.99022  1.0000
  O   O8        1.0  0.70293  0.72796  0.00978  1.0000
  O   O9        1.0  0.55832  0.18366  0.14760  1.0000
  O   O10       1.0  0.44167  0.81634  0.85240  1.0000
  O   O11       1.0  0.69640  0.38287  0.26905  1.0000
  O   O12       1.0  0.30360  0.61713  0.73095  1.0000
