data_image0
_chemical_formula_structural       Cd3H32C38S6N10O14
_chemical_formula_sum              "Cd3 H32 C38 S6 N10 O14"
_cell_length_a       9.10299
_cell_length_b       11.0826
_cell_length_c       13.1196
_cell_angle_alpha    108.132
_cell_angle_beta     107.509
_cell_angle_gamma    95.2192

_space_group_name_H-M_alt    "P 1"
_space_group_IT_number       1

loop_
  _space_group_symop_operation_xyz
  'x, y, z'

loop_
  _atom_site_type_symbol
  _atom_site_label
  _atom_site_symmetry_multiplicity
  _atom_site_fract_x
  _atom_site_fract_y
  _atom_site_fract_z
  _atom_site_occupancy
  Cd  Cd1       1.0  1.00000  0.50000  0.50000  1.0000
  Cd  Cd2       1.0  0.84184  0.77898  0.63356  1.0000
  Cd  Cd3       1.0  0.15815  0.22102  0.36644  1.0000
  H   H1        1.0  0.55620  0.29273  0.54618  1.0000
  H   H2        1.0  0.44380  0.70726  0.45382  1.0000
  H   H3        1.0  0.49841  0.43045  0.62878  1.0000
  H   H4        1.0  0.50159  0.56955  0.37121  1.0000
  H   H5        1.0  0.80490  0.79870  0.26342  1.0000
  H   H6        1.0  0.19510  0.20129  0.73658  1.0000
  H   H7        1.0  0.62563  0.68795  0.22345  1.0000
  H   H8        1.0  0.37437  0.31206  0.77655  1.0000
  H   H9        1.0  0.43466  0.72469  0.70861  1.0000
  H   H10       1.0  0.56533  0.27531  0.29139  1.0000
  H   H11       1.0  0.30525  0.59329  0.70893  1.0000
  H   H12       1.0  0.69475  0.40671  0.29107  1.0000
  H   H13       1.0  0.04275  0.66777  0.82675  1.0000
  H   H14       1.0  0.95725  0.33223  0.17325  1.0000
  H   H15       1.0  0.09480  0.68899  0.02957  1.0000
  H   H16       1.0  0.90520  0.31101  0.97043  1.0000
  H   H17       1.0  0.96614  0.84651  0.14401  1.0000
  H   H18       1.0  0.03386  0.15348  0.85599  1.0000
  H   H19       1.0  0.78446  0.96116  0.04719  1.0000
  H   H20       1.0  0.21553  0.03884  0.95282  1.0000
  H   H21       1.0  0.64266  0.05020  0.96198  1.0000
  H   H22       1.0  0.35734  0.94980  0.03802  1.0000
  H   H23       1.0  0.45830  0.14958  0.84870  1.0000
  H   H24       1.0  0.54170  0.85042  0.15130  1.0000
  H   H25       1.0  0.41884  0.09255  0.63898  1.0000
  H   H26       1.0  0.58116  0.90745  0.36102  1.0000
  H   H27       1.0  0.57734  0.93961  0.55677  1.0000
  H   H28       1.0  0.42266  0.06039  0.44323  1.0000
  H   H29       1.0  0.01415  0.97940  0.60189  1.0000
  H   H30       1.0  0.98585  0.02060  0.39810  1.0000
  H   H31       1.0  0.11189  0.96015  0.71680  1.0000
  H   H32       1.0  0.88811  0.03985  0.28320  1.0000
  C   C1        1.0  0.67012  0.47551  0.85071  1.0000
  C   C2        1.0  0.32987  0.52449  0.14929  1.0000
  C   C3        1.0  0.71928  0.56858  0.04048  1.0000
  C   C4        1.0  0.28071  0.43142  0.95952  1.0000
  C   C5        1.0  0.55269  0.63827  0.91544  1.0000
  C   C6        1.0  0.44731  0.36173  0.08456  1.0000
  C   C7        1.0  0.59779  0.38810  0.61495  1.0000
  C   C8        1.0  0.40221  0.61190  0.38504  1.0000
  C   C9        1.0  0.70606  0.47579  0.58609  1.0000
  C   C10       1.0  0.29395  0.52421  0.41391  1.0000
  C   C11       1.0  0.75419  0.70447  0.26240  1.0000
  C   C12       1.0  0.24580  0.29553  0.73760  1.0000
  C   C13       1.0  0.79486  0.70423  0.38351  1.0000
  C   C14       1.0  0.20514  0.29577  0.61649  1.0000
  C   C15       1.0  0.34707  0.69859  0.74445  1.0000
  C   C16       1.0  0.65293  0.30141  0.25555  1.0000
  C   C17       1.0  0.21343  0.77076  0.72162  1.0000
  C   C18       1.0  0.78657  0.22925  0.27838  1.0000
  C   C19       1.0  0.98825  0.73264  0.87862  1.0000
  C   C20       1.0  0.01175  0.26736  0.12138  1.0000
  C   C21       1.0  0.01717  0.74530  0.99229  1.0000
  C   C22       1.0  0.98283  0.25469  0.00771  1.0000
  C   C23       1.0  0.94450  0.83055  0.05396  1.0000
  C   C24       1.0  0.05550  0.16945  0.94604  1.0000
  C   C25       1.0  0.84288  0.89612  0.99946  1.0000
  C   C26       1.0  0.15712  0.10388  0.00054  1.0000
  C   C27       1.0  0.81782  0.87678  0.88417  1.0000
  C   C28       1.0  0.18218  0.12322  0.11583  1.0000
  C   C29       1.0  0.70730  0.94056  0.81975  1.0000
  C   C30       1.0  0.29270  0.05944  0.18025  1.0000
  C   C31       1.0  0.62578  0.02681  0.87191  1.0000
  C   C32       1.0  0.37422  0.97319  0.12810  1.0000
  C   C33       1.0  0.52175  0.08242  0.80796  1.0000
  C   C34       1.0  0.47826  0.91758  0.19204  1.0000
  C   C35       1.0  0.50037  0.05159  0.69222  1.0000
  C   C36       1.0  0.49964  0.94841  0.30779  1.0000
  C   C37       1.0  0.58628  0.96612  0.64619  1.0000
  C   C38       1.0  0.41373  0.03388  0.35382  1.0000
  S   S1        1.0  0.70766  0.35848  0.74245  1.0000
  S   S2        1.0  0.29234  0.64152  0.25755  1.0000
  S   S3        1.0  0.82332  0.57503  0.17778  1.0000
  S   S4        1.0  0.17667  0.42497  0.82223  1.0000
  S   S5        1.0  0.43464  0.75033  0.89864  1.0000
  S   S6        1.0  0.56536  0.24967  0.10136  1.0000
  N   N1        1.0  0.74707  0.47766  0.95636  1.0000
  N   N2        1.0  0.25293  0.52234  0.04364  1.0000
  N   N3        1.0  0.62271  0.65123  0.02566  1.0000
  N   N4        1.0  0.37729  0.34878  0.97435  1.0000
  N   N5        1.0  0.57107  0.55309  0.82452  1.0000
  N   N6        1.0  0.42893  0.44692  0.17548  1.0000
  N   N7        1.0  0.89326  0.79762  0.82665  1.0000
  N   N8        1.0  0.10674  0.20239  0.17335  1.0000
  N   N9        1.0  0.68607  0.91183  0.70773  1.0000
  N   N10       1.0  0.31393  0.08817  0.29227  1.0000
  O   O1        1.0  0.81411  0.42554  0.55661  1.0000
  O   O2        1.0  0.18589  0.57446  0.44339  1.0000
  O   O3        1.0  0.67977  0.58820  0.59558  1.0000
  O   O4        1.0  0.32023  0.41180  0.40442  1.0000
  O   O5        1.0  0.83056  0.60375  0.40180  1.0000
  O   O6        1.0  0.16943  0.39625  0.59820  1.0000
  O   O7        1.0  0.78435  0.80641  0.45841  1.0000
  O   O8        1.0  0.21565  0.19359  0.54160  1.0000
  O   O9        1.0  0.07905  0.70455  0.64734  1.0000
  O   O10       1.0  0.92095  0.29546  0.35266  1.0000
  O   O11       1.0  0.24005  0.89043  0.77757  1.0000
  O   O12       1.0  0.75995  0.10957  0.22243  1.0000
  O   O13       1.0  0.01738  0.99311  0.67959  1.0000
  O   O14       1.0  0.98262  0.00689  0.32040  1.0000
