data_image0
_chemical_formula_structural       V8Zn2H16C20N4O21
_chemical_formula_sum              "V8 Zn2 H16 C20 N4 O21"
_cell_length_a       8.07749
_cell_length_b       9.7141
_cell_length_c       11.5888
_cell_angle_alpha    86.2815
_cell_angle_beta     72.2682
_cell_angle_gamma    73.2931

_space_group_name_H-M_alt    "P 1"
_space_group_IT_number       1

loop_
  _space_group_symop_operation_xyz
  'x, y, z'

loop_
  _atom_site_type_symbol
  _atom_site_label
  _atom_site_symmetry_multiplicity
  _atom_site_fract_x
  _atom_site_fract_y
  _atom_site_fract_z
  _atom_site_occupancy
  V   V1        1.0  0.53255  0.96562  0.74843  1.0000
  V   V2        1.0  0.46745  0.03438  0.25157  1.0000
  V   V3        1.0  0.12820  0.17251  0.81648  1.0000
  V   V4        1.0  0.87180  0.82748  0.18352  1.0000
  V   V5        1.0  0.88229  0.92232  0.88047  1.0000
  V   V6        1.0  0.11770  0.07769  0.11953  1.0000
  V   V7        1.0  0.19752  0.00882  0.53400  1.0000
  V   V8        1.0  0.80248  0.99117  0.46600  1.0000
  Zn  Zn1       1.0  0.32016  0.71930  0.71464  1.0000
  Zn  Zn2       1.0  0.67984  0.28070  0.28536  1.0000
  H   H1        1.0  0.59526  0.70472  0.45348  1.0000
  H   H2        1.0  0.40474  0.29528  0.54652  1.0000
  H   H3        1.0  0.00851  0.30278  0.43736  1.0000
  H   H4        1.0  0.99149  0.69722  0.56264  1.0000
  H   H5        1.0  0.88521  0.53073  0.33622  1.0000
  H   H6        1.0  0.11479  0.46926  0.66378  1.0000
  H   H7        1.0  0.84052  0.26100  0.64883  1.0000
  H   H8        1.0  0.15948  0.73899  0.35117  1.0000
  H   H9        1.0  0.69959  0.25062  0.83074  1.0000
  H   H10       1.0  0.30041  0.74938  0.16925  1.0000
  H   H11       1.0  0.49180  0.23357  0.03415  1.0000
  H   H12       1.0  0.50820  0.76643  0.96585  1.0000
  H   H13       1.0  0.18662  0.42021  0.10215  1.0000
  H   H14       1.0  0.81338  0.57980  0.89786  1.0000
  H   H15       1.0  0.11044  0.61682  0.96161  1.0000
  H   H16       1.0  0.88956  0.38319  0.03839  1.0000
  C   C1        1.0  0.65429  0.60463  0.49267  1.0000
  C   C2        1.0  0.34572  0.39537  0.50733  1.0000
  C   C3        1.0  0.88283  0.38158  0.48507  1.0000
  C   C4        1.0  0.11717  0.61842  0.51493  1.0000
  C   C5        1.0  0.81524  0.50669  0.42821  1.0000
  C   C6        1.0  0.18476  0.49331  0.57179  1.0000
  C   C7        1.0  0.78832  0.35774  0.60339  1.0000
  C   C8        1.0  0.21168  0.64226  0.39660  1.0000
  C   C9        1.0  0.62667  0.45958  0.66223  1.0000
  C   C10       1.0  0.37333  0.54042  0.33777  1.0000
  C   C11       1.0  0.51384  0.44171  0.78634  1.0000
  C   C12       1.0  0.48616  0.55829  0.21366  1.0000
  C   C13       1.0  0.56768  0.32956  0.86042  1.0000
  C   C14       1.0  0.43232  0.67044  0.13958  1.0000
  C   C15       1.0  0.45076  0.32011  0.97525  1.0000
  C   C16       1.0  0.54924  0.67989  0.02474  1.0000
  C   C17       1.0  0.28306  0.42265  0.01342  1.0000
  C   C18       1.0  0.71694  0.57735  0.98658  1.0000
  C   C19       1.0  0.23863  0.53282  0.93553  1.0000
  C   C20       1.0  0.76138  0.46718  0.06447  1.0000
  N   N1        1.0  0.56245  0.58099  0.60624  1.0000
  N   N2        1.0  0.43755  0.41901  0.39376  1.0000
  N   N3        1.0  0.35164  0.54198  0.82528  1.0000
  N   N4        1.0  0.64836  0.45802  0.17472  1.0000
  O   O1        1.0  0.41040  0.84973  0.79609  1.0000
  O   O2        1.0  0.58959  0.15028  0.20392  1.0000
  O   O3        1.0  0.66976  0.91976  0.59549  1.0000
  O   O4        1.0  0.33024  0.08024  0.40451  1.0000
  O   O5        1.0  0.30916  0.84661  0.56496  1.0000
  O   O6        1.0  0.69084  0.15339  0.43504  1.0000
  O   O7        1.0  0.04951  0.79699  0.78744  1.0000
  O   O8        1.0  0.95049  0.20301  0.21257  1.0000
  O   O9        1.0  1.00000  1.00000  0.50000  1.0000
  O   O10       1.0  0.03767  0.34336  0.81957  1.0000
  O   O11       1.0  0.96233  0.65665  0.18042  1.0000
  O   O12       1.0  0.67591  0.95789  0.83791  1.0000
  O   O13       1.0  0.32409  0.04211  0.16209  1.0000
  O   O14       1.0  0.38687  0.13440  0.75470  1.0000
  O   O15       1.0  0.61313  0.86561  0.24530  1.0000
  O   O16       1.0  0.13908  0.12208  0.65387  1.0000
  O   O17       1.0  0.86092  0.87792  0.34613  1.0000
  O   O18       1.0  0.93773  0.08117  0.87122  1.0000
  O   O19       1.0  0.06227  0.91883  0.12879  1.0000
  O   O20       1.0  0.84172  0.86453  0.02661  1.0000
  O   O21       1.0  0.15828  0.13548  0.97339  1.0000
