data_image0
_chemical_formula_structural       CoSi2H32C30S2N6
_chemical_formula_sum              "Co1 Si2 H32 C30 S2 N6"
_cell_length_a       9.81298
_cell_length_b       9.82013
_cell_length_c       10.382
_cell_angle_alpha    63.1919
_cell_angle_beta     63.3748
_cell_angle_gamma    79.8091

_space_group_name_H-M_alt    "P 1"
_space_group_IT_number       1

loop_
  _space_group_symop_operation_xyz
  'x, y, z'

loop_
  _atom_site_type_symbol
  _atom_site_label
  _atom_site_symmetry_multiplicity
  _atom_site_fract_x
  _atom_site_fract_y
  _atom_site_fract_z
  _atom_site_occupancy
  Co  Co1       1.0  0.30280  0.69732  0.49989  1.0000
  Si  Si1       1.0  0.46730  0.07917  0.84204  1.0000
  Si  Si2       1.0  0.92084  0.53260  0.15795  1.0000
  H   H1        1.0  0.45071  0.88074  0.16042  1.0000
  H   H2        1.0  0.11864  0.54969  0.83995  1.0000
  H   H3        1.0  0.11213  0.08760  0.97538  1.0000
  H   H4        1.0  0.91257  0.88780  0.02450  1.0000
  H   H5        1.0  0.91433  0.96649  0.25199  1.0000
  H   H6        1.0  0.03344  0.08624  0.74791  1.0000
  H   H7        1.0  0.99598  0.80631  0.47351  1.0000
  H   H8        1.0  0.19335  0.00484  0.52666  1.0000
  H   H9        1.0  0.34291  0.35957  0.64958  1.0000
  H   H10       1.0  0.64091  0.65679  0.34976  1.0000
  H   H11       1.0  0.61192  0.26900  0.91336  1.0000
  H   H12       1.0  0.73092  0.38800  0.08677  1.0000
  H   H13       1.0  0.61608  0.54871  0.83629  1.0000
  H   H14       1.0  0.45134  0.38354  0.16358  1.0000
  H   H15       1.0  0.47293  0.72049  0.67498  1.0000
  H   H16       1.0  0.27991  0.52659  0.32456  1.0000
  H   H17       1.0  0.38679  0.93935  0.73823  1.0000
  H   H18       1.0  0.06073  0.61304  0.26185  1.0000
  H   H19       1.0  0.42700  0.13114  0.59612  1.0000
  H   H20       1.0  0.86919  0.57253  0.40369  1.0000
  H   H21       1.0  0.64267  0.93536  0.53165  1.0000
  H   H22       1.0  0.06501  0.35670  0.46872  1.0000
  H   H23       1.0  0.70238  0.10198  0.51791  1.0000
  H   H24       1.0  0.89839  0.29712  0.48215  1.0000
  H   H25       1.0  0.81244  0.88078  0.67983  1.0000
  H   H26       1.0  0.11941  0.18726  0.32071  1.0000
  H   H27       1.0  0.62996  0.79033  0.80646  1.0000
  H   H28       1.0  0.20958  0.37000  0.19396  1.0000
  H   H29       1.0  0.74217  0.07989  0.77703  1.0000
  H   H30       1.0  0.92012  0.25770  0.22311  1.0000
  H   H31       1.0  0.65867  0.91411  0.95136  1.0000
  H   H32       1.0  0.08562  0.34152  0.04895  1.0000
  C   C1        1.0  0.33355  0.90301  0.17444  1.0000
  C   C2        1.0  0.09649  0.66687  0.82591  1.0000
  C   C3        1.0  0.30145  0.99284  0.04259  1.0000
  C   C4        1.0  0.00697  0.69869  0.95760  1.0000
  C   C5        1.0  0.14674  0.01659  0.07179  1.0000
  C   C6        1.0  0.98340  0.85342  0.92820  1.0000
  C   C7        1.0  0.03512  0.94979  0.22712  1.0000
  C   C8        1.0  0.05007  0.96544  0.77288  1.0000
  C   C9        1.0  0.07925  0.86160  0.35049  1.0000
  C   C10       1.0  0.13798  0.92149  0.64977  1.0000
  C   C11       1.0  0.40312  0.39487  0.69643  1.0000
  C   C12       1.0  0.60561  0.59652  0.30299  1.0000
  C   C13       1.0  0.47526  0.28886  0.78896  1.0000
  C   C14       1.0  0.71137  0.52450  0.21079  1.0000
  C   C15       1.0  0.55242  0.34558  0.84148  1.0000
  C   C16       1.0  0.65447  0.44737  0.15844  1.0000
  C   C17       1.0  0.55383  0.50170  0.80018  1.0000
  C   C18       1.0  0.49840  0.44578  0.19960  1.0000
  C   C19       1.0  0.47609  0.59771  0.70995  1.0000
  C   C20       1.0  0.40269  0.52341  0.28952  1.0000
  C   C21       1.0  0.46455  0.03802  0.68191  1.0000
  C   C22       1.0  0.96218  0.53518  0.31809  1.0000
  C   C23       1.0  0.63165  0.99623  0.60235  1.0000
  C   C24       1.0  0.00407  0.36790  0.39785  1.0000
  C   C25       1.0  0.69005  0.90278  0.73175  1.0000
  C   C26       1.0  0.09729  0.30974  0.26863  1.0000
  C   C27       1.0  0.65561  0.98826  0.83605  1.0000
  C   C28       1.0  0.01165  0.34434  0.16415  1.0000
  C   C29       1.0  0.05703  0.45390  0.68358  1.0000
  C   C30       1.0  0.54630  0.94298  0.31634  1.0000
  S   S1        1.0  0.92810  0.32075  0.81755  1.0000
  S   S2        1.0  0.67945  0.07188  0.18243  1.0000
  N   N1        1.0  0.22682  0.83854  0.32496  1.0000
  N   N2        1.0  0.16073  0.77393  0.67555  1.0000
  N   N3        1.0  0.40206  0.54543  0.65801  1.0000
  N   N4        1.0  0.45529  0.59741  0.34109  1.0000
  N   N5        1.0  0.15321  0.55070  0.58591  1.0000
  N   N6        1.0  0.44950  0.84677  0.41393  1.0000
