data_image0
_chemical_formula_structural       Zn3P2H24C28O16
_chemical_formula_sum              "Zn3 P2 H24 C28 O16"
_cell_length_a       7.33862
_cell_length_b       10.4352
_cell_length_c       10.5971
_cell_angle_alpha    82.7614
_cell_angle_beta     79.4967
_cell_angle_gamma    75.9694

_space_group_name_H-M_alt    "P 1"
_space_group_IT_number       1

loop_
  _space_group_symop_operation_xyz
  'x, y, z'

loop_
  _atom_site_type_symbol
  _atom_site_label
  _atom_site_symmetry_multiplicity
  _atom_site_fract_x
  _atom_site_fract_y
  _atom_site_fract_z
  _atom_site_occupancy
  Zn  Zn1       1.0  0.50000  0.50000  0.50000  1.0000
  Zn  Zn2       1.0  0.01789  0.21370  0.54129  1.0000
  Zn  Zn3       1.0  0.98211  0.78630  0.45871  1.0000
  P   P1        1.0  0.27512  0.31480  0.68857  1.0000
  P   P2        1.0  0.72489  0.68520  0.31143  1.0000
  H   H1        1.0  0.06924  0.76226  0.86043  1.0000
  H   H2        1.0  0.93076  0.23774  0.13957  1.0000
  H   H3        1.0  0.16492  0.67488  0.07701  1.0000
  H   H4        1.0  0.83510  0.32512  0.92299  1.0000
  H   H5        1.0  0.29450  0.43417  0.11980  1.0000
  H   H6        1.0  0.70550  0.56583  0.88020  1.0000
  H   H7        1.0  0.34299  0.28396  0.94684  1.0000
  H   H8        1.0  0.65700  0.71604  0.05315  1.0000
  H   H9        1.0  0.05758  0.14175  0.84565  1.0000
  H   H10       1.0  0.94242  0.85825  0.15435  1.0000
  H   H11       1.0  0.14419  0.91213  0.94944  1.0000
  H   H12       1.0  0.85582  0.08787  0.05056  1.0000
  H   H13       1.0  0.47972  0.78667  0.91650  1.0000
  H   H14       1.0  0.52029  0.21333  0.08351  1.0000
  H   H15       1.0  0.73482  0.89670  0.79853  1.0000
  H   H16       1.0  0.26518  0.10330  0.20148  1.0000
  H   H17       1.0  0.36648  0.09713  0.46299  1.0000
  H   H18       1.0  0.63352  0.90288  0.53700  1.0000
  H   H19       1.0  0.23861  0.99361  0.46319  1.0000
  H   H20       1.0  0.76140  0.00639  0.53681  1.0000
  H   H21       1.0  0.49863  0.47306  0.25292  1.0000
  H   H22       1.0  0.50137  0.52694  0.74708  1.0000
  H   H23       1.0  0.31693  0.57451  0.30198  1.0000
  H   H24       1.0  0.68307  0.42549  0.69802  1.0000
  C   C1        1.0  0.11197  0.63799  0.65491  1.0000
  C   C2        1.0  0.88802  0.36201  0.34509  1.0000
  C   C3        1.0  0.16015  0.57417  0.78232  1.0000
  C   C4        1.0  0.83985  0.42584  0.21768  1.0000
  C   C5        1.0  0.13191  0.65764  0.88114  1.0000
  C   C6        1.0  0.86810  0.34237  0.11886  1.0000
  C   C7        1.0  0.18342  0.60911  0.00132  1.0000
  C   C8        1.0  0.81658  0.39089  0.99868  1.0000
  C   C9        1.0  0.25926  0.47399  0.02486  1.0000
  C   C10       1.0  0.74074  0.52601  0.97514  1.0000
  C   C11       1.0  0.28554  0.38957  0.92784  1.0000
  C   C12       1.0  0.71446  0.61043  0.07216  1.0000
  C   C13       1.0  0.23942  0.43691  0.80524  1.0000
  C   C14       1.0  0.76058  0.56310  0.19476  1.0000
  C   C15       1.0  0.34767  0.15308  0.77419  1.0000
  C   C16       1.0  0.65234  0.84692  0.22581  1.0000
  C   C17       1.0  0.20641  0.08927  0.84027  1.0000
  C   C18       1.0  0.79359  0.91073  0.15973  1.0000
  C   C19       1.0  0.25465  0.95960  0.89521  1.0000
  C   C20       1.0  0.74536  0.04040  0.10478  1.0000
  C   C21       1.0  0.44403  0.88979  0.87805  1.0000
  C   C22       1.0  0.55598  0.11021  0.12195  1.0000
  C   C23       1.0  0.58676  0.95164  0.81204  1.0000
  C   C24       1.0  0.41324  0.04835  0.18797  1.0000
  C   C25       1.0  0.54013  0.08492  0.76373  1.0000
  C   C26       1.0  0.45986  0.91508  0.23628  1.0000
  C   C27       1.0  0.69693  0.15656  0.71151  1.0000
  C   C28       1.0  0.30307  0.84344  0.28849  1.0000
  O   O1        1.0  0.96937  0.73686  0.65216  1.0000
  O   O2        1.0  0.03061  0.26314  0.34785  1.0000
  O   O3        1.0  0.21447  0.59857  0.55069  1.0000
  O   O4        1.0  0.78552  0.40144  0.44931  1.0000
  O   O5        1.0  0.07800  0.32476  0.65428  1.0000
  O   O6        1.0  0.92200  0.67523  0.34572  1.0000
  O   O7        1.0  0.43564  0.32531  0.57730  1.0000
  O   O8        1.0  0.56436  0.67468  0.42269  1.0000
  O   O9        1.0  0.70635  0.25219  0.76757  1.0000
  O   O10       1.0  0.29365  0.74780  0.23243  1.0000
  O   O11       1.0  0.82066  0.10921  0.61378  1.0000
  O   O12       1.0  0.17935  0.89079  0.38622  1.0000
  O   O13       1.0  0.26367  0.06094  0.51534  1.0000
  O   O14       1.0  0.73634  0.93906  0.48466  1.0000
  O   O15       1.0  0.38886  0.48275  0.32156  1.0000
  O   O16       1.0  0.61114  0.51725  0.67844  1.0000
