data_image0
_chemical_formula_structural       K2P2H48C24O12F12
_chemical_formula_sum              "K2 P2 H48 C24 O12 F12"
_cell_length_a       7.72283
_cell_length_b       10.7624
_cell_length_c       11.3592
_cell_angle_alpha    90
_cell_angle_beta     89.9999
_cell_angle_gamma    90.0001

_space_group_name_H-M_alt    "P 1"
_space_group_IT_number       1

loop_
  _space_group_symop_operation_xyz
  'x, y, z'

loop_
  _atom_site_type_symbol
  _atom_site_label
  _atom_site_symmetry_multiplicity
  _atom_site_fract_x
  _atom_site_fract_y
  _atom_site_fract_z
  _atom_site_occupancy
  K   K1        1.0  0.50001  0.50000  0.19740  1.0000
  K   K2        1.0  0.00000  0.00000  0.69741  1.0000
  P   P1        1.0  0.00000  0.50000  0.19959  1.0000
  P   P2        1.0  0.50000  1.00000  0.69959  1.0000
  H   H1        1.0  0.47049  0.38977  0.59473  1.0000
  H   H2        1.0  0.02951  0.88977  0.09473  1.0000
  H   H3        1.0  0.97048  0.11023  0.09473  1.0000
  H   H4        1.0  0.52951  0.61023  0.59473  1.0000
  H   H5        1.0  0.30830  0.46320  0.50552  1.0000
  H   H6        1.0  0.19171  0.96320  0.00553  1.0000
  H   H7        1.0  0.80829  0.03680  0.00553  1.0000
  H   H8        1.0  0.69171  0.53680  0.50553  1.0000
  H   H9        1.0  0.25902  0.27770  0.39682  1.0000
  H   H10       1.0  0.24098  0.77770  0.89682  1.0000
  H   H11       1.0  0.75902  0.22230  0.89682  1.0000
  H   H12       1.0  0.74098  0.72230  0.39682  1.0000
  H   H13       1.0  0.41361  0.19840  0.48686  1.0000
  H   H14       1.0  0.08639  0.69840  0.98686  1.0000
  H   H15       1.0  0.91361  0.30160  0.98686  1.0000
  H   H16       1.0  0.58639  0.80160  0.48686  1.0000
  H   H17       1.0  0.59860  0.16701  0.30373  1.0000
  H   H18       1.0  0.90140  0.66701  0.80373  1.0000
  H   H19       1.0  0.09860  0.33299  0.80373  1.0000
  H   H20       1.0  0.40140  0.83299  0.30373  1.0000
  H   H21       1.0  0.39403  0.08879  0.30304  1.0000
  H   H22       1.0  0.10597  0.58879  0.80303  1.0000
  H   H23       1.0  0.89403  0.41121  0.80304  1.0000
  H   H24       1.0  0.60597  0.91121  0.30303  1.0000
  H   H25       1.0  0.38833  0.08908  0.09075  1.0000
  H   H26       1.0  0.11167  0.58908  0.59075  1.0000
  H   H27       1.0  0.88833  0.41092  0.59075  1.0000
  H   H28       1.0  0.61167  0.91092  0.09075  1.0000
  H   H29       1.0  0.59473  0.16469  0.08835  1.0000
  H   H30       1.0  0.90528  0.66469  0.58835  1.0000
  H   H31       1.0  0.09472  0.33531  0.58835  1.0000
  H   H32       1.0  0.40527  0.83531  0.08835  1.0000
  H   H33       1.0  0.40865  0.19905  0.90672  1.0000
  H   H34       1.0  0.09135  0.69905  0.40672  1.0000
  H   H35       1.0  0.90865  0.30094  0.40672  1.0000
  H   H36       1.0  0.59135  0.80095  0.90672  1.0000
  H   H37       1.0  0.25623  0.27927  0.99774  1.0000
  H   H38       1.0  0.24377  0.77928  0.49774  1.0000
  H   H39       1.0  0.75623  0.22073  0.49774  1.0000
  H   H40       1.0  0.74376  0.72073  0.99774  1.0000
  H   H41       1.0  0.30749  0.46623  0.89126  1.0000
  H   H42       1.0  0.19251  0.96623  0.39126  1.0000
  H   H43       1.0  0.80749  0.03377  0.39126  1.0000
  H   H44       1.0  0.69251  0.53377  0.89126  1.0000
  H   H45       1.0  0.46516  0.39093  0.79964  1.0000
  H   H46       1.0  0.03484  0.89093  0.29964  1.0000
  H   H47       1.0  0.96516  0.10907  0.29964  1.0000
  H   H48       1.0  0.53484  0.60907  0.79964  1.0000
  C   C1        1.0  0.44772  0.44080  0.51157  1.0000
  C   C2        1.0  0.05228  0.94079  0.01157  1.0000
  C   C3        1.0  0.94772  0.05921  0.01157  1.0000
  C   C4        1.0  0.55228  0.55921  0.51157  1.0000
  C   C5        1.0  0.39745  0.25463  0.40648  1.0000
  C   C6        1.0  0.10255  0.75463  0.90648  1.0000
  C   C7        1.0  0.89745  0.24537  0.90648  1.0000
  C   C8        1.0  0.60255  0.74537  0.40648  1.0000
  C   C9        1.0  0.45672  0.18119  0.30110  1.0000
  C   C10       1.0  0.04328  0.68119  0.80110  1.0000
  C   C11       1.0  0.95672  0.31881  0.80110  1.0000
  C   C12       1.0  0.54328  0.81881  0.30110  1.0000
  C   C13       1.0  0.45328  0.18066  0.09222  1.0000
  C   C14       1.0  0.04672  0.68066  0.59222  1.0000
  C   C15       1.0  0.95328  0.31934  0.59222  1.0000
  C   C16       1.0  0.54672  0.81934  0.09222  1.0000
  C   C17       1.0  0.39414  0.25499  0.98739  1.0000
  C   C18       1.0  0.10586  0.75499  0.48739  1.0000
  C   C19       1.0  0.89414  0.24501  0.48739  1.0000
  C   C20       1.0  0.60586  0.74501  0.98739  1.0000
  C   C21       1.0  0.44603  0.44163  0.88341  1.0000
  C   C22       1.0  0.05397  0.94163  0.38341  1.0000
  C   C23       1.0  0.94603  0.05837  0.38341  1.0000
  C   C24       1.0  0.55397  0.55837  0.88341  1.0000
  O   O1        1.0  0.49797  0.36631  0.41367  1.0000
  O   O2        1.0  0.00204  0.86631  0.91367  1.0000
  O   O3        1.0  0.99796  0.13369  0.91367  1.0000
  O   O4        1.0  0.50203  0.63369  0.41367  1.0000
  O   O5        1.0  0.40944  0.24646  0.19686  1.0000
  O   O6        1.0  0.09056  0.74646  0.69686  1.0000
  O   O7        1.0  0.90944  0.25354  0.69686  1.0000
  O   O8        1.0  0.59056  0.75354  0.19686  1.0000
  O   O9        1.0  0.49653  0.36575  0.98026  1.0000
  O   O10       1.0  0.00347  0.86575  0.48026  1.0000
  O   O11       1.0  0.99653  0.13425  0.48026  1.0000
  O   O12       1.0  0.50347  0.63425  0.98026  1.0000
  F   F1        1.0  0.14989  0.49093  0.09731  1.0000
  F   F2        1.0  0.35011  0.99093  0.59731  1.0000
  F   F3        1.0  0.64989  0.00907  0.59731  1.0000
  F   F4        1.0  0.85011  0.50907  0.09731  1.0000
  F   F5        1.0  0.14978  0.49086  0.30189  1.0000
  F   F6        1.0  0.35022  0.99086  0.80189  1.0000
  F   F7        1.0  0.64978  0.00914  0.80189  1.0000
  F   F8        1.0  0.85022  0.50914  0.30189  1.0000
  F   F9        1.0  0.01850  0.65167  0.19952  1.0000
  F   F10       1.0  0.48150  0.15167  0.69952  1.0000
  F   F11       1.0  0.51850  0.84833  0.69952  1.0000
  F   F12       1.0  0.98150  0.34833  0.19952  1.0000
