data_image0
_chemical_formula_structural       Hg2H48C56N8Cl4O6
_chemical_formula_sum              "Hg2 H48 C56 N8 Cl4 O6"
_cell_length_a       8.50388
_cell_length_b       12.8172
_cell_length_c       13.0616
_cell_angle_alpha    94.3066
_cell_angle_beta     98.3329
_cell_angle_gamma    98.1178

_space_group_name_H-M_alt    "P 1"
_space_group_IT_number       1

loop_
  _space_group_symop_operation_xyz
  'x, y, z'

loop_
  _atom_site_type_symbol
  _atom_site_label
  _atom_site_symmetry_multiplicity
  _atom_site_fract_x
  _atom_site_fract_y
  _atom_site_fract_z
  _atom_site_occupancy
  Hg  Hg1       1.0  0.44146  0.37705  0.35774  1.0000
  Hg  Hg2       1.0  0.55854  0.62295  0.64225  1.0000
  H   H1        1.0  0.82217  0.42247  0.43036  1.0000
  H   H2        1.0  0.17783  0.57754  0.56964  1.0000
  H   H3        1.0  0.04800  0.41317  0.57350  1.0000
  H   H4        1.0  0.95201  0.58683  0.42650  1.0000
  H   H5        1.0  0.69304  0.28530  0.75428  1.0000
  H   H6        1.0  0.30696  0.71470  0.24572  1.0000
  H   H7        1.0  0.48012  0.30377  0.60413  1.0000
  H   H8        1.0  0.51988  0.69623  0.39586  1.0000
  H   H9        1.0  0.13855  0.37231  0.74844  1.0000
  H   H10       1.0  0.86145  0.62769  0.25157  1.0000
  H   H11       1.0  0.00082  0.38900  0.83587  1.0000
  H   H12       1.0  0.99916  0.61100  0.16413  1.0000
  H   H13       1.0  0.17464  0.26464  0.63232  1.0000
  H   H14       1.0  0.82536  0.73536  0.36769  1.0000
  H   H15       1.0  0.24927  0.12187  0.52509  1.0000
  H   H16       1.0  0.75073  0.87814  0.47491  1.0000
  H   H17       1.0  0.02585  0.89189  0.70309  1.0000
  H   H18       1.0  0.97414  0.10812  0.29691  1.0000
  H   H19       1.0  0.18163  0.92476  0.45823  1.0000
  H   H20       1.0  0.81836  0.07525  0.54177  1.0000
  H   H21       1.0  0.11146  0.83229  0.54219  1.0000
  H   H22       1.0  0.88853  0.16771  0.45781  1.0000
  H   H23       1.0  0.31471  0.89496  0.56596  1.0000
  H   H24       1.0  0.68529  0.10504  0.43404  1.0000
  H   H25       1.0  0.87221  0.73413  0.85395  1.0000
  H   H26       1.0  0.12780  0.26586  0.14606  1.0000
  H   H27       1.0  0.62102  0.53840  0.05027  1.0000
  H   H28       1.0  0.37900  0.46160  0.94974  1.0000
  H   H29       1.0  0.53847  0.69430  0.13418  1.0000
  H   H30       1.0  0.46153  0.30570  0.86582  1.0000
  H   H31       1.0  0.81382  0.53863  0.81141  1.0000
  H   H32       1.0  0.18620  0.46136  0.18860  1.0000
  H   H33       1.0  0.71622  0.45706  0.89495  1.0000
  H   H34       1.0  0.28380  0.54294  0.10507  1.0000
  H   H35       1.0  0.92090  0.51544  0.93214  1.0000
  H   H36       1.0  0.07912  0.48455  0.06787  1.0000
  H   H37       1.0  0.58107  0.84740  0.23029  1.0000
  H   H38       1.0  0.41893  0.15260  0.76970  1.0000
  H   H39       1.0  0.40304  0.84854  0.13726  1.0000
  H   H40       1.0  0.59695  0.15145  0.86274  1.0000
  H   H41       1.0  0.66705  0.08056  0.11038  1.0000
  H   H42       1.0  0.33295  0.91943  0.88961  1.0000
  H   H43       1.0  0.63436  0.26158  0.18741  1.0000
  H   H44       1.0  0.36564  0.73842  0.81259  1.0000
  H   H45       1.0  0.33266  0.13266  0.38204  1.0000
  H   H46       1.0  0.66734  0.86733  0.61796  1.0000
  H   H47       1.0  0.36129  0.94769  0.32011  1.0000
  H   H48       1.0  0.63871  0.05231  0.67988  1.0000
  C   C1        1.0  0.79890  0.39387  0.50413  1.0000
  C   C2        1.0  0.20111  0.60613  0.49587  1.0000
  C   C3        1.0  0.92396  0.38870  0.58431  1.0000
  C   C4        1.0  0.07604  0.61130  0.41569  1.0000
  C   C5        1.0  0.88810  0.34977  0.67652  1.0000
  C   C6        1.0  0.11189  0.65024  0.32348  1.0000
  C   C7        1.0  0.72601  0.31694  0.68378  1.0000
  C   C8        1.0  0.27398  0.68306  0.31622  1.0000
  C   C9        1.0  0.60787  0.32587  0.60069  1.0000
  C   C10       1.0  0.39213  0.67413  0.39931  1.0000
  C   C11       1.0  0.01875  0.34223  0.76583  1.0000
  C   C12       1.0  0.98124  0.65777  0.23417  1.0000
  C   C13       1.0  0.05735  0.16148  0.73215  1.0000
  C   C14       1.0  0.94265  0.83852  0.26785  1.0000
  C   C15       1.0  0.14293  0.18363  0.65050  1.0000
  C   C16       1.0  0.85706  0.81637  0.34949  1.0000
  C   C17       1.0  0.18578  0.10154  0.58938  1.0000
  C   C18       1.0  0.81421  0.89847  0.41062  1.0000
  C   C19       1.0  0.14503  0.99523  0.60645  1.0000
  C   C20       1.0  0.85496  0.00477  0.39355  1.0000
  C   C21       1.0  0.06044  0.97390  0.68829  1.0000
  C   C22       1.0  0.93956  0.02611  0.31171  1.0000
  C   C23       1.0  0.01639  0.05468  0.75228  1.0000
  C   C24       1.0  0.98361  0.94532  0.24772  1.0000
  C   C25       1.0  0.19046  0.90715  0.53967  1.0000
  C   C26       1.0  0.80954  0.09285  0.46033  1.0000
  C   C27       1.0  0.92874  0.02653  0.83596  1.0000
  C   C28       1.0  0.07124  0.97347  0.16404  1.0000
  C   C29       1.0  0.81174  0.91904  0.93138  1.0000
  C   C30       1.0  0.18825  0.08096  0.06863  1.0000
  C   C31       1.0  0.75682  0.81653  0.96402  1.0000
  C   C32       1.0  0.24318  0.18347  0.03599  1.0000
  C   C33       1.0  0.79928  0.72519  0.91575  1.0000
  C   C34       1.0  0.20073  0.27480  0.08426  1.0000
  C   C35       1.0  0.75163  0.62444  0.94462  1.0000
  C   C36       1.0  0.24839  0.37556  0.05539  1.0000
  C   C37       1.0  0.65798  0.61576  0.02428  1.0000
  C   C38       1.0  0.34203  0.38424  0.97572  1.0000
  C   C39       1.0  0.61115  0.70447  0.07256  1.0000
  C   C40       1.0  0.38884  0.29552  0.92744  1.0000
  C   C41       1.0  0.65987  0.80531  0.04325  1.0000
  C   C42       1.0  0.34012  0.19468  0.95675  1.0000
  C   C43       1.0  0.80273  0.52876  0.89296  1.0000
  C   C44       1.0  0.19729  0.47124  0.10705  1.0000
  C   C45       1.0  0.52601  0.88996  0.16738  1.0000
  C   C46       1.0  0.47398  0.11004  0.83262  1.0000
  C   C47       1.0  0.51639  0.00036  0.20964  1.0000
  C   C48       1.0  0.48360  0.99964  0.79035  1.0000
  C   C49       1.0  0.59471  0.08964  0.17213  1.0000
  C   C50       1.0  0.40529  0.91035  0.82787  1.0000
  C   C51       1.0  0.57616  0.18940  0.21415  1.0000
  C   C52       1.0  0.42384  0.81060  0.78585  1.0000
  C   C53       1.0  0.40921  0.11743  0.32414  1.0000
  C   C54       1.0  0.59079  0.88257  0.67585  1.0000
  C   C55       1.0  0.42394  0.01506  0.28833  1.0000
  C   C56       1.0  0.57605  0.98493  0.71166  1.0000
  N   N1        1.0  0.86836  0.08453  0.90337  1.0000
  N   N2        1.0  0.13163  0.91546  0.09663  1.0000
  N   N3        1.0  0.79342  0.01544  0.96488  1.0000
  N   N4        1.0  0.20657  0.98456  0.03512  1.0000
  N   N5        1.0  0.48403  0.20315  0.28800  1.0000
  N   N6        1.0  0.51597  0.79684  0.71200  1.0000
  N   N7        1.0  0.64398  0.36394  0.51227  1.0000
  N   N8        1.0  0.35603  0.63606  0.48772  1.0000
  Cl  Cl1       1.0  0.61175  0.49557  0.27114  1.0000
  Cl  Cl2       1.0  0.38825  0.50443  0.72886  1.0000
  Cl  Cl3       1.0  0.18610  0.32171  0.41101  1.0000
  Cl  Cl4       1.0  0.81391  0.67829  0.58899  1.0000
  O   O1        1.0  0.89773  0.92079  0.84996  1.0000
  O   O2        1.0  0.10226  0.07921  0.15005  1.0000
  O   O3        1.0  0.62130  0.89586  0.08655  1.0000
  O   O4        1.0  0.37871  0.10413  0.91345  1.0000
  O   O5        1.0  0.00974  0.23622  0.79553  1.0000
  O   O6        1.0  0.99026  0.76379  0.20447  1.0000
