data_image0
_chemical_formula_structural       Hg2H48C56Br4N8O6
_chemical_formula_sum              "Hg2 H48 C56 Br4 N8 O6"
_cell_length_a       8.66651
_cell_length_b       12.9487
_cell_length_c       12.9736
_cell_angle_alpha    95.0945
_cell_angle_beta     99.0856
_cell_angle_gamma    98.0663

_space_group_name_H-M_alt    "P 1"
_space_group_IT_number       1

loop_
  _space_group_symop_operation_xyz
  'x, y, z'

loop_
  _atom_site_type_symbol
  _atom_site_label
  _atom_site_symmetry_multiplicity
  _atom_site_fract_x
  _atom_site_fract_y
  _atom_site_fract_z
  _atom_site_occupancy
  Hg  Hg1       1.0  0.44322  0.37147  0.35991  1.0000
  Hg  Hg2       1.0  0.55678  0.62852  0.64009  1.0000
  H   H1        1.0  0.81761  0.42623  0.43704  1.0000
  H   H2        1.0  0.18239  0.57377  0.56296  1.0000
  H   H3        1.0  0.04108  0.41781  0.58305  1.0000
  H   H4        1.0  0.95892  0.58219  0.41695  1.0000
  H   H5        1.0  0.69533  0.27740  0.75545  1.0000
  H   H6        1.0  0.30466  0.72260  0.24455  1.0000
  H   H7        1.0  0.48466  0.29545  0.60379  1.0000
  H   H8        1.0  0.51533  0.70455  0.39621  1.0000
  H   H9        1.0  0.13176  0.37028  0.75570  1.0000
  H   H10       1.0  0.86824  0.62972  0.24430  1.0000
  H   H11       1.0  0.99733  0.38700  0.84331  1.0000
  H   H12       1.0  0.00267  0.61300  0.15669  1.0000
  H   H13       1.0  0.16633  0.26327  0.63757  1.0000
  H   H14       1.0  0.83367  0.73673  0.36244  1.0000
  H   H15       1.0  0.24162  0.12177  0.52972  1.0000
  H   H16       1.0  0.75837  0.87824  0.47027  1.0000
  H   H17       1.0  0.02536  0.89438  0.70638  1.0000
  H   H18       1.0  0.97464  0.10562  0.29362  1.0000
  H   H19       1.0  0.17122  0.92217  0.46113  1.0000
  H   H20       1.0  0.82878  0.07784  0.53887  1.0000
  H   H21       1.0  0.11987  0.83336  0.55125  1.0000
  H   H22       1.0  0.88012  0.16664  0.44874  1.0000
  H   H23       1.0  0.31487  0.90370  0.56866  1.0000
  H   H24       1.0  0.68512  0.09630  0.43134  1.0000
  H   H25       1.0  0.87582  0.73836  0.85349  1.0000
  H   H26       1.0  0.12418  0.26164  0.14650  1.0000
  H   H27       1.0  0.62368  0.54100  0.04127  1.0000
  H   H28       1.0  0.37633  0.45900  0.95873  1.0000
  H   H29       1.0  0.53774  0.69408  0.12636  1.0000
  H   H30       1.0  0.46227  0.30592  0.87365  1.0000
  H   H31       1.0  0.81483  0.54133  0.80596  1.0000
  H   H32       1.0  0.18517  0.45867  0.19404  1.0000
  H   H33       1.0  0.73307  0.46163  0.89484  1.0000
  H   H34       1.0  0.26693  0.53837  0.10516  1.0000
  H   H35       1.0  0.93177  0.52764  0.92737  1.0000
  H   H36       1.0  0.06823  0.47236  0.07263  1.0000
  H   H37       1.0  0.58015  0.84559  0.22740  1.0000
  H   H38       1.0  0.41985  0.15440  0.77260  1.0000
  H   H39       1.0  0.40496  0.84651  0.13218  1.0000
  H   H40       1.0  0.59503  0.15349  0.86782  1.0000
  H   H41       1.0  0.66463  0.07763  0.11227  1.0000
  H   H42       1.0  0.33537  0.92237  0.88774  1.0000
  H   H43       1.0  0.63171  0.25662  0.19237  1.0000
  H   H44       1.0  0.36829  0.74338  0.80763  1.0000
  H   H45       1.0  0.33360  0.12709  0.38269  1.0000
  H   H46       1.0  0.66640  0.87290  0.61731  1.0000
  H   H47       1.0  0.36201  0.94422  0.31740  1.0000
  H   H48       1.0  0.63799  0.05578  0.68259  1.0000
  C   C1        1.0  0.79589  0.39484  0.50970  1.0000
  C   C2        1.0  0.20411  0.60516  0.49030  1.0000
  C   C3        1.0  0.91938  0.39003  0.59116  1.0000
  C   C4        1.0  0.08062  0.60997  0.40884  1.0000
  C   C5        1.0  0.88532  0.34754  0.68159  1.0000
  C   C6        1.0  0.11468  0.65246  0.31841  1.0000
  C   C7        1.0  0.72662  0.31130  0.68614  1.0000
  C   C8        1.0  0.27337  0.68871  0.31386  1.0000
  C   C9        1.0  0.60983  0.32009  0.60207  1.0000
  C   C10       1.0  0.39016  0.67991  0.39793  1.0000
  C   C11       1.0  0.01418  0.34033  0.77230  1.0000
  C   C12       1.0  0.98582  0.65967  0.22770  1.0000
  C   C13       1.0  0.05247  0.16128  0.73683  1.0000
  C   C14       1.0  0.94753  0.83872  0.26317  1.0000
  C   C15       1.0  0.13625  0.18313  0.65540  1.0000
  C   C16       1.0  0.86375  0.81687  0.34460  1.0000
  C   C17       1.0  0.17982  0.10178  0.59402  1.0000
  C   C18       1.0  0.82018  0.89822  0.40598  1.0000
  C   C19       1.0  0.14168  0.99654  0.61077  1.0000
  C   C20       1.0  0.85832  0.00346  0.38923  1.0000
  C   C21       1.0  0.05816  0.97554  0.69198  1.0000
  C   C22       1.0  0.94184  0.02447  0.30802  1.0000
  C   C23       1.0  0.01280  0.05557  0.75596  1.0000
  C   C24       1.0  0.98720  0.94444  0.24404  1.0000
  C   C25       1.0  0.18926  0.90930  0.54441  1.0000
  C   C26       1.0  0.81074  0.09071  0.45559  1.0000
  C   C27       1.0  0.92561  0.02740  0.83860  1.0000
  C   C28       1.0  0.07439  0.97260  0.16140  1.0000
  C   C29       1.0  0.80996  0.92010  0.93151  1.0000
  C   C30       1.0  0.19004  0.07990  0.06849  1.0000
  C   C31       1.0  0.75686  0.81809  0.96224  1.0000
  C   C32       1.0  0.24314  0.18191  0.03776  1.0000
  C   C33       1.0  0.80219  0.72848  0.91377  1.0000
  C   C34       1.0  0.19781  0.27153  0.08623  1.0000
  C   C35       1.0  0.75624  0.62823  0.94059  1.0000
  C   C36       1.0  0.24376  0.37177  0.05941  1.0000
  C   C37       1.0  0.66064  0.61821  0.01774  1.0000
  C   C38       1.0  0.33936  0.38179  0.98226  1.0000
  C   C39       1.0  0.61174  0.70528  0.06656  1.0000
  C   C40       1.0  0.38826  0.29472  0.93344  1.0000
  C   C41       1.0  0.65962  0.80574  0.03983  1.0000
  C   C42       1.0  0.34038  0.19426  0.96017  1.0000
  C   C43       1.0  0.81123  0.53460  0.88936  1.0000
  C   C44       1.0  0.18877  0.46540  0.11064  1.0000
  C   C45       1.0  0.52574  0.88800  0.16448  1.0000
  C   C46       1.0  0.47425  0.11199  0.83552  1.0000
  C   C47       1.0  0.51577  0.99718  0.20905  1.0000
  C   C48       1.0  0.48422  0.00282  0.79095  1.0000
  C   C49       1.0  0.59313  0.08607  0.17377  1.0000
  C   C50       1.0  0.40687  0.91393  0.82623  1.0000
  C   C51       1.0  0.57442  0.18471  0.21741  1.0000
  C   C52       1.0  0.42557  0.81529  0.78259  1.0000
  C   C53       1.0  0.40934  0.11253  0.32497  1.0000
  C   C54       1.0  0.59066  0.88747  0.67503  1.0000
  C   C55       1.0  0.42423  0.01124  0.28740  1.0000
  C   C56       1.0  0.57577  0.98876  0.71259  1.0000
  Br  Br1       1.0  0.61259  0.49693  0.26746  1.0000
  Br  Br2       1.0  0.38741  0.50306  0.73254  1.0000
  Br  Br3       1.0  0.17331  0.31907  0.40881  1.0000
  Br  Br4       1.0  0.82669  0.68093  0.59119  1.0000
  N   N1        1.0  0.86473  0.08437  0.90618  1.0000
  N   N2        1.0  0.13527  0.91563  0.09382  1.0000
  N   N3        1.0  0.79068  0.01539  0.96611  1.0000
  N   N4        1.0  0.20932  0.98461  0.03389  1.0000
  N   N5        1.0  0.48318  0.19780  0.29080  1.0000
  N   N6        1.0  0.51682  0.80219  0.70920  1.0000
  N   N7        1.0  0.64419  0.36116  0.51516  1.0000
  N   N8        1.0  0.35580  0.63884  0.48484  1.0000
  O   O1        1.0  0.89571  0.92257  0.85096  1.0000
  O   O2        1.0  0.10429  0.07744  0.14904  1.0000
  O   O3        1.0  0.61958  0.89488  0.08411  1.0000
  O   O4        1.0  0.38042  0.10512  0.91589  1.0000
  O   O5        1.0  0.00537  0.23545  0.80097  1.0000
  O   O6        1.0  0.99463  0.76455  0.19903  1.0000
