data_image0
_chemical_formula_structural       Hg2H48C56I4N8O6
_chemical_formula_sum              "Hg2 H48 C56 I4 N8 O6"
_cell_length_a       8.747
_cell_length_b       13.13
_cell_length_c       13.0765
_cell_angle_alpha    95.7826
_cell_angle_beta     99.745
_cell_angle_gamma    96.4031

_space_group_name_H-M_alt    "P 1"
_space_group_IT_number       1

loop_
  _space_group_symop_operation_xyz
  'x, y, z'

loop_
  _atom_site_type_symbol
  _atom_site_label
  _atom_site_symmetry_multiplicity
  _atom_site_fract_x
  _atom_site_fract_y
  _atom_site_fract_z
  _atom_site_occupancy
  Hg  Hg1       1.0  0.44625  0.36870  0.35802  1.0000
  Hg  Hg2       1.0  0.55376  0.63130  0.64198  1.0000
  H   H1        1.0  0.81359  0.43212  0.45003  1.0000
  H   H2        1.0  0.18642  0.56788  0.54996  1.0000
  H   H3        1.0  0.02996  0.42288  0.60028  1.0000
  H   H4        1.0  0.97005  0.57713  0.39972  1.0000
  H   H5        1.0  0.68854  0.25819  0.74673  1.0000
  H   H6        1.0  0.31147  0.74182  0.25327  1.0000
  H   H7        1.0  0.48425  0.27798  0.59220  1.0000
  H   H8        1.0  0.51576  0.72202  0.40779  1.0000
  H   H9        1.0  0.11745  0.36134  0.76533  1.0000
  H   H10       1.0  0.88255  0.63866  0.23467  1.0000
  H   H11       1.0  0.97943  0.37725  0.84851  1.0000
  H   H12       1.0  0.02058  0.62276  0.15149  1.0000
  H   H13       1.0  0.15459  0.25630  0.64561  1.0000
  H   H14       1.0  0.84541  0.74370  0.35440  1.0000
  H   H15       1.0  0.23294  0.11681  0.53675  1.0000
  H   H16       1.0  0.76706  0.88320  0.46325  1.0000
  H   H17       1.0  0.02781  0.89325  0.70919  1.0000
  H   H18       1.0  0.97218  0.10675  0.29080  1.0000
  H   H19       1.0  0.20464  0.93080  0.47273  1.0000
  H   H20       1.0  0.79535  0.06921  0.52726  1.0000
  H   H21       1.0  0.09772  0.83932  0.53373  1.0000
  H   H22       1.0  0.90227  0.16069  0.46627  1.0000
  H   H23       1.0  0.29635  0.88356  0.58710  1.0000
  H   H24       1.0  0.70365  0.11644  0.41290  1.0000
  H   H25       1.0  0.88911  0.73937  0.85634  1.0000
  H   H26       1.0  0.11088  0.26063  0.14366  1.0000
  H   H27       1.0  0.62996  0.54543  0.03074  1.0000
  H   H28       1.0  0.37003  0.45456  0.96925  1.0000
  H   H29       1.0  0.54010  0.69702  0.11553  1.0000
  H   H30       1.0  0.45989  0.30297  0.88447  1.0000
  H   H31       1.0  0.82896  0.54424  0.80473  1.0000
  H   H32       1.0  0.17104  0.45576  0.19528  1.0000
  H   H33       1.0  0.75104  0.46711  0.89277  1.0000
  H   H34       1.0  0.24896  0.53289  0.10723  1.0000
  H   H35       1.0  0.94602  0.53203  0.92612  1.0000
  H   H36       1.0  0.05398  0.46797  0.07388  1.0000
  H   H37       1.0  0.58349  0.84632  0.22062  1.0000
  H   H38       1.0  0.41651  0.15367  0.77938  1.0000
  H   H39       1.0  0.41026  0.84934  0.12494  1.0000
  H   H40       1.0  0.58974  0.15066  0.87507  1.0000
  H   H41       1.0  0.65988  0.07384  0.10595  1.0000
  H   H42       1.0  0.34012  0.92616  0.89405  1.0000
  H   H43       1.0  0.62631  0.25109  0.18682  1.0000
  H   H44       1.0  0.37369  0.74891  0.81318  1.0000
  H   H45       1.0  0.34404  0.12808  0.37997  1.0000
  H   H46       1.0  0.65596  0.87192  0.62003  1.0000
  H   H47       1.0  0.37224  0.94719  0.31282  1.0000
  H   H48       1.0  0.62776  0.05281  0.68718  1.0000
  C   C1        1.0  0.79104  0.39476  0.51790  1.0000
  C   C2        1.0  0.20897  0.60524  0.48210  1.0000
  C   C3        1.0  0.91063  0.38931  0.60150  1.0000
  C   C4        1.0  0.08938  0.61069  0.39850  1.0000
  C   C5        1.0  0.87583  0.33957  0.68567  1.0000
  C   C6        1.0  0.12417  0.66043  0.31432  1.0000
  C   C7        1.0  0.72033  0.29751  0.68232  1.0000
  C   C8        1.0  0.27968  0.70249  0.31768  1.0000
  C   C9        1.0  0.60735  0.30736  0.59664  1.0000
  C   C10       1.0  0.39266  0.69265  0.40336  1.0000
  C   C11       1.0  0.00058  0.33165  0.77844  1.0000
  C   C12       1.0  0.99942  0.66835  0.22156  1.0000
  C   C13       1.0  0.04468  0.15561  0.74177  1.0000
  C   C14       1.0  0.95532  0.84439  0.25824  1.0000
  C   C15       1.0  0.12721  0.17731  0.66204  1.0000
  C   C16       1.0  0.87279  0.82270  0.33797  1.0000
  C   C17       1.0  0.17272  0.09724  0.60021  1.0000
  C   C18       1.0  0.82728  0.90276  0.39979  1.0000
  C   C19       1.0  0.13817  0.99377  0.61530  1.0000
  C   C20       1.0  0.86182  0.00624  0.38470  1.0000
  C   C21       1.0  0.05700  0.97303  0.69563  1.0000
  C   C22       1.0  0.94299  0.02697  0.30436  1.0000
  C   C23       1.0  0.00924  0.05155  0.75955  1.0000
  C   C24       1.0  0.99076  0.94846  0.24045  1.0000
  C   C25       1.0  0.18678  0.90750  0.54861  1.0000
  C   C26       1.0  0.81321  0.09251  0.45139  1.0000
  C   C27       1.0  0.92379  0.02384  0.84066  1.0000
  C   C28       1.0  0.07620  0.97616  0.15934  1.0000
  C   C29       1.0  0.81384  0.91853  0.93169  1.0000
  C   C30       1.0  0.18615  0.08146  0.06831  1.0000
  C   C31       1.0  0.76408  0.81831  0.96098  1.0000
  C   C32       1.0  0.23591  0.18168  0.03902  1.0000
  C   C33       1.0  0.81330  0.72989  0.91374  1.0000
  C   C34       1.0  0.18669  0.27011  0.08626  1.0000
  C   C35       1.0  0.76776  0.63120  0.93775  1.0000
  C   C36       1.0  0.23224  0.36880  0.06224  1.0000
  C   C37       1.0  0.66826  0.62166  0.01057  1.0000
  C   C38       1.0  0.33173  0.37834  0.98942  1.0000
  C   C39       1.0  0.61690  0.70772  0.05899  1.0000
  C   C40       1.0  0.38309  0.29228  0.94100  1.0000
  C   C41       1.0  0.66492  0.80652  0.03540  1.0000
  C   C42       1.0  0.33508  0.19348  0.96460  1.0000
  C   C43       1.0  0.82598  0.53859  0.88763  1.0000
  C   C44       1.0  0.17402  0.46141  0.11237  1.0000
  C   C45       1.0  0.52928  0.88888  0.15832  1.0000
  C   C46       1.0  0.47072  0.11111  0.84169  1.0000
  C   C47       1.0  0.51826  0.99688  0.20335  1.0000
  C   C48       1.0  0.48175  0.00311  0.79665  1.0000
  C   C49       1.0  0.59113  0.08339  0.16781  1.0000
  C   C50       1.0  0.40887  0.91661  0.83219  1.0000
  C   C51       1.0  0.57221  0.18110  0.21204  1.0000
  C   C52       1.0  0.42779  0.81889  0.78796  1.0000
  C   C53       1.0  0.41588  0.11254  0.32095  1.0000
  C   C54       1.0  0.58412  0.88746  0.67905  1.0000
  C   C55       1.0  0.43085  0.01231  0.28255  1.0000
  C   C56       1.0  0.56915  0.98769  0.71745  1.0000
  I   I1        1.0  0.61789  0.50020  0.26224  1.0000
  I   I2        1.0  0.38212  0.49978  0.73775  1.0000
  I   I3        1.0  0.16237  0.31804  0.40785  1.0000
  I   I4        1.0  0.83764  0.68196  0.59216  1.0000
  N   N1        1.0  0.86153  0.08005  0.90778  1.0000
  N   N2        1.0  0.13847  0.91995  0.09222  1.0000
  N   N3        1.0  0.79122  0.01236  0.96648  1.0000
  N   N4        1.0  0.20877  0.98764  0.03352  1.0000
  N   N5        1.0  0.48533  0.19555  0.28650  1.0000
  N   N6        1.0  0.51467  0.80445  0.71350  1.0000
  N   N7        1.0  0.64245  0.35486  0.51547  1.0000
  N   N8        1.0  0.35756  0.64514  0.48453  1.0000
  O   O1        1.0  0.89821  0.92072  0.85206  1.0000
  O   O2        1.0  0.10179  0.07928  0.14794  1.0000
  O   O3        1.0  0.62262  0.89459  0.07947  1.0000
  O   O4        1.0  0.37738  0.10541  0.92054  1.0000
  O   O5        1.0  0.99499  0.22852  0.80567  1.0000
  O   O6        1.0  0.00501  0.77148  0.19433  1.0000
