data_image0
_chemical_formula_structural       Cd4P4H40C8N4Cl4O20
_chemical_formula_sum              "Cd4 P4 H40 C8 N4 Cl4 O20"
_cell_length_a       6.87129
_cell_length_b       7.12034
_cell_length_c       16.3554
_cell_angle_alpha    89.9997
_cell_angle_beta     100.177
_cell_angle_gamma    89.9998

_space_group_name_H-M_alt    "P 1"
_space_group_IT_number       1

loop_
  _space_group_symop_operation_xyz
  'x, y, z'

loop_
  _atom_site_type_symbol
  _atom_site_label
  _atom_site_symmetry_multiplicity
  _atom_site_fract_x
  _atom_site_fract_y
  _atom_site_fract_z
  _atom_site_occupancy
  Cd  Cd1       1.0  0.46760  0.90590  0.88539  1.0000
  Cd  Cd2       1.0  0.96760  0.59409  0.38539  1.0000
  Cd  Cd3       1.0  0.53241  0.09410  0.11461  1.0000
  Cd  Cd4       1.0  0.03242  0.40591  0.61461  1.0000
  P   P1        1.0  0.95494  0.93931  0.85667  1.0000
  P   P2        1.0  0.45494  0.56068  0.35666  1.0000
  P   P3        1.0  0.04506  0.06073  0.14333  1.0000
  P   P4        1.0  0.54507  0.43929  0.64334  1.0000
  H   H1        1.0  0.83945  0.22907  0.96526  1.0000
  H   H2        1.0  0.33946  0.27094  0.46526  1.0000
  H   H3        1.0  0.16052  0.77093  0.03475  1.0000
  H   H4        1.0  0.66053  0.72906  0.53475  1.0000
  H   H5        1.0  0.08128  0.19432  0.99236  1.0000
  H   H6        1.0  0.58130  0.30568  0.49236  1.0000
  H   H7        1.0  0.91871  0.80568  0.00765  1.0000
  H   H8        1.0  0.41872  0.69433  0.50765  1.0000
  H   H9        1.0  0.45018  0.50185  0.88394  1.0000
  H   H10       1.0  0.95019  0.99815  0.38394  1.0000
  H   H11       1.0  0.54981  0.49815  0.11606  1.0000
  H   H12       1.0  0.04981  0.00185  0.61606  1.0000
  H   H13       1.0  0.51744  0.52008  0.79689  1.0000
  H   H14       1.0  0.01743  0.97991  0.29689  1.0000
  H   H15       1.0  0.48256  0.47991  0.20310  1.0000
  H   H16       1.0  0.98258  0.02009  0.70311  1.0000
  H   H17       1.0  0.49752  0.17289  0.75285  1.0000
  H   H18       1.0  0.99752  0.32711  0.25284  1.0000
  H   H19       1.0  0.50249  0.82711  0.24715  1.0000
  H   H20       1.0  0.00249  0.67289  0.74715  1.0000
  H   H21       1.0  0.29386  0.06626  0.72268  1.0000
  H   H22       1.0  0.79384  0.43373  0.22268  1.0000
  H   H23       1.0  0.70616  0.93373  0.27732  1.0000
  H   H24       1.0  0.20615  0.56626  0.77732  1.0000
  H   H25       1.0  0.11283  0.24080  0.84354  1.0000
  H   H26       1.0  0.61285  0.25921  0.34354  1.0000
  H   H27       1.0  0.88714  0.75921  0.15647  1.0000
  H   H28       1.0  0.38716  0.74078  0.65647  1.0000
  H   H29       1.0  0.85093  0.26379  0.81990  1.0000
  H   H30       1.0  0.35094  0.23620  0.31990  1.0000
  H   H31       1.0  0.14906  0.73621  0.18011  1.0000
  H   H32       1.0  0.64908  0.76380  0.68011  1.0000
  H   H33       1.0  0.89600  0.53915  0.90977  1.0000
  H   H34       1.0  0.39602  0.96086  0.40978  1.0000
  H   H35       1.0  0.10396  0.46084  0.09022  1.0000
  H   H36       1.0  0.60400  0.03915  0.59022  1.0000
  H   H37       1.0  0.15365  0.49827  0.94176  1.0000
  H   H38       1.0  0.65366  0.00172  0.44176  1.0000
  H   H39       1.0  0.84633  0.50172  0.05823  1.0000
  H   H40       1.0  0.34636  0.99829  0.55824  1.0000
  C   C1        1.0  0.97373  0.19572  0.86158  1.0000
  C   C2        1.0  0.47375  0.30427  0.36159  1.0000
  C   C3        1.0  0.02625  0.80420  0.13838  1.0000
  C   C4        1.0  0.52626  0.69579  0.63839  1.0000
  C   C5        1.0  0.00691  0.46893  0.95617  1.0000
  C   C6        1.0  0.50691  0.03109  0.45616  1.0000
  C   C7        1.0  0.99307  0.53115  0.04386  1.0000
  C   C8        1.0  0.49309  0.96887  0.54385  1.0000
  N   N1        1.0  0.97401  0.26281  0.94795  1.0000
  N   N2        1.0  0.47403  0.23720  0.44794  1.0000
  N   N3        1.0  0.02596  0.73718  0.05205  1.0000
  N   N4        1.0  0.52598  0.76282  0.55205  1.0000
  Cl  Cl1       1.0  0.49068  0.24841  0.95685  1.0000
  Cl  Cl2       1.0  0.99069  0.25159  0.45686  1.0000
  Cl  Cl3       1.0  0.50932  0.75159  0.04315  1.0000
  Cl  Cl4       1.0  0.00932  0.74840  0.54314  1.0000
  O   O1        1.0  0.89896  0.88873  0.76436  1.0000
  O   O2        1.0  0.39894  0.61125  0.26436  1.0000
  O   O3        1.0  0.10108  0.11128  0.23566  1.0000
  O   O4        1.0  0.60108  0.38873  0.73566  1.0000
  O   O5        1.0  0.79761  0.88474  0.90942  1.0000
  O   O6        1.0  0.29760  0.61527  0.40942  1.0000
  O   O7        1.0  0.20243  0.11526  0.09056  1.0000
  O   O8        1.0  0.70243  0.38474  0.59057  1.0000
  O   O9        1.0  0.42712  0.05170  0.75792  1.0000
  O   O10       1.0  0.92710  0.44829  0.25792  1.0000
  O   O11       1.0  0.57289  0.94830  0.24208  1.0000
  O   O12       1.0  0.07289  0.55170  0.74208  1.0000
  O   O13       1.0  0.43971  0.58831  0.83606  1.0000
  O   O14       1.0  0.93971  0.91169  0.33605  1.0000
  O   O15       1.0  0.56028  0.41169  0.16394  1.0000
  O   O16       1.0  0.06029  0.08830  0.66394  1.0000
  O   O17       1.0  0.15459  0.86070  0.89952  1.0000
  O   O18       1.0  0.65460  0.63930  0.39951  1.0000
  O   O19       1.0  0.84535  0.13931  0.10047  1.0000
  O   O20       1.0  0.34538  0.36069  0.60048  1.0000
