data_image0
_chemical_formula_structural       Cd2H32C48I4N16O4
_chemical_formula_sum              "Cd2 H32 C48 I4 N16 O4"
_cell_length_a       4.14675
_cell_length_b       13.4907
_cell_length_c       22.4266
_cell_angle_alpha    90.0005
_cell_angle_beta     88.6956
_cell_angle_gamma    89.9999

_space_group_name_H-M_alt    "P 1"
_space_group_IT_number       1

loop_
  _space_group_symop_operation_xyz
  'x, y, z'

loop_
  _atom_site_type_symbol
  _atom_site_label
  _atom_site_symmetry_multiplicity
  _atom_site_fract_x
  _atom_site_fract_y
  _atom_site_fract_z
  _atom_site_occupancy
  Cd  Cd1       1.0  0.99999  0.50000  0.50000  1.0000
  Cd  Cd2       1.0  0.00001  0.00000  0.00000  1.0000
  H   H1        1.0  0.76082  0.64177  0.39684  1.0000
  H   H2        1.0  0.76085  0.85823  0.89684  1.0000
  H   H3        1.0  0.23918  0.35822  0.60316  1.0000
  H   H4        1.0  0.23919  0.14178  0.10316  1.0000
  H   H5        1.0  0.78527  0.81401  0.35592  1.0000
  H   H6        1.0  0.78528  0.68599  0.85592  1.0000
  H   H7        1.0  0.21472  0.18598  0.64407  1.0000
  H   H8        1.0  0.21475  0.31401  0.14408  1.0000
  H   H9        1.0  0.36449  0.89159  0.50788  1.0000
  H   H10       1.0  0.36448  0.60841  0.00788  1.0000
  H   H11       1.0  0.63550  0.10842  0.49212  1.0000
  H   H12       1.0  0.63551  0.39159  0.99212  1.0000
  H   H13       1.0  0.29430  0.71728  0.54357  1.0000
  H   H14       1.0  0.29434  0.78272  0.04356  1.0000
  H   H15       1.0  0.70568  0.28272  0.45643  1.0000
  H   H16       1.0  0.70568  0.21728  0.95643  1.0000
  H   H17       1.0  0.48076  0.14595  0.18003  1.0000
  H   H18       1.0  0.48077  0.35404  0.68003  1.0000
  H   H19       1.0  0.51921  0.85406  0.81997  1.0000
  H   H20       1.0  0.51926  0.64596  0.31997  1.0000
  H   H21       1.0  0.71327  0.03509  0.25539  1.0000
  H   H22       1.0  0.71327  0.46491  0.75539  1.0000
  H   H23       1.0  0.28669  0.96491  0.74461  1.0000
  H   H24       1.0  0.28674  0.53509  0.24461  1.0000
  H   H25       1.0  0.06260  0.29723  0.34525  1.0000
  H   H26       1.0  0.06262  0.20276  0.84525  1.0000
  H   H27       1.0  0.93739  0.70276  0.65475  1.0000
  H   H28       1.0  0.93738  0.79724  0.15475  1.0000
  H   H29       1.0  0.80634  0.39763  0.26618  1.0000
  H   H30       1.0  0.80635  0.10237  0.76618  1.0000
  H   H31       1.0  0.19366  0.60238  0.73382  1.0000
  H   H32       1.0  0.19366  0.89763  0.23382  1.0000
  C   C1        1.0  0.88978  0.70035  0.41989  1.0000
  C   C2        1.0  0.88979  0.79965  0.91989  1.0000
  C   C3        1.0  0.11021  0.29965  0.58011  1.0000
  C   C4        1.0  0.11024  0.20035  0.08011  1.0000
  C   C5        1.0  0.90667  0.79600  0.39717  1.0000
  C   C6        1.0  0.90666  0.70400  0.89717  1.0000
  C   C7        1.0  0.09333  0.20399  0.60283  1.0000
  C   C8        1.0  0.09337  0.29600  0.10283  1.0000
  C   C9        1.0  0.08183  0.86677  0.42872  1.0000
  C   C10       1.0  0.08184  0.63324  0.92872  1.0000
  C   C11       1.0  0.91817  0.13323  0.57128  1.0000
  C   C12       1.0  0.91817  0.36677  0.07127  1.0000
  C   C13       1.0  0.22473  0.83877  0.48224  1.0000
  C   C14       1.0  0.22473  0.66123  0.98224  1.0000
  C   C15       1.0  0.77526  0.16122  0.51775  1.0000
  C   C16       1.0  0.77528  0.33877  0.01776  1.0000
  C   C17       1.0  0.18721  0.74182  0.50208  1.0000
  C   C18       1.0  0.18724  0.75819  0.00208  1.0000
  C   C19       1.0  0.81277  0.25819  0.49792  1.0000
  C   C20       1.0  0.81278  0.24181  0.99792  1.0000
  C   C21       1.0  0.11818  0.96767  0.40741  1.0000
  C   C22       1.0  0.11817  0.53234  0.90741  1.0000
  C   C23       1.0  0.88180  0.03233  0.59259  1.0000
  C   C24       1.0  0.88184  0.46766  0.09259  1.0000
  C   C25       1.0  0.04215  0.09692  0.35354  1.0000
  C   C26       1.0  0.04216  0.40307  0.85353  1.0000
  C   C27       1.0  0.95782  0.90307  0.64646  1.0000
  C   C28       1.0  0.95785  0.59693  0.14647  1.0000
  C   C29       1.0  0.60832  0.17804  0.21740  1.0000
  C   C30       1.0  0.60834  0.32196  0.71740  1.0000
  C   C31       1.0  0.39166  0.82197  0.78260  1.0000
  C   C32       1.0  0.39168  0.67804  0.28260  1.0000
  C   C33       1.0  0.73983  0.11517  0.25958  1.0000
  C   C34       1.0  0.73984  0.38483  0.75958  1.0000
  C   C35       1.0  0.26013  0.88484  0.74042  1.0000
  C   C36       1.0  0.26017  0.61517  0.24042  1.0000
  C   C37       1.0  0.90609  0.15761  0.30702  1.0000
  C   C38       1.0  0.90610  0.34239  0.80702  1.0000
  C   C39       1.0  0.09389  0.84239  0.69298  1.0000
  C   C40       1.0  0.09391  0.65761  0.19298  1.0000
  C   C41       1.0  0.93459  0.26109  0.30933  1.0000
  C   C42       1.0  0.93461  0.23891  0.80933  1.0000
  C   C43       1.0  0.06539  0.73891  0.69067  1.0000
  C   C44       1.0  0.06540  0.76109  0.19067  1.0000
  C   C45       1.0  0.79149  0.31681  0.26483  1.0000
  C   C46       1.0  0.79152  0.18319  0.76483  1.0000
  C   C47       1.0  0.20851  0.68320  0.73517  1.0000
  C   C48       1.0  0.20850  0.81680  0.23517  1.0000
  I   I1        1.0  0.48501  0.45886  0.40531  1.0000
  I   I2        1.0  0.48503  0.04114  0.90531  1.0000
  I   I3        1.0  0.51498  0.54113  0.59469  1.0000
  I   I4        1.0  0.51498  0.95886  0.09469  1.0000
  N   N1        1.0  0.02571  0.67300  0.47119  1.0000
  N   N2        1.0  0.02574  0.82699  0.97119  1.0000
  N   N3        1.0  0.97429  0.32699  0.52881  1.0000
  N   N4        1.0  0.97430  0.17301  0.02881  1.0000
  N   N5        1.0  0.29035  0.03947  0.43003  1.0000
  N   N6        1.0  0.29036  0.46052  0.93003  1.0000
  N   N7        1.0  0.70963  0.96052  0.56997  1.0000
  N   N8        1.0  0.70964  0.53948  0.06997  1.0000
  N   N9        1.0  0.24149  0.12275  0.39539  1.0000
  N   N10       1.0  0.24150  0.37724  0.89539  1.0000
  N   N11       1.0  0.75848  0.87724  0.60461  1.0000
  N   N12       1.0  0.75850  0.62276  0.10461  1.0000
  N   N13       1.0  0.62888  0.27739  0.21947  1.0000
  N   N14       1.0  0.62889  0.22260  0.71947  1.0000
  N   N15       1.0  0.37111  0.72261  0.78053  1.0000
  N   N16       1.0  0.37113  0.77740  0.28054  1.0000
  O   O1        1.0  0.95660  0.99873  0.35807  1.0000
  O   O2        1.0  0.95661  0.50127  0.85807  1.0000
  O   O3        1.0  0.04337  0.00127  0.64193  1.0000
  O   O4        1.0  0.04340  0.49873  0.14193  1.0000
