data_image0
_chemical_formula_structural       Cu4H40C40N8O18
_chemical_formula_sum              "Cu4 H40 C40 N8 O18"
_cell_length_a       8.54128
_cell_length_b       12.8586
_cell_length_c       15.9818
_cell_angle_alpha    113.754
_cell_angle_beta     108.614
_cell_angle_gamma    90.0197

_space_group_name_H-M_alt    "P 1"
_space_group_IT_number       1

loop_
  _space_group_symop_operation_xyz
  'x, y, z'

loop_
  _atom_site_type_symbol
  _atom_site_label
  _atom_site_symmetry_multiplicity
  _atom_site_fract_x
  _atom_site_fract_y
  _atom_site_fract_z
  _atom_site_occupancy
  Cu  Cu1       1.0  0.96926  0.00311  0.57508  1.0000
  Cu  Cu2       1.0  0.46926  0.57196  0.57514  1.0000
  Cu  Cu3       1.0  0.03071  0.99689  0.42491  1.0000
  Cu  Cu4       1.0  0.53078  0.42804  0.42487  1.0000
  H   H1        1.0  0.85168  0.82959  0.63663  1.0000
  H   H2        1.0  0.35111  0.80715  0.63656  1.0000
  H   H3        1.0  0.14833  0.17040  0.36336  1.0000
  H   H4        1.0  0.64891  0.19284  0.36344  1.0000
  H   H5        1.0  0.77808  0.81840  0.77184  1.0000
  H   H6        1.0  0.27737  0.95362  0.77174  1.0000
  H   H7        1.0  0.22193  0.18158  0.22814  1.0000
  H   H8        1.0  0.72263  0.04638  0.22825  1.0000
  H   H9        1.0  0.89026  0.19031  0.91796  1.0000
  H   H10       1.0  0.39058  0.72834  0.91809  1.0000
  H   H11       1.0  0.10971  0.80967  0.08203  1.0000
  H   H12       1.0  0.60945  0.27167  0.08193  1.0000
  H   H13       1.0  0.96446  0.18318  0.77583  1.0000
  H   H14       1.0  0.46460  0.59316  0.77590  1.0000
  H   H15       1.0  0.03549  0.81681  0.22415  1.0000
  H   H16       1.0  0.53546  0.40685  0.22412  1.0000
  H   H17       1.0  0.85974  0.61453  0.40891  1.0000
  H   H18       1.0  0.35989  0.79455  0.40934  1.0000
  H   H19       1.0  0.14023  0.38547  0.59108  1.0000
  H   H20       1.0  0.64015  0.20545  0.59066  1.0000
  H   H21       1.0  0.07143  0.62807  0.41682  1.0000
  H   H22       1.0  0.57161  0.78905  0.41725  1.0000
  H   H23       1.0  0.92852  0.37192  0.58317  1.0000
  H   H24       1.0  0.42841  0.21094  0.58275  1.0000
  H   H25       1.0  0.91040  0.61077  0.30665  1.0000
  H   H26       1.0  0.41053  0.69602  0.30705  1.0000
  H   H27       1.0  0.08956  0.38923  0.69334  1.0000
  H   H28       1.0  0.58947  0.30397  0.69296  1.0000
  H   H29       1.0  0.52718  0.02970  0.71244  1.0000
  H   H30       1.0  0.02697  0.68321  0.71253  1.0000
  H   H31       1.0  0.47277  0.97033  0.28758  1.0000
  H   H32       1.0  0.97308  0.31681  0.28747  1.0000
  H   H33       1.0  0.57279  0.04467  0.61454  1.0000
  H   H34       1.0  0.07274  0.57016  0.61473  1.0000
  H   H35       1.0  0.42718  0.95538  0.38549  1.0000
  H   H36       1.0  0.92729  0.42986  0.38526  1.0000
  H   H37       1.0  0.51274  0.90754  0.60327  1.0000
  H   H38       1.0  0.01292  0.69596  0.60336  1.0000
  H   H39       1.0  0.48724  0.09250  0.39675  1.0000
  H   H40       1.0  0.98710  0.30404  0.39663  1.0000
  C   C1        1.0  0.86165  0.90705  0.70139  1.0000
  C   C2        1.0  0.36126  0.79455  0.70135  1.0000
  C   C3        1.0  0.13834  0.09293  0.29860  1.0000
  C   C4        1.0  0.63876  0.20544  0.29865  1.0000
  C   C5        1.0  0.82004  0.90136  0.77683  1.0000
  C   C6        1.0  0.31959  0.87574  0.77681  1.0000
  C   C7        1.0  0.17995  0.09862  0.22316  1.0000
  C   C8        1.0  0.68043  0.12425  0.22320  1.0000
  C   C9        1.0  0.82868  0.00458  0.85643  1.0000
  C   C10       1.0  0.32853  0.85228  0.85646  1.0000
  C   C11       1.0  0.17131  0.99539  0.14356  1.0000
  C   C12       1.0  0.67149  0.14773  0.14354  1.0000
  C   C13       1.0  0.88041  0.10850  0.85698  1.0000
  C   C14       1.0  0.38052  0.74899  0.85704  1.0000
  C   C15       1.0  0.11958  0.89148  0.14301  1.0000
  C   C16       1.0  0.61951  0.25102  0.14297  1.0000
  C   C17       1.0  0.92242  0.10496  0.77875  1.0000
  C   C18       1.0  0.42249  0.67426  0.77881  1.0000
  C   C19       1.0  0.07755  0.89503  0.22124  1.0000
  C   C20       1.0  0.57756  0.32575  0.22121  1.0000
  C   C21       1.0  0.78424  0.00209  0.93603  1.0000
  C   C22       1.0  0.28406  0.93424  0.93613  1.0000
  C   C23       1.0  0.21574  0.99790  0.06396  1.0000
  C   C24       1.0  0.71595  0.06575  0.06387  1.0000
  C   C25       1.0  0.96173  0.77861  0.42628  1.0000
  C   C26       1.0  0.46183  0.64780  0.42655  1.0000
  C   C27       1.0  0.03824  0.22139  0.57371  1.0000
  C   C28       1.0  0.53821  0.35220  0.57346  1.0000
  C   C29       1.0  0.94765  0.64936  0.38626  1.0000
  C   C30       1.0  0.44781  0.73708  0.38667  1.0000
  C   C31       1.0  0.05229  0.35062  0.61373  1.0000
  C   C32       1.0  0.55220  0.26292  0.61334  1.0000
  C   C33       1.0  0.31155  0.00283  0.58639  1.0000
  C   C34       1.0  0.81152  0.58376  0.58639  1.0000
  C   C35       1.0  0.68842  0.99719  0.41362  1.0000
  C   C36       1.0  0.18851  0.41623  0.41361  1.0000
  C   C37       1.0  0.49313  0.99779  0.63340  1.0000
  C   C38       1.0  0.99310  0.63592  0.63349  1.0000
  C   C39       1.0  0.50682  0.00225  0.36662  1.0000
  C   C40       1.0  0.00694  0.36410  0.36650  1.0000
  N   N1        1.0  0.91301  0.00626  0.70194  1.0000
  N   N2        1.0  0.41284  0.69599  0.70193  1.0000
  N   N3        1.0  0.08697  0.99374  0.29805  1.0000
  N   N4        1.0  0.58719  0.30402  0.29808  1.0000
  N   N5        1.0  0.77232  0.91559  0.95849  1.0000
  N   N6        1.0  0.27181  0.04322  0.95881  1.0000
  N   N7        1.0  0.22766  0.08440  0.04151  1.0000
  N   N8        1.0  0.72818  0.95677  0.04118  1.0000
  O   O1        1.0  0.74999  0.10064  0.00001  1.0000
  O   O2        1.0  0.25001  0.89936  0.99998  1.0000
  O   O3        1.0  0.94112  0.83078  0.50814  1.0000
  O   O4        1.0  0.44121  0.67746  0.50839  1.0000
  O   O5        1.0  0.05892  0.16922  0.49187  1.0000
  O   O6        1.0  0.55896  0.32258  0.49167  1.0000
  O   O7        1.0  0.99682  0.82569  0.37662  1.0000
  O   O8        1.0  0.49685  0.55105  0.37678  1.0000
  O   O9        1.0  0.00308  0.17431  0.62335  1.0000
  O   O10       1.0  0.50306  0.44892  0.62321  1.0000
  O   O11       1.0  0.21504  0.00658  0.63386  1.0000
  O   O12       1.0  0.71502  0.62732  0.63391  1.0000
  O   O13       1.0  0.78493  0.99348  0.36616  1.0000
  O   O14       1.0  0.28504  0.37260  0.36614  1.0000
  O   O15       1.0  0.26821  0.00037  0.50141  1.0000
  O   O16       1.0  0.76822  0.50131  0.50132  1.0000
  O   O17       1.0  0.73174  0.99960  0.49858  1.0000
  O   O18       1.0  0.23180  0.49875  0.49866  1.0000
