data_image0
_chemical_formula_structural       Ca6H28C24O32
_chemical_formula_sum              "Ca6 H28 C24 O32"
_cell_length_a       6.05678
_cell_length_b       10.3626
_cell_length_c       16.3279
_cell_angle_alpha    72.5034
_cell_angle_beta     77.9603
_cell_angle_gamma    88.9098

_space_group_name_H-M_alt    "P 1"
_space_group_IT_number       1

loop_
  _space_group_symop_operation_xyz
  'x, y, z'

loop_
  _atom_site_type_symbol
  _atom_site_label
  _atom_site_symmetry_multiplicity
  _atom_site_fract_x
  _atom_site_fract_y
  _atom_site_fract_z
  _atom_site_occupancy
  Ca  Ca1       1.0  0.26098  0.11977  0.99727  1.0000
  Ca  Ca2       1.0  0.73903  0.88023  0.00273  1.0000
  Ca  Ca3       1.0  0.92066  0.81177  0.60895  1.0000
  Ca  Ca4       1.0  0.07934  0.18823  0.39106  1.0000
  Ca  Ca5       1.0  0.57178  0.42001  0.39082  1.0000
  Ca  Ca6       1.0  0.42822  0.57999  0.60918  1.0000
  H   H1        1.0  0.60729  0.28223  0.01069  1.0000
  H   H2        1.0  0.39271  0.71778  0.98931  1.0000
  H   H3        1.0  0.51602  0.39454  0.93514  1.0000
  H   H4        1.0  0.48398  0.60546  0.06486  1.0000
  H   H5        1.0  0.93960  0.22278  0.12390  1.0000
  H   H6        1.0  0.06039  0.77722  0.87609  1.0000
  H   H7        1.0  0.14932  0.19523  0.16922  1.0000
  H   H8        1.0  0.85068  0.80477  0.83077  1.0000
  H   H9        1.0  0.74412  0.65064  0.23587  1.0000
  H   H10       1.0  0.25589  0.34936  0.76413  1.0000
  H   H11       1.0  0.81127  0.02130  0.70422  1.0000
  H   H12       1.0  0.18873  0.97870  0.29578  1.0000
  H   H13       1.0  0.27840  0.73479  0.19256  1.0000
  H   H14       1.0  0.72160  0.26521  0.80744  1.0000
  H   H15       1.0  0.12885  0.86426  0.22464  1.0000
  H   H16       1.0  0.87115  0.13574  0.77536  1.0000
  H   H17       1.0  0.96937  0.81580  0.36182  1.0000
  H   H18       1.0  0.03063  0.18420  0.63818  1.0000
  H   H19       1.0  0.16745  0.69126  0.39136  1.0000
  H   H20       1.0  0.83255  0.30874  0.60864  1.0000
  H   H21       1.0  0.50643  0.19323  0.63465  1.0000
  H   H22       1.0  0.49357  0.80676  0.36535  1.0000
  H   H23       1.0  0.33264  0.09694  0.59925  1.0000
  H   H24       1.0  0.66737  0.90306  0.40075  1.0000
  H   H25       1.0  0.18435  0.01306  0.77636  1.0000
  H   H26       1.0  0.81565  0.98694  0.22365  1.0000
  H   H27       1.0  0.41545  0.11854  0.77349  1.0000
  H   H28       1.0  0.58455  0.88146  0.22651  1.0000
  C   C1        1.0  0.99872  0.79773  0.13425  1.0000
  C   C2        1.0  0.00129  0.20227  0.86575  1.0000
  C   C3        1.0  0.10697  0.76652  0.21318  1.0000
  C   C4        1.0  0.89303  0.23348  0.78682  1.0000
  C   C5        1.0  0.98273  0.65877  0.29836  1.0000
  C   C6        1.0  0.01726  0.34124  0.70164  1.0000
  C   C7        1.0  0.99714  0.70656  0.37768  1.0000
  C   C8        1.0  0.00286  0.29344  0.62232  1.0000
  C   C9        1.0  0.83126  0.63981  0.46370  1.0000
  C   C10       1.0  0.16874  0.36020  0.53630  1.0000
  C   C11       1.0  0.10262  0.52208  0.30872  1.0000
  C   C12       1.0  0.89738  0.47791  0.69128  1.0000
  C   C13       1.0  0.67173  0.10941  0.53502  1.0000
  C   C14       1.0  0.32828  0.89058  0.46498  1.0000
  C   C15       1.0  0.49633  0.09865  0.61802  1.0000
  C   C16       1.0  0.50367  0.90135  0.38199  1.0000
  C   C17       1.0  0.49568  0.97591  0.69964  1.0000
  C   C18       1.0  0.50431  0.02409  0.30036  1.0000
  C   C19       1.0  0.36366  0.01494  0.77919  1.0000
  C   C20       1.0  0.63634  0.98506  0.22081  1.0000
  C   C21       1.0  0.39021  0.92208  0.86759  1.0000
  C   C22       1.0  0.60979  0.07792  0.13241  1.0000
  C   C23       1.0  0.38173  0.85144  0.68824  1.0000
  C   C24       1.0  0.61827  0.14856  0.31175  1.0000
  O   O1        1.0  0.84928  0.71617  0.12974  1.0000
  O   O2        1.0  0.15073  0.28383  0.87026  1.0000
  O   O3        1.0  0.54775  0.29935  0.95554  1.0000
  O   O4        1.0  0.45225  0.70065  0.04445  1.0000
  O   O5        1.0  0.05460  0.90964  0.07350  1.0000
  O   O6        1.0  0.94540  0.09036  0.92651  1.0000
  O   O7        1.0  0.10594  0.21279  0.11268  1.0000
  O   O8        1.0  0.89406  0.78720  0.88732  1.0000
  O   O9        1.0  0.79066  0.70713  0.51858  1.0000
  O   O10       1.0  0.20935  0.29288  0.48142  1.0000
  O   O11       1.0  0.73503  0.52500  0.47922  1.0000
  O   O12       1.0  0.26496  0.47500  0.52078  1.0000
  O   O13       1.0  0.97981  0.41602  0.32290  1.0000
  O   O14       1.0  0.02018  0.58398  0.67710  1.0000
  O   O15       1.0  0.31260  0.52746  0.30453  1.0000
  O   O16       1.0  0.68739  0.47254  0.69547  1.0000
  O   O17       1.0  0.74799  0.64196  0.29847  1.0000
  O   O18       1.0  0.25200  0.35804  0.70153  1.0000
  O   O19       1.0  0.77012  0.00663  0.52130  1.0000
  O   O20       1.0  0.22989  0.99337  0.47870  1.0000
  O   O21       1.0  0.71543  0.22766  0.48026  1.0000
  O   O22       1.0  0.28457  0.77234  0.51974  1.0000
  O   O23       1.0  0.46845  0.97759  0.91705  1.0000
  O   O24       1.0  0.53155  0.02241  0.08295  1.0000
  O   O25       1.0  0.33547  0.79711  0.88909  1.0000
  O   O26       1.0  0.66453  0.20289  0.11091  1.0000
  O   O27       1.0  0.50676  0.75809  0.67305  1.0000
  O   O28       1.0  0.49324  0.24191  0.32695  1.0000
  O   O29       1.0  0.17160  0.85798  0.69128  1.0000
  O   O30       1.0  0.82840  0.14201  0.30872  1.0000
  O   O31       1.0  0.72266  0.93952  0.71128  1.0000
  O   O32       1.0  0.27734  0.06048  0.28873  1.0000
