data_image0
_chemical_formula_structural       CoH8C10Se2N6
_chemical_formula_sum              "Co1 H8 C10 Se2 N6"
_cell_length_a       7.38249
_cell_length_b       6.73159
_cell_length_c       7.38504
_cell_angle_alpha    109.73
_cell_angle_beta     110.273
_cell_angle_gamma    90.7645

_space_group_name_H-M_alt    "P 1"
_space_group_IT_number       1

loop_
  _space_group_symop_operation_xyz
  'x, y, z'

loop_
  _atom_site_type_symbol
  _atom_site_label
  _atom_site_symmetry_multiplicity
  _atom_site_fract_x
  _atom_site_fract_y
  _atom_site_fract_z
  _atom_site_occupancy
  Co  Co1       1.0  0.99997  0.00002  0.50002  1.0000
  H   H1        1.0  0.54667  0.82011  0.17786  1.0000
  H   H2        1.0  0.25945  0.42332  0.76447  1.0000
  H   H3        1.0  0.45336  0.18010  0.82205  1.0000
  H   H4        1.0  0.74050  0.57677  0.23580  1.0000
  H   H5        1.0  0.78790  0.18118  0.80816  1.0000
  H   H6        1.0  0.74296  0.21301  0.24284  1.0000
  H   H7        1.0  0.21213  0.81897  0.19176  1.0000
  H   H8        1.0  0.25690  0.78719  0.75740  1.0000
  C   C1        1.0  0.81094  0.78972  0.03325  1.0000
  C   C2        1.0  0.18874  0.21032  0.96683  1.0000
  C   C3        1.0  0.52712  0.90058  0.32358  1.0000
  C   C4        1.0  0.14200  0.45489  0.64488  1.0000
  C   C5        1.0  0.47294  0.09915  0.67647  1.0000
  C   C6        1.0  0.85823  0.54502  0.35497  1.0000
  C   C7        1.0  0.65915  0.09990  0.66982  1.0000
  C   C8        1.0  0.85965  0.34008  0.35799  1.0000
  C   C9        1.0  0.34085  0.89991  0.33022  1.0000
  C   C10       1.0  0.14056  0.65989  0.64182  1.0000
  Se  Se1       1.0  0.67155  0.62746  0.77149  1.0000
  Se  Se2       1.0  0.32844  0.37249  0.22849  1.0000
  N   N1        1.0  0.89996  0.89273  0.21057  1.0000
  N   N2        1.0  0.09968  0.10726  0.78949  1.0000
  N   N3        1.0  0.68718  0.00033  0.49287  1.0000
  N   N4        1.0  0.00174  0.29157  0.50292  1.0000
  N   N5        1.0  0.31289  0.99968  0.50721  1.0000
  N   N6        1.0  0.99854  0.70835  0.49681  1.0000
