data_image0
_chemical_formula_structural       Tl4H32C28S4N8F12
_chemical_formula_sum              "Tl4 H32 C28 S4 N8 F12"
_cell_length_a       9.2893
_cell_length_b       11.0892
_cell_length_c       11.4711
_cell_angle_alpha    89.9991
_cell_angle_beta     89.9999
_cell_angle_gamma    107.66

_space_group_name_H-M_alt    "P 1"
_space_group_IT_number       1

loop_
  _space_group_symop_operation_xyz
  'x, y, z'

loop_
  _atom_site_type_symbol
  _atom_site_label
  _atom_site_symmetry_multiplicity
  _atom_site_fract_x
  _atom_site_fract_y
  _atom_site_fract_z
  _atom_site_occupancy
  Tl  Tl1       1.0  0.36399  0.71813  0.58431  1.0000
  Tl  Tl2       1.0  0.36399  0.21813  0.91569  1.0000
  Tl  Tl3       1.0  0.63601  0.28187  0.41569  1.0000
  Tl  Tl4       1.0  0.63601  0.78187  0.08431  1.0000
  H   H1        1.0  0.98891  0.63923  0.03237  1.0000
  H   H2        1.0  0.98891  0.13922  0.46763  1.0000
  H   H3        1.0  0.01108  0.36077  0.96763  1.0000
  H   H4        1.0  0.01109  0.86078  0.53236  1.0000
  H   H5        1.0  0.23778  0.69852  0.14280  1.0000
  H   H6        1.0  0.23779  0.19852  0.35721  1.0000
  H   H7        1.0  0.76222  0.30148  0.85721  1.0000
  H   H8        1.0  0.76222  0.80149  0.64279  1.0000
  H   H9        1.0  0.45565  0.96720  0.63860  1.0000
  H   H10       1.0  0.45563  0.46720  0.86139  1.0000
  H   H11       1.0  0.54435  0.03280  0.36140  1.0000
  H   H12       1.0  0.54435  0.53280  0.13860  1.0000
  H   H13       1.0  0.25501  0.90544  0.65521  1.0000
  H   H14       1.0  0.25499  0.40542  0.84478  1.0000
  H   H15       1.0  0.74500  0.09457  0.34479  1.0000
  H   H16       1.0  0.74500  0.59456  0.15521  1.0000
  H   H17       1.0  0.33644  0.94396  0.51183  1.0000
  H   H18       1.0  0.33642  0.44395  0.98816  1.0000
  H   H19       1.0  0.66356  0.05604  0.48816  1.0000
  H   H20       1.0  0.66355  0.55605  0.01184  1.0000
  H   H21       1.0  0.41167  0.48922  0.59354  1.0000
  H   H22       1.0  0.41169  0.98923  0.90647  1.0000
  H   H23       1.0  0.58834  0.51078  0.40647  1.0000
  H   H24       1.0  0.58833  0.01078  0.09354  1.0000
  H   H25       1.0  0.30152  0.49691  0.46582  1.0000
  H   H26       1.0  0.30154  0.99692  0.03420  1.0000
  H   H27       1.0  0.69848  0.50308  0.53419  1.0000
  H   H28       1.0  0.69847  0.00307  0.96581  1.0000
  H   H29       1.0  0.21284  0.46941  0.60752  1.0000
  H   H30       1.0  0.21286  0.96940  0.89250  1.0000
  H   H31       1.0  0.78716  0.53059  0.39249  1.0000
  H   H32       1.0  0.78716  0.03059  0.10751  1.0000
  C   C1        1.0  0.36966  0.71226  0.87463  1.0000
  C   C2        1.0  0.36965  0.21225  0.62537  1.0000
  C   C3        1.0  0.63034  0.28774  0.12537  1.0000
  C   C4        1.0  0.63034  0.78774  0.37464  1.0000
  C   C5        1.0  0.10899  0.65408  0.86727  1.0000
  C   C6        1.0  0.10899  0.15407  0.63273  1.0000
  C   C7        1.0  0.89101  0.34593  0.13274  1.0000
  C   C8        1.0  0.89101  0.84592  0.36726  1.0000
  C   C9        1.0  0.09663  0.65909  0.98783  1.0000
  C   C10       1.0  0.09662  0.15908  0.51217  1.0000
  C   C11       1.0  0.90338  0.34091  0.01217  1.0000
  C   C12       1.0  0.90339  0.84091  0.48782  1.0000
  C   C13       1.0  0.23427  0.69225  0.04786  1.0000
  C   C14       1.0  0.23428  0.19225  0.45213  1.0000
  C   C15       1.0  0.76572  0.30775  0.95214  1.0000
  C   C16       1.0  0.76572  0.80775  0.54787  1.0000
  C   C17       1.0  0.97174  0.61909  0.78796  1.0000
  C   C18       1.0  0.97174  0.11907  0.71203  1.0000
  C   C19       1.0  0.02826  0.38093  0.21204  1.0000
  C   C20       1.0  0.02826  0.88091  0.28795  1.0000
  C   C21       1.0  0.35092  0.90868  0.59852  1.0000
  C   C22       1.0  0.35090  0.40868  0.90147  1.0000
  C   C23       1.0  0.64908  0.09132  0.40148  1.0000
  C   C24       1.0  0.64908  0.59132  0.09852  1.0000
  C   C25       1.0  0.31625  0.51663  0.55925  1.0000
  C   C26       1.0  0.31626  0.01662  0.94077  1.0000
  C   C27       1.0  0.68375  0.48337  0.44076  1.0000
  C   C28       1.0  0.68375  0.98337  0.05924  1.0000
  S   S1        1.0  0.53919  0.74752  0.80454  1.0000
  S   S2        1.0  0.53918  0.24751  0.69547  1.0000
  S   S3        1.0  0.46082  0.25249  0.19546  1.0000
  S   S4        1.0  0.46081  0.75248  0.30454  1.0000
  N   N1        1.0  0.23979  0.67904  0.81084  1.0000
  N   N2        1.0  0.23977  0.17902  0.68916  1.0000
  N   N3        1.0  0.76022  0.32098  0.18917  1.0000
  N   N4        1.0  0.76021  0.82096  0.31083  1.0000
  N   N5        1.0  0.36695  0.71806  0.99402  1.0000
  N   N6        1.0  0.36695  0.21806  0.50598  1.0000
  N   N7        1.0  0.63305  0.28195  0.00598  1.0000
  N   N8        1.0  0.63305  0.78194  0.49402  1.0000
  F   F1        1.0  0.98282  0.71021  0.70517  1.0000
  F   F2        1.0  0.98277  0.21019  0.79481  1.0000
  F   F3        1.0  0.01721  0.28981  0.29483  1.0000
  F   F4        1.0  0.01719  0.78979  0.20516  1.0000
  F   F5        1.0  0.95768  0.50852  0.72963  1.0000
  F   F6        1.0  0.95769  0.00852  0.77039  1.0000
  F   F7        1.0  0.04231  0.49149  0.27038  1.0000
  F   F8        1.0  0.04232  0.99148  0.22961  1.0000
  F   F9        1.0  0.84073  0.60457  0.84679  1.0000
  F   F10       1.0  0.84072  0.10451  0.65320  1.0000
  F   F11       1.0  0.15928  0.39546  0.15321  1.0000
  F   F12       1.0  0.15927  0.89544  0.34678  1.0000
