data_image0
_chemical_formula_structural       Ni2H52C48N12O10
_chemical_formula_sum              "Ni2 H52 C48 N12 O10"
_cell_length_a       8.67523
_cell_length_b       10.2847
_cell_length_c       14.1184
_cell_angle_alpha    90.7132
_cell_angle_beta     98.3473
_cell_angle_gamma    95.1994

_space_group_name_H-M_alt    "P 1"
_space_group_IT_number       1

loop_
  _space_group_symop_operation_xyz
  'x, y, z'

loop_
  _atom_site_type_symbol
  _atom_site_label
  _atom_site_symmetry_multiplicity
  _atom_site_fract_x
  _atom_site_fract_y
  _atom_site_fract_z
  _atom_site_occupancy
  Ni  Ni1       1.0  0.11390  0.79688  0.30704  1.0000
  Ni  Ni2       1.0  0.87781  0.20627  0.69284  1.0000
  H   H1        1.0  0.17283  0.63520  0.67593  1.0000
  H   H2        1.0  0.83314  0.36328  0.32482  1.0000
  H   H3        1.0  0.37500  0.68464  0.71618  1.0000
  H   H4        1.0  0.63002  0.31523  0.28649  1.0000
  H   H5        1.0  0.20778  0.92317  0.10726  1.0000
  H   H6        1.0  0.78186  0.07907  0.89000  1.0000
  H   H7        1.0  0.51006  0.80567  0.27623  1.0000
  H   H8        1.0  0.49638  0.19606  0.72312  1.0000
  H   H9        1.0  0.32476  0.53975  0.18754  1.0000
  H   H10       1.0  0.67768  0.45752  0.81218  1.0000
  H   H11       1.0  0.13125  0.24158  0.35671  1.0000
  H   H12       1.0  0.86778  0.76005  0.64457  1.0000
  H   H13       1.0  0.11754  0.64485  0.50355  1.0000
  H   H14       1.0  0.88712  0.35684  0.49775  1.0000
  H   H15       1.0  0.28104  0.70960  0.89349  1.0000
  H   H16       1.0  0.71842  0.29128  0.10723  1.0000
  H   H17       1.0  0.08917  0.66176  0.83358  1.0000
  H   H18       1.0  0.91164  0.33798  0.16558  1.0000
  H   H19       1.0  0.59388  0.72317  0.51790  1.0000
  H   H20       1.0  0.40951  0.27803  0.48122  1.0000
  H   H21       1.0  0.44244  0.69619  0.41844  1.0000
  H   H22       1.0  0.56198  0.30597  0.58001  1.0000
  H   H23       1.0  0.34466  0.53338  0.02923  1.0000
  H   H24       1.0  0.65580  0.46114  0.97104  1.0000
  H   H25       1.0  0.53285  0.56392  0.10054  1.0000
  H   H26       1.0  0.46754  0.43092  0.89953  1.0000
  H   H27       1.0  0.51615  0.47195  0.39394  1.0000
  H   H28       1.0  0.48623  0.52973  0.60466  1.0000
  H   H29       1.0  0.67460  0.49752  0.48876  1.0000
  H   H30       1.0  0.32802  0.50324  0.50985  1.0000
  H   H31       1.0  0.30797  0.89318  0.78162  1.0000
  H   H32       1.0  0.69298  0.10695  0.21835  1.0000
  H   H33       1.0  0.11083  0.86074  0.72922  1.0000
  H   H34       1.0  0.89128  0.13737  0.26904  1.0000
  H   H35       1.0  0.59275  0.85933  0.86194  1.0000
  H   H36       1.0  0.40428  0.13567  0.13982  1.0000
  H   H37       1.0  0.33907  0.01411  0.45119  1.0000
  H   H38       1.0  0.65952  0.99094  0.55347  1.0000
  H   H39       1.0  0.90926  0.59086  0.15158  1.0000
  H   H40       1.0  0.08619  0.40679  0.84294  1.0000
  H   H41       1.0  0.88239  0.65225  0.45435  1.0000
  H   H42       1.0  0.12259  0.34844  0.54595  1.0000
  H   H43       1.0  0.91485  0.61552  0.95498  1.0000
  H   H44       1.0  0.08442  0.38330  0.03995  1.0000
  H   H45       1.0  0.41838  0.95953  0.64321  1.0000
  H   H46       1.0  0.58658  0.03986  0.36059  1.0000
  H   H47       1.0  0.78802  0.85854  0.19916  1.0000
  H   H48       1.0  0.21997  0.14480  0.80180  1.0000
  H   H49       1.0  0.00197  0.87631  0.87594  1.0000
  H   H50       1.0  0.99703  0.12450  0.11982  1.0000
  H   H51       1.0  0.19207  0.92756  0.93574  1.0000
  H   H52       1.0  0.80558  0.07316  0.06237  1.0000
  C   C1        1.0  0.15679  0.50592  0.33016  1.0000
  C   C2        1.0  0.84470  0.49485  0.66973  1.0000
  C   C3        1.0  0.75027  0.96722  0.73092  1.0000
  C   C4        1.0  0.23394  0.03237  0.27174  1.0000
  C   C5        1.0  0.26069  0.71972  0.69036  1.0000
  C   C6        1.0  0.74441  0.27930  0.31091  1.0000
  C   C7        1.0  0.37159  0.34080  0.15263  1.0000
  C   C8        1.0  0.62932  0.65514  0.84890  1.0000
  C   C9        1.0  0.22526  0.40043  0.27776  1.0000
  C   C10       1.0  0.77644  0.59928  0.72321  1.0000
  C   C11       1.0  0.12447  0.83760  0.09420  1.0000
  C   C12       1.0  0.86716  0.16336  0.90247  1.0000
  C   C13       1.0  0.62822  0.78039  0.29929  1.0000
  C   C14       1.0  0.37834  0.22195  0.70062  1.0000
  C   C15       1.0  0.31013  0.43643  0.20316  1.0000
  C   C16       1.0  0.69189  0.56112  0.79756  1.0000
  C   C17       1.0  0.20093  0.26948  0.30068  1.0000
  C   C18       1.0  0.79923  0.73085  0.70092  1.0000
  C   C19       1.0  0.18490  0.73950  0.51397  1.0000
  C   C20       1.0  0.81912  0.26248  0.48797  1.0000
  C   C21       1.0  0.17589  0.74624  0.85338  1.0000
  C   C22       1.0  0.82419  0.25395  0.14596  1.0000
  C   C23       1.0  0.55863  0.66981  0.44896  1.0000
  C   C24       1.0  0.44531  0.33163  0.55003  1.0000
  C   C25       1.0  0.46192  0.49819  0.04516  1.0000
  C   C26       1.0  0.53846  0.49617  0.95521  1.0000
  C   C27       1.0  0.55548  0.52302  0.46344  1.0000
  C   C28       1.0  0.44737  0.47834  0.53523  1.0000
  C   C29       1.0  0.21361  0.81399  0.76295  1.0000
  C   C30       1.0  0.78849  0.18529  0.23686  1.0000
  C   C31       1.0  0.64628  0.78633  0.82423  1.0000
  C   C32       1.0  0.35291  0.20961  0.17803  1.0000
  C   C33       1.0  0.30257  0.92981  0.49029  1.0000
  C   C34       1.0  0.69832  0.07361  0.51360  1.0000
  C   C35       1.0  0.73203  0.82417  0.75116  1.0000
  C   C36       1.0  0.26590  0.17408  0.25102  1.0000
  C   C37       1.0  0.97165  0.66393  0.11305  1.0000
  C   C38       1.0  0.02300  0.33515  0.88213  1.0000
  C   C39       1.0  0.82259  0.70267  0.39495  1.0000
  C   C40       1.0  0.18269  0.29852  0.60558  1.0000
  C   C41       1.0  0.97326  0.67455  0.01606  1.0000
  C   C42       1.0  0.02332  0.32479  0.97929  1.0000
  C   C43       1.0  0.34345  0.90426  0.58548  1.0000
  C   C44       1.0  0.66100  0.09659  0.41772  1.0000
  C   C45       1.0  0.76614  0.80683  0.26295  1.0000
  C   C46       1.0  0.24062  0.19602  0.73750  1.0000
  C   C47       1.0  0.10812  0.84151  0.91598  1.0000
  C   C48       1.0  0.88965  0.15931  0.08137  1.0000
  N   N1        1.0  0.66645  0.71500  0.38307  1.0000
  N   N2        1.0  0.33906  0.28644  0.61660  1.0000
  N   N3        1.0  0.26731  0.78343  0.59910  1.0000
  N   N4        1.0  0.73906  0.21608  0.40277  1.0000
  N   N5        1.0  0.07086  0.78566  0.00541  1.0000
  N   N6        1.0  0.92382  0.21518  0.99097  1.0000
  N   N7        1.0  0.88643  0.75794  0.32310  1.0000
  N   N8        1.0  0.11958  0.24433  0.67782  1.0000
  N   N9        1.0  0.20435  0.82642  0.44645  1.0000
  N   N10       1.0  0.79638  0.17777  0.55672  1.0000
  N   N11       1.0  0.06594  0.76646  0.16090  1.0000
  N   N12       1.0  0.92562  0.23356  0.83498  1.0000
  O   O1        1.0  0.06386  0.47385  0.38823  1.0000
  O   O2        1.0  0.93678  0.52685  0.61144  1.0000
  O   O3        1.0  0.45081  0.36645  0.07649  1.0000
  O   O4        1.0  0.54953  0.62818  0.92451  1.0000
  O   O5        1.0  0.88264  0.01273  0.70778  1.0000
  O   O6        1.0  0.09738  0.99642  0.29182  1.0000
  O   O7        1.0  0.63902  0.03443  0.74102  1.0000
  O   O8        1.0  0.33728  0.95408  0.26591  1.0000
  O   O9        1.0  0.20323  0.62215  0.30786  1.0000
  O   O10       1.0  0.79709  0.37846  0.69207  1.0000
