data_image0
_chemical_formula_structural       Zn4H48C56N8O22
_chemical_formula_sum              "Zn4 H48 C56 N8 O22"
_cell_length_a       9.49932
_cell_length_b       11.856
_cell_length_c       15.1208
_cell_angle_alpha    98.0958
_cell_angle_beta     106.735
_cell_angle_gamma    109.575

_space_group_name_H-M_alt    "P 1"
_space_group_IT_number       1

loop_
  _space_group_symop_operation_xyz
  'x, y, z'

loop_
  _atom_site_type_symbol
  _atom_site_label
  _atom_site_symmetry_multiplicity
  _atom_site_fract_x
  _atom_site_fract_y
  _atom_site_fract_z
  _atom_site_occupancy
  Zn  Zn1       1.0  0.45434  0.50561  0.36491  1.0000
  Zn  Zn2       1.0  0.54565  0.49439  0.63509  1.0000
  Zn  Zn3       1.0  0.48884  0.93455  0.86352  1.0000
  Zn  Zn4       1.0  0.51116  0.06545  0.13648  1.0000
  H   H1        1.0  0.97154  0.29282  0.33412  1.0000
  H   H2        1.0  0.02846  0.70718  0.66588  1.0000
  H   H3        1.0  0.96348  0.54793  0.75824  1.0000
  H   H4        1.0  0.03652  0.45207  0.24176  1.0000
  H   H5        1.0  0.13100  0.54941  0.72620  1.0000
  H   H6        1.0  0.86901  0.45059  0.27380  1.0000
  H   H7        1.0  0.69329  0.25925  0.51590  1.0000
  H   H8        1.0  0.30672  0.74075  0.48411  1.0000
  H   H9        1.0  0.20526  0.46931  0.63536  1.0000
  H   H10       1.0  0.79475  0.53069  0.36464  1.0000
  H   H11       1.0  0.51517  0.28943  0.12901  1.0000
  H   H12       1.0  0.48483  0.71056  0.87099  1.0000
  H   H13       1.0  0.33802  0.24487  0.82349  1.0000
  H   H14       1.0  0.66198  0.75513  0.17651  1.0000
  H   H15       1.0  0.62943  0.98358  0.59897  1.0000
  H   H16       1.0  0.37057  0.01642  0.40103  1.0000
  H   H17       1.0  0.67826  0.07276  0.51785  1.0000
  H   H18       1.0  0.32174  0.92724  0.48215  1.0000
  H   H19       1.0  0.61027  0.74589  0.54990  1.0000
  H   H20       1.0  0.38972  0.25410  0.45010  1.0000
  H   H21       1.0  0.21997  0.47622  0.01390  1.0000
  H   H22       1.0  0.78003  0.52378  0.98610  1.0000
  H   H23       1.0  0.94108  0.04259  0.55718  1.0000
  H   H24       1.0  0.05892  0.95741  0.44282  1.0000
  H   H25       1.0  0.91894  0.13096  0.65468  1.0000
  H   H26       1.0  0.08106  0.86904  0.34532  1.0000
  H   H27       1.0  0.59505  0.96269  0.35043  1.0000
  H   H28       1.0  0.40496  0.03731  0.64957  1.0000
  H   H29       1.0  0.83645  0.15372  0.98339  1.0000
  H   H30       1.0  0.16354  0.84628  0.01661  1.0000
  H   H31       1.0  0.69476  0.81305  0.78311  1.0000
  H   H32       1.0  0.30524  0.18695  0.21689  1.0000
  H   H33       1.0  0.10326  0.14175  0.94632  1.0000
  H   H34       1.0  0.89674  0.85825  0.05368  1.0000
  H   H35       1.0  0.17435  0.55223  0.89484  1.0000
  H   H36       1.0  0.82565  0.44777  0.10516  1.0000
  H   H37       1.0  0.00253  0.40907  0.86105  1.0000
  H   H38       1.0  0.99748  0.59093  0.13896  1.0000
  H   H39       1.0  0.10026  0.08502  0.75787  1.0000
  H   H40       1.0  0.89974  0.91498  0.24214  1.0000
  H   H41       1.0  0.11980  0.95375  0.69677  1.0000
  H   H42       1.0  0.88020  0.04625  0.30323  1.0000
  H   H43       1.0  0.95732  0.81958  0.77662  1.0000
  H   H44       1.0  0.04269  0.18042  0.22338  1.0000
  H   H45       1.0  0.13849  0.93948  0.86019  1.0000
  H   H46       1.0  0.86151  0.06052  0.13981  1.0000
  H   H47       1.0  0.47121  0.71230  0.25250  1.0000
  H   H48       1.0  0.52879  0.28769  0.74750  1.0000
  C   C1        1.0  0.66875  0.18747  0.33050  1.0000
  C   C2        1.0  0.33125  0.81253  0.66950  1.0000
  C   C3        1.0  0.96442  0.31129  0.40466  1.0000
  C   C4        1.0  0.03558  0.68871  0.59534  1.0000
  C   C5        1.0  0.10203  0.38567  0.48373  1.0000
  C   C6        1.0  0.89797  0.61434  0.51626  1.0000
  C   C7        1.0  0.81701  0.26436  0.41603  1.0000
  C   C8        1.0  0.18299  0.73564  0.58397  1.0000
  C   C9        1.0  0.43059  0.25437  0.97411  1.0000
  C   C10       1.0  0.56940  0.74563  0.02589  1.0000
  C   C11       1.0  0.03386  0.49371  0.74694  1.0000
  C   C12       1.0  0.96614  0.50629  0.25306  1.0000
  C   C13       1.0  0.94714  0.36387  0.58673  1.0000
  C   C14       1.0  0.05286  0.63614  0.41327  1.0000
  C   C15       1.0  0.80863  0.29100  0.50691  1.0000
  C   C16       1.0  0.19137  0.70901  0.49309  1.0000
  C   C17       1.0  0.09519  0.41146  0.57530  1.0000
  C   C18       1.0  0.90481  0.58854  0.42470  1.0000
  C   C19       1.0  0.44516  0.30857  0.06659  1.0000
  C   C20       1.0  0.55484  0.69143  0.93340  1.0000
  C   C21       1.0  0.34737  0.28554  0.89520  1.0000
  C   C22       1.0  0.65263  0.71446  0.10480  1.0000
  C   C23       1.0  0.36660  0.38658  0.07875  1.0000
  C   C24       1.0  0.63339  0.61342  0.92125  1.0000
  C   C25       1.0  0.69590  0.99922  0.55019  1.0000
  C   C26       1.0  0.30410  0.00078  0.44981  1.0000
  C   C27       1.0  0.37007  0.43907  0.17592  1.0000
  C   C28       1.0  0.62993  0.56093  0.82408  1.0000
  C   C29       1.0  0.59195  0.76885  0.48181  1.0000
  C   C30       1.0  0.40805  0.23115  0.51819  1.0000
  C   C31       1.0  0.27987  0.41574  0.00002  1.0000
  C   C32       1.0  0.72014  0.58426  0.99998  1.0000
  C   C33       1.0  0.87268  0.03758  0.60574  1.0000
  C   C34       1.0  0.12732  0.96242  0.39426  1.0000
  C   C35       1.0  0.58519  0.88037  0.37578  1.0000
  C   C36       1.0  0.41481  0.11962  0.62422  1.0000
  C   C37       1.0  0.84748  0.08173  0.93647  1.0000
  C   C38       1.0  0.15251  0.91827  0.06353  1.0000
  C   C39       1.0  0.76834  0.90338  0.83354  1.0000
  C   C40       1.0  0.23165  0.09661  0.16646  1.0000
  C   C41       1.0  0.27357  0.36795  0.90820  1.0000
  C   C42       1.0  0.72643  0.63205  0.09180  1.0000
  C   C43       1.0  0.97925  0.07687  0.91856  1.0000
  C   C44       1.0  0.02074  0.92313  0.08144  1.0000
  C   C45       1.0  0.49349  0.15604  0.96033  1.0000
  C   C46       1.0  0.50651  0.84396  0.03967  1.0000
  C   C47       1.0  0.10008  0.46362  0.83945  1.0000
  C   C48       1.0  0.89992  0.53638  0.16055  1.0000
  C   C49       1.0  0.04210  0.98345  0.72785  1.0000
  C   C50       1.0  0.95790  0.01655  0.27216  1.0000
  C   C51       1.0  0.02131  0.92036  0.80687  1.0000
  C   C52       1.0  0.97869  0.07964  0.19313  1.0000
  C   C53       1.0  0.52377  0.75732  0.32847  1.0000
  C   C54       1.0  0.47623  0.24268  0.67153  1.0000
  C   C55       1.0  0.25515  0.44371  0.46843  1.0000
  C   C56       1.0  0.74486  0.55629  0.53157  1.0000
  N   N1        1.0  0.71685  0.97256  0.88326  1.0000
  N   N2        1.0  0.28315  0.02744  0.11674  1.0000
  N   N3        1.0  0.92701  0.96329  0.85389  1.0000
  N   N4        1.0  0.07300  0.03671  0.14611  1.0000
  N   N5        1.0  0.62736  0.88601  0.47239  1.0000
  N   N6        1.0  0.37264  0.11399  0.52761  1.0000
  N   N7        1.0  0.52911  0.68880  0.39532  1.0000
  N   N8        1.0  0.47089  0.31120  0.60467  1.0000
  O   O1        1.0  0.92521  0.38259  0.67233  1.0000
  O   O2        1.0  0.07480  0.61741  0.32767  1.0000
  O   O3        1.0  0.45960  0.41433  0.24707  1.0000
  O   O4        1.0  0.54040  0.58567  0.75293  1.0000
  O   O5        1.0  0.45353  0.09282  0.87455  1.0000
  O   O6        1.0  0.54647  0.90718  0.12544  1.0000
  O   O7        1.0  0.54003  0.12910  0.34039  1.0000
  O   O8        1.0  0.45997  0.87091  0.65961  1.0000
  O   O9        1.0  0.68804  0.18466  0.24823  1.0000
  O   O10       1.0  0.31196  0.81534  0.75177  1.0000
  O   O11       1.0  0.19549  0.39446  0.82811  1.0000
  O   O12       1.0  0.80451  0.60555  0.17189  1.0000
  O   O13       1.0  0.58040  0.13590  0.03321  1.0000
  O   O14       1.0  0.41959  0.86410  0.96679  1.0000
  O   O15       1.0  0.88709  0.94902  0.65858  1.0000
  O   O16       1.0  0.11291  0.05098  0.34142  1.0000
  O   O17       1.0  0.28977  0.50187  0.18515  1.0000
  O   O18       1.0  0.71023  0.49813  0.81486  1.0000
  O   O19       1.0  0.37627  0.52559  0.53703  1.0000
  O   O20       1.0  0.62373  0.47441  0.46297  1.0000
  O   O21       1.0  0.25529  0.41062  0.38391  1.0000
  O   O22       1.0  0.74471  0.58938  0.61609  1.0000
