data_image0
_chemical_formula_structural       Sm4Ag4H16C8S4O40
_chemical_formula_sum              "Sm4 Ag4 H16 C8 S4 O40"
_cell_length_a       6.63769
_cell_length_b       8.92045
_cell_length_c       13.9338
_cell_angle_alpha    89.9996
_cell_angle_beta     90.0002
_cell_angle_gamma    97.6271

_space_group_name_H-M_alt    "P 1"
_space_group_IT_number       1

loop_
  _space_group_symop_operation_xyz
  'x, y, z'

loop_
  _atom_site_type_symbol
  _atom_site_label
  _atom_site_symmetry_multiplicity
  _atom_site_fract_x
  _atom_site_fract_y
  _atom_site_fract_z
  _atom_site_occupancy
  Sm  Sm1       1.0  0.22475  0.78225  0.08661  1.0000
  Sm  Sm2       1.0  0.77526  0.71775  0.58661  1.0000
  Sm  Sm3       1.0  0.77525  0.21775  0.91339  1.0000
  Sm  Sm4       1.0  0.22474  0.28225  0.41339  1.0000
  Ag  Ag1       1.0  0.71751  0.76972  0.25656  1.0000
  Ag  Ag2       1.0  0.28250  0.73027  0.75656  1.0000
  Ag  Ag3       1.0  0.28249  0.23028  0.74344  1.0000
  Ag  Ag4       1.0  0.71750  0.26972  0.24344  1.0000
  H   H1        1.0  0.31944  0.96070  0.90157  1.0000
  H   H2        1.0  0.68057  0.53929  0.40158  1.0000
  H   H3        1.0  0.68056  0.03929  0.09842  1.0000
  H   H4        1.0  0.31944  0.46071  0.59842  1.0000
  H   H5        1.0  0.08437  0.90439  0.90358  1.0000
  H   H6        1.0  0.91563  0.59561  0.40358  1.0000
  H   H7        1.0  0.91563  0.09561  0.09642  1.0000
  H   H8        1.0  0.08437  0.40439  0.59642  1.0000
  H   H9        1.0  0.21890  0.47240  0.97420  1.0000
  H   H10       1.0  0.78110  0.02760  0.47420  1.0000
  H   H11       1.0  0.78110  0.52760  0.02580  1.0000
  H   H12       1.0  0.21890  0.97240  0.52580  1.0000
  H   H13       1.0  0.40557  0.59620  0.94216  1.0000
  H   H14       1.0  0.59443  0.90380  0.44216  1.0000
  H   H15       1.0  0.59443  0.40380  0.05784  1.0000
  H   H16       1.0  0.40557  0.09620  0.55784  1.0000
  C   C1        1.0  0.12504  0.97839  0.27885  1.0000
  C   C2        1.0  0.87497  0.52161  0.77886  1.0000
  C   C3        1.0  0.87495  0.02161  0.72114  1.0000
  C   C4        1.0  0.12503  0.47839  0.22114  1.0000
  C   C5        1.0  0.35358  0.02444  0.26196  1.0000
  C   C6        1.0  0.64643  0.47556  0.76196  1.0000
  C   C7        1.0  0.64641  0.97556  0.73804  1.0000
  C   C8        1.0  0.35357  0.52444  0.23803  1.0000
  S   S1        1.0  0.27307  0.19465  0.03149  1.0000
  S   S2        1.0  0.72693  0.30535  0.53149  1.0000
  S   S3        1.0  0.72693  0.80535  0.96851  1.0000
  S   S4        1.0  0.27307  0.69466  0.46851  1.0000
  O   O1        1.0  0.44254  0.95107  0.20163  1.0000
  O   O2        1.0  0.55747  0.54893  0.70163  1.0000
  O   O3        1.0  0.55745  0.04893  0.79838  1.0000
  O   O4        1.0  0.44254  0.45106  0.29837  1.0000
  O   O5        1.0  0.03622  0.05616  0.33611  1.0000
  O   O6        1.0  0.96379  0.44385  0.83613  1.0000
  O   O7        1.0  0.96377  0.94385  0.66389  1.0000
  O   O8        1.0  0.03621  0.55615  0.16388  1.0000
  O   O9        1.0  0.21996  0.86895  0.90937  1.0000
  O   O10       1.0  0.78004  0.63105  0.40936  1.0000
  O   O11       1.0  0.78004  0.13105  0.09063  1.0000
  O   O12       1.0  0.21996  0.36894  0.59064  1.0000
  O   O13       1.0  0.15872  0.05476  0.07493  1.0000
  O   O14       1.0  0.84128  0.44524  0.57493  1.0000
  O   O15       1.0  0.84128  0.94524  0.92507  1.0000
  O   O16       1.0  0.15872  0.55476  0.42507  1.0000
  O   O17       1.0  0.43009  0.14821  0.96523  1.0000
  O   O18       1.0  0.56991  0.35179  0.46523  1.0000
  O   O19       1.0  0.56991  0.85179  0.03477  1.0000
  O   O20       1.0  0.43009  0.64821  0.53477  1.0000
  O   O21       1.0  0.36821  0.29730  0.10563  1.0000
  O   O22       1.0  0.63178  0.20270  0.60563  1.0000
  O   O23       1.0  0.63179  0.70271  0.89437  1.0000
  O   O24       1.0  0.36822  0.79730  0.39437  1.0000
  O   O25       1.0  0.12417  0.27052  0.97393  1.0000
  O   O26       1.0  0.87583  0.22948  0.47393  1.0000
  O   O27       1.0  0.87583  0.72948  0.02607  1.0000
  O   O28       1.0  0.12417  0.77052  0.52607  1.0000
  O   O29       1.0  0.28393  0.57731  0.98352  1.0000
  O   O30       1.0  0.71607  0.92269  0.48352  1.0000
  O   O31       1.0  0.71607  0.42269  0.01648  1.0000
  O   O32       1.0  0.28393  0.07731  0.51648  1.0000
  O   O33       1.0  0.04269  0.86494  0.23004  1.0000
  O   O34       1.0  0.95732  0.63506  0.73005  1.0000
  O   O35       1.0  0.95731  0.13506  0.76996  1.0000
  O   O36       1.0  0.04268  0.36494  0.26996  1.0000
  O   O37       1.0  0.43425  0.13849  0.30982  1.0000
  O   O38       1.0  0.56574  0.36152  0.80983  1.0000
  O   O39       1.0  0.56574  0.86152  0.69018  1.0000
  O   O40       1.0  0.43425  0.63848  0.19017  1.0000
