data_image0
_chemical_formula_structural       Tb2Ag2H4C4S2O18
_chemical_formula_sum              "Tb2 Ag2 H4 C4 S2 O18"
_cell_length_a       6.9138
_cell_length_b       7.68693
_cell_length_c       9.08558
_cell_angle_alpha    113.295
_cell_angle_beta     89.9962
_cell_angle_gamma    116.75

_space_group_name_H-M_alt    "P 1"
_space_group_IT_number       1

loop_
  _space_group_symop_operation_xyz
  'x, y, z'

loop_
  _atom_site_type_symbol
  _atom_site_label
  _atom_site_symmetry_multiplicity
  _atom_site_fract_x
  _atom_site_fract_y
  _atom_site_fract_z
  _atom_site_occupancy
  Tb  Tb1       1.0  0.75613  0.51227  0.73956  1.0000
  Tb  Tb2       1.0  0.24387  0.48773  0.26044  1.0000
  Ag  Ag1       1.0  0.91854  0.83715  0.33421  1.0000
  Ag  Ag2       1.0  0.08146  0.16285  0.66579  1.0000
  H   H1        1.0  0.69383  0.38798  0.01985  1.0000
  H   H2        1.0  0.30618  0.61202  0.98015  1.0000
  H   H3        1.0  0.58279  0.16582  0.85648  1.0000
  H   H4        1.0  0.41721  0.83418  0.14352  1.0000
  C   C1        1.0  0.98259  0.96527  0.06960  1.0000
  C   C2        1.0  0.01740  0.03472  0.93040  1.0000
  C   C3        1.0  0.39026  0.99992  0.49995  1.0000
  C   C4        1.0  0.60975  0.00009  0.50006  1.0000
  S   S1        1.0  0.66959  0.33943  0.29694  1.0000
  S   S2        1.0  0.33041  0.66057  0.70306  1.0000
  O   O1        1.0  0.88148  0.76296  0.02869  1.0000
  O   O2        1.0  0.11851  0.23704  0.97131  1.0000
  O   O3        1.0  0.05660  0.11336  0.21559  1.0000
  O   O4        1.0  0.94340  0.88664  0.78441  1.0000
  O   O5        1.0  0.39682  0.17743  0.59190  1.0000
  O   O6        1.0  0.21925  0.82234  0.40797  1.0000
  O   O7        1.0  0.60318  0.82257  0.40809  1.0000
  O   O8        1.0  0.78075  0.17766  0.59203  1.0000
  O   O9        1.0  0.73882  0.47804  0.47768  1.0000
  O   O10       1.0  0.26119  0.52196  0.52232  1.0000
  O   O11       1.0  0.52549  0.39632  0.22376  1.0000
  O   O12       1.0  0.12929  0.60379  0.77617  1.0000
  O   O13       1.0  0.47451  0.60367  0.77625  1.0000
  O   O14       1.0  0.87071  0.39622  0.22383  1.0000
  O   O15       1.0  0.55393  0.10846  0.25736  1.0000
  O   O16       1.0  0.44608  0.89154  0.74264  1.0000
  O   O17       1.0  0.66279  0.32618  0.90009  1.0000
  O   O18       1.0  0.33720  0.67382  0.09991  1.0000
