data_image0
_chemical_formula_structural       Dy2Ag2H4C4S2O18
_chemical_formula_sum              "Dy2 Ag2 H4 C4 S2 O18"
_cell_length_a       6.89605
_cell_length_b       7.67287
_cell_length_c       9.06553
_cell_angle_alpha    113.449
_cell_angle_beta     89.9664
_cell_angle_gamma    116.737

_space_group_name_H-M_alt    "P 1"
_space_group_IT_number       1

loop_
  _space_group_symop_operation_xyz
  'x, y, z'

loop_
  _atom_site_type_symbol
  _atom_site_label
  _atom_site_symmetry_multiplicity
  _atom_site_fract_x
  _atom_site_fract_y
  _atom_site_fract_z
  _atom_site_occupancy
  Dy  Dy1       1.0  0.75597  0.51210  0.73911  1.0000
  Dy  Dy2       1.0  0.24403  0.48790  0.26089  1.0000
  Ag  Ag1       1.0  0.91815  0.83609  0.33329  1.0000
  Ag  Ag2       1.0  0.08184  0.16390  0.66671  1.0000
  H   H1        1.0  0.69459  0.39046  0.01956  1.0000
  H   H2        1.0  0.30541  0.60954  0.98044  1.0000
  H   H3        1.0  0.58326  0.16680  0.85612  1.0000
  H   H4        1.0  0.41674  0.83320  0.14387  1.0000
  C   C1        1.0  0.98278  0.96557  0.06972  1.0000
  C   C2        1.0  0.01722  0.03442  0.93028  1.0000
  C   C3        1.0  0.39028  0.99993  0.50000  1.0000
  C   C4        1.0  0.60972  0.00008  0.50000  1.0000
  S   S1        1.0  0.66946  0.33921  0.29670  1.0000
  S   S2        1.0  0.33054  0.66079  0.70330  1.0000
  O   O1        1.0  0.88121  0.76263  0.02853  1.0000
  O   O2        1.0  0.11879  0.23737  0.97147  1.0000
  O   O3        1.0  0.05738  0.11459  0.21613  1.0000
  O   O4        1.0  0.94262  0.88541  0.78387  1.0000
  O   O5        1.0  0.39734  0.17855  0.59143  1.0000
  O   O6        1.0  0.21872  0.82121  0.40857  1.0000
  O   O7        1.0  0.60265  0.82145  0.40857  1.0000
  O   O8        1.0  0.78128  0.17879  0.59143  1.0000
  O   O9        1.0  0.73855  0.47794  0.47816  1.0000
  O   O10       1.0  0.26146  0.52205  0.52185  1.0000
  O   O11       1.0  0.52509  0.39644  0.22362  1.0000
  O   O12       1.0  0.12855  0.60392  0.77610  1.0000
  O   O13       1.0  0.47491  0.60356  0.77638  1.0000
  O   O14       1.0  0.87146  0.39607  0.22390  1.0000
  O   O15       1.0  0.55318  0.10749  0.25635  1.0000
  O   O16       1.0  0.44682  0.89251  0.74365  1.0000
  O   O17       1.0  0.66354  0.32755  0.89937  1.0000
  O   O18       1.0  0.33646  0.67245  0.10063  1.0000
