data_image0
_chemical_formula_structural       Ag4H32C36N24
_chemical_formula_sum              "Ag4 H32 C36 N24"
_cell_length_a       5.33965
_cell_length_b       12.2917
_cell_length_c       14.8165
_cell_angle_alpha    91.0673
_cell_angle_beta     89.9988
_cell_angle_gamma    90.0005

_space_group_name_H-M_alt    "P 1"
_space_group_IT_number       1

loop_
  _space_group_symop_operation_xyz
  'x, y, z'

loop_
  _atom_site_type_symbol
  _atom_site_label
  _atom_site_symmetry_multiplicity
  _atom_site_fract_x
  _atom_site_fract_y
  _atom_site_fract_z
  _atom_site_occupancy
  Ag  Ag1       1.0  0.18641  0.59744  0.00259  1.0000
  Ag  Ag2       1.0  0.68641  0.90256  0.99740  1.0000
  Ag  Ag3       1.0  0.81359  0.40256  0.99741  1.0000
  Ag  Ag4       1.0  0.31359  0.09743  0.00259  1.0000
  H   H1        1.0  0.66189  0.69323  0.11410  1.0000
  H   H2        1.0  0.16187  0.80676  0.88590  1.0000
  H   H3        1.0  0.33812  0.30677  0.88590  1.0000
  H   H4        1.0  0.83811  0.19324  0.11410  1.0000
  H   H5        1.0  0.50106  0.64478  0.34781  1.0000
  H   H6        1.0  0.00106  0.85522  0.65219  1.0000
  H   H7        1.0  0.49894  0.35523  0.65218  1.0000
  H   H8        1.0  0.99892  0.14477  0.34781  1.0000
  H   H9        1.0  0.45558  0.73782  0.25900  1.0000
  H   H10       1.0  0.95557  0.76218  0.74100  1.0000
  H   H11       1.0  0.54444  0.26219  0.74100  1.0000
  H   H12       1.0  0.04443  0.23782  0.25900  1.0000
  H   H13       1.0  0.44235  0.78276  0.46654  1.0000
  H   H14       1.0  0.94237  0.71724  0.53346  1.0000
  H   H15       1.0  0.55765  0.21724  0.53347  1.0000
  H   H16       1.0  0.05764  0.28275  0.46654  1.0000
  H   H17       1.0  0.62537  0.92565  0.56059  1.0000
  H   H18       1.0  0.12539  0.57436  0.43941  1.0000
  H   H19       1.0  0.37462  0.07436  0.43941  1.0000
  H   H20       1.0  0.87462  0.42564  0.56059  1.0000
  H   H21       1.0  0.22304  0.96091  0.36625  1.0000
  H   H22       1.0  0.72302  0.53909  0.63375  1.0000
  H   H23       1.0  0.77696  0.03910  0.63375  1.0000
  H   H24       1.0  0.27698  0.46090  0.36625  1.0000
  H   H25       1.0  0.02719  0.82112  0.26990  1.0000
  H   H26       1.0  0.52716  0.67887  0.73010  1.0000
  H   H27       1.0  0.97282  0.17889  0.73010  1.0000
  H   H28       1.0  0.47284  0.32112  0.26990  1.0000
  H   H29       1.0  0.25214  0.49961  0.21051  1.0000
  H   H30       1.0  0.75216  0.00038  0.78948  1.0000
  H   H31       1.0  0.74786  0.50040  0.78949  1.0000
  H   H32       1.0  0.24785  0.99960  0.21051  1.0000
  C   C1        1.0  0.79071  0.64806  0.15601  1.0000
  C   C2        1.0  0.29071  0.85194  0.84399  1.0000
  C   C3        1.0  0.20929  0.35194  0.84399  1.0000
  C   C4        1.0  0.70929  0.14807  0.15601  1.0000
  C   C5        1.0  0.59647  0.70322  0.30448  1.0000
  C   C6        1.0  0.09646  0.79678  0.69552  1.0000
  C   C7        1.0  0.40354  0.29679  0.69552  1.0000
  C   C8        1.0  0.90353  0.20321  0.30447  1.0000
  C   C9        1.0  0.72081  0.79114  0.36125  1.0000
  C   C10       1.0  0.22081  0.70885  0.63875  1.0000
  C   C11       1.0  0.27920  0.20886  0.63875  1.0000
  C   C12       1.0  0.77920  0.29114  0.36125  1.0000
  C   C13       1.0  0.61181  0.82302  0.44338  1.0000
  C   C14       1.0  0.11181  0.67697  0.55662  1.0000
  C   C15       1.0  0.38819  0.17698  0.55662  1.0000
  C   C16       1.0  0.88820  0.32302  0.44338  1.0000
  C   C17       1.0  0.71823  0.90492  0.49707  1.0000
  C   C18       1.0  0.21825  0.59508  0.50294  1.0000
  C   C19       1.0  0.28176  0.09509  0.50293  1.0000
  C   C20       1.0  0.78175  0.40491  0.49707  1.0000
  C   C21       1.0  0.94095  0.95725  0.47119  1.0000
  C   C22       1.0  0.44094  0.54275  0.52881  1.0000
  C   C23       1.0  0.05904  0.04276  0.52881  1.0000
  C   C24       1.0  0.55906  0.45724  0.47119  1.0000
  C   C25       1.0  0.04863  0.92415  0.38837  1.0000
  C   C26       1.0  0.54862  0.57584  0.61163  1.0000
  C   C27       1.0  0.95137  0.07586  0.61163  1.0000
  C   C28       1.0  0.45138  0.42415  0.38837  1.0000
  C   C29       1.0  0.93992  0.84346  0.33411  1.0000
  C   C30       1.0  0.43989  0.65654  0.66589  1.0000
  C   C31       1.0  0.06008  0.15655  0.66590  1.0000
  C   C32       1.0  0.56010  0.34345  0.33411  1.0000
  C   C33       1.0  0.08535  0.54999  0.20846  1.0000
  C   C34       1.0  0.58537  0.95000  0.79154  1.0000
  C   C35       1.0  0.91465  0.45001  0.79155  1.0000
  C   C36       1.0  0.41465  0.04999  0.20845  1.0000
  N   N1        1.0  0.95850  0.58181  0.28117  1.0000
  N   N2        1.0  0.45851  0.91819  0.71883  1.0000
  N   N3        1.0  0.04151  0.41820  0.71884  1.0000
  N   N4        1.0  0.54149  0.08180  0.28116  1.0000
  N   N5        1.0  0.98949  0.58904  0.12980  1.0000
  N   N6        1.0  0.48950  0.91095  0.87020  1.0000
  N   N7        1.0  0.01051  0.41096  0.87020  1.0000
  N   N8        1.0  0.51051  0.08904  0.12979  1.0000
  N   N9        1.0  0.77153  0.64398  0.24637  1.0000
  N   N10       1.0  0.27153  0.85602  0.75363  1.0000
  N   N11       1.0  0.22847  0.35603  0.75363  1.0000
  N   N12       1.0  0.72846  0.14398  0.24637  1.0000
  N   N13       1.0  0.46951  0.59674  0.90015  1.0000
  N   N14       1.0  0.96949  0.90327  0.09985  1.0000
  N   N15       1.0  0.53048  0.40326  0.09985  1.0000
  N   N16       1.0  0.03051  0.09673  0.90014  1.0000
  N   N17       1.0  0.65481  0.65002  0.91036  1.0000
  N   N18       1.0  0.15480  0.84998  0.08964  1.0000
  N   N19       1.0  0.34520  0.34999  0.08964  1.0000
  N   N20       1.0  0.84521  0.15002  0.91036  1.0000
  N   N21       1.0  0.84198  0.70090  0.91732  1.0000
  N   N22       1.0  0.34194  0.79910  0.08268  1.0000
  N   N23       1.0  0.15803  0.29910  0.08267  1.0000
  N   N24       1.0  0.65805  0.20090  0.91732  1.0000
