data_image0
_chemical_formula_structural       Ag2H32C36N18
_chemical_formula_sum              "Ag2 H32 C36 N18"
_cell_length_a       7.58366
_cell_length_b       8.18964
_cell_length_c       14.9942
_cell_angle_alpha    95.9353
_cell_angle_beta     103.037
_cell_angle_gamma    102.556

_space_group_name_H-M_alt    "P 1"
_space_group_IT_number       1

loop_
  _space_group_symop_operation_xyz
  'x, y, z'

loop_
  _atom_site_type_symbol
  _atom_site_label
  _atom_site_symmetry_multiplicity
  _atom_site_fract_x
  _atom_site_fract_y
  _atom_site_fract_z
  _atom_site_occupancy
  Ag  Ag1       1.0  0.52308  0.64640  0.94248  1.0000
  Ag  Ag2       1.0  0.47691  0.35360  0.05752  1.0000
  H   H1        1.0  0.53955  0.48052  0.72327  1.0000
  H   H2        1.0  0.46046  0.51948  0.27673  1.0000
  H   H3        1.0  0.10294  0.35419  0.85523  1.0000
  H   H4        1.0  0.89706  0.64580  0.14477  1.0000
  H   H5        1.0  0.02143  0.01266  0.66124  1.0000
  H   H6        1.0  0.97858  0.98734  0.33876  1.0000
  H   H7        1.0  0.90770  0.09828  0.73957  1.0000
  H   H8        1.0  0.09230  0.90171  0.26043  1.0000
  H   H9        1.0  0.01402  0.16864  0.50846  1.0000
  H   H10       1.0  0.98599  0.83136  0.49153  1.0000
  H   H11       1.0  0.78049  0.22321  0.37812  1.0000
  H   H12       1.0  0.21950  0.77679  0.62188  1.0000
  H   H13       1.0  0.40111  0.22816  0.55417  1.0000
  H   H14       1.0  0.59889  0.77184  0.44583  1.0000
  H   H15       1.0  0.63690  0.17972  0.68324  1.0000
  H   H16       1.0  0.36311  0.82027  0.31676  1.0000
  H   H17       1.0  0.51867  0.11115  0.27315  1.0000
  H   H18       1.0  0.48133  0.88885  0.72685  1.0000
  H   H19       1.0  0.26821  0.13184  0.14253  1.0000
  H   H20       1.0  0.73179  0.86816  0.85747  1.0000
  H   H21       1.0  0.04623  0.41810  0.32794  1.0000
  H   H22       1.0  0.95377  0.58190  0.67206  1.0000
  H   H23       1.0  0.29611  0.39587  0.45992  1.0000
  H   H24       1.0  0.70390  0.60414  0.54008  1.0000
  H   H25       1.0  0.91544  0.38421  0.16260  1.0000
  H   H26       1.0  0.08456  0.61579  0.83740  1.0000
  H   H27       1.0  0.03697  0.31351  0.08411  1.0000
  H   H28       1.0  0.96302  0.68649  0.91589  1.0000
  H   H29       1.0  0.84413  0.05055  0.97509  1.0000
  H   H30       1.0  0.15586  0.94944  0.02491  1.0000
  H   H31       1.0  0.51665  0.84128  0.14787  1.0000
  H   H32       1.0  0.48335  0.15872  0.85214  1.0000
  C   C1        1.0  0.40830  0.42200  0.73746  1.0000
  C   C2        1.0  0.59171  0.57800  0.26254  1.0000
  C   C3        1.0  0.19002  0.36173  0.80632  1.0000
  C   C4        1.0  0.80998  0.63826  0.19368  1.0000
  C   C5        1.0  0.97457  0.12441  0.68328  1.0000
  C   C6        1.0  0.02543  0.87559  0.31671  1.0000
  C   C7        1.0  0.83996  0.16838  0.60437  1.0000
  C   C8        1.0  0.16005  0.83162  0.39562  1.0000
  C   C9        1.0  0.87929  0.18255  0.51809  1.0000
  C   C10       1.0  0.12072  0.81745  0.48191  1.0000
  C   C11       1.0  0.74747  0.21347  0.44486  1.0000
  C   C12       1.0  0.25253  0.78653  0.55514  1.0000
  C   C13       1.0  0.57218  0.22968  0.45583  1.0000
  C   C14       1.0  0.42782  0.77032  0.54417  1.0000
  C   C15       1.0  0.53585  0.21904  0.54301  1.0000
  C   C16       1.0  0.46416  0.78096  0.45699  1.0000
  C   C17       1.0  0.66831  0.18979  0.61623  1.0000
  C   C18       1.0  0.33169  0.81021  0.38377  1.0000
  C   C19       1.0  0.42537  0.24911  0.37713  1.0000
  C   C20       1.0  0.57463  0.75089  0.62287  1.0000
  C   C21       1.0  0.41519  0.17780  0.28614  1.0000
  C   C22       1.0  0.58481  0.82220  0.71386  1.0000
  C   C23       1.0  0.27351  0.19031  0.21204  1.0000
  C   C24       1.0  0.72649  0.80969  0.78795  1.0000
  C   C25       1.0  0.13798  0.27544  0.22561  1.0000
  C   C26       1.0  0.86202  0.72456  0.77439  1.0000
  C   C27       1.0  0.14829  0.34843  0.31591  1.0000
  C   C28       1.0  0.85171  0.65157  0.68409  1.0000
  C   C29       1.0  0.28946  0.33521  0.39060  1.0000
  C   C30       1.0  0.71054  0.66480  0.60940  1.0000
  C   C31       1.0  0.98402  0.28562  0.14476  1.0000
  C   C32       1.0  0.01597  0.71438  0.85524  1.0000
  C   C33       1.0  0.78751  0.02133  0.03368  1.0000
  C   C34       1.0  0.21247  0.97867  0.96633  1.0000
  C   C35       1.0  0.62308  0.92150  0.12292  1.0000
  C   C36       1.0  0.37690  0.07850  0.87709  1.0000
  N   N1        1.0  0.35814  0.46740  0.81674  1.0000
  N   N2        1.0  0.64186  0.53260  0.18326  1.0000
  N   N3        1.0  0.28044  0.29614  0.67906  1.0000
  N   N4        1.0  0.71956  0.70386  0.32094  1.0000
  N   N5        1.0  0.14316  0.26041  0.72389  1.0000
  N   N6        1.0  0.85684  0.73959  0.27611  1.0000
  N   N7        1.0  0.83887  0.12634  0.11513  1.0000
  N   N8        1.0  0.16113  0.87366  0.88487  1.0000
  N   N9        1.0  0.73528  0.06483  0.17303  1.0000
  N   N10       1.0  0.26471  0.93517  0.82697  1.0000
  N   N11       1.0  0.65075  0.88845  0.03633  1.0000
  N   N12       1.0  0.34924  0.11155  0.96367  1.0000
  N   N13       1.0  0.75323  0.47381  0.98204  1.0000
  N   N14       1.0  0.24676  0.52619  0.01796  1.0000
  N   N15       1.0  0.78276  0.37247  0.92767  1.0000
  N   N16       1.0  0.21724  0.62753  0.07234  1.0000
  N   N17       1.0  0.81270  0.27085  0.87461  1.0000
  N   N18       1.0  0.18731  0.72915  0.12539  1.0000
