data_image0
_chemical_formula_structural       Zn2H22C36N6O8
_chemical_formula_sum              "Zn2 H22 C36 N6 O8"
_cell_length_a       10.1511
_cell_length_b       11.4188
_cell_length_c       13.9904
_cell_angle_alpha    90
_cell_angle_beta     101.838
_cell_angle_gamma    90

_space_group_name_H-M_alt    "P 1"
_space_group_IT_number       1

loop_
  _space_group_symop_operation_xyz
  'x, y, z'

loop_
  _atom_site_type_symbol
  _atom_site_label
  _atom_site_symmetry_multiplicity
  _atom_site_fract_x
  _atom_site_fract_y
  _atom_site_fract_z
  _atom_site_occupancy
  Zn  Zn1       1.0  0.62659  0.00000  0.39691  1.0000
  Zn  Zn2       1.0  0.37341  1.00000  0.60309  1.0000
  H   H1        1.0  0.08442  0.00000  0.41047  1.0000
  H   H2        1.0  0.91558  0.00000  0.58953  1.0000
  H   H3        1.0  0.83974  1.00000  0.11992  1.0000
  H   H4        1.0  0.16026  0.00000  0.88008  1.0000
  H   H5        1.0  0.27281  0.00000  0.16017  1.0000
  H   H6        1.0  0.72719  1.00000  0.83983  1.0000
  H   H7        1.0  0.46568  0.19713  0.28310  1.0000
  H   H8        1.0  0.53432  0.19713  0.71690  1.0000
  H   H9        1.0  0.53432  0.80287  0.71690  1.0000
  H   H10       1.0  0.46568  0.80287  0.28310  1.0000
  H   H11       1.0  0.45797  0.41387  0.27840  1.0000
  H   H12       1.0  0.54203  0.41387  0.72160  1.0000
  H   H13       1.0  0.54203  0.58613  0.72160  1.0000
  H   H14       1.0  0.45797  0.58613  0.27840  1.0000
  H   H15       1.0  0.79201  0.41171  0.52767  1.0000
  H   H16       1.0  0.20799  0.41171  0.47233  1.0000
  H   H17       1.0  0.20799  0.58829  0.47233  1.0000
  H   H18       1.0  0.79201  0.58829  0.52767  1.0000
  H   H19       1.0  0.78339  0.19468  0.52019  1.0000
  H   H20       1.0  0.21661  0.19468  0.47981  1.0000
  H   H21       1.0  0.21661  0.80532  0.47981  1.0000
  H   H22       1.0  0.78339  0.80532  0.52020  1.0000
  C   C1        1.0  0.33047  0.00000  0.35941  1.0000
  C   C2        1.0  0.66953  1.00000  0.64060  1.0000
  C   C3        1.0  0.19399  0.00000  0.29274  1.0000
  C   C4        1.0  0.80601  0.00000  0.70726  1.0000
  C   C5        1.0  0.07733  0.00000  0.33155  1.0000
  C   C6        1.0  0.92267  0.00000  0.66845  1.0000
  C   C7        1.0  0.94995  0.00000  0.26899  1.0000
  C   C8        1.0  0.05005  0.00000  0.73101  1.0000
  C   C9        1.0  0.82536  1.00000  0.31122  1.0000
  C   C10       1.0  0.17464  0.00000  0.68878  1.0000
  C   C11       1.0  0.93885  0.00000  0.16794  1.0000
  C   C12       1.0  0.06115  0.00000  0.83206  1.0000
  C   C13       1.0  0.05593  0.00000  0.12891  1.0000
  C   C14       1.0  0.94407  1.00000  0.87109  1.0000
  C   C15       1.0  0.18285  0.00000  0.19134  1.0000
  C   C16       1.0  0.81715  1.00000  0.80866  1.0000
  C   C17       1.0  0.53550  0.24931  0.33592  1.0000
  C   C18       1.0  0.46450  0.24931  0.66408  1.0000
  C   C19       1.0  0.46450  0.75069  0.66408  1.0000
  C   C20       1.0  0.53550  0.75069  0.33593  1.0000
  C   C21       1.0  0.53255  0.37090  0.33438  1.0000
  C   C22       1.0  0.46745  0.37090  0.66562  1.0000
  C   C23       1.0  0.46746  0.62910  0.66562  1.0000
  C   C24       1.0  0.53255  0.62910  0.33438  1.0000
  C   C25       1.0  0.62458  0.43506  0.40350  1.0000
  C   C26       1.0  0.37542  0.43506  0.59650  1.0000
  C   C27       1.0  0.37542  0.56494  0.59650  1.0000
  C   C28       1.0  0.62458  0.56494  0.40350  1.0000
  C   C29       1.0  0.71657  0.36956  0.47170  1.0000
  C   C30       1.0  0.28343  0.36956  0.52830  1.0000
  C   C31       1.0  0.28343  0.63044  0.52830  1.0000
  C   C32       1.0  0.71657  0.63044  0.47170  1.0000
  C   C33       1.0  0.71298  0.24786  0.46855  1.0000
  C   C34       1.0  0.28702  0.24786  0.53145  1.0000
  C   C35       1.0  0.28702  0.75214  0.53145  1.0000
  C   C36       1.0  0.71298  0.75214  0.46855  1.0000
  N   N1        1.0  0.05758  1.00000  0.02788  1.0000
  N   N2        1.0  0.94242  1.00000  0.97212  1.0000
  N   N3        1.0  0.62361  0.18833  0.40210  1.0000
  N   N4        1.0  0.37639  0.18833  0.59790  1.0000
  N   N5        1.0  0.37639  0.81167  0.59790  1.0000
  N   N6        1.0  0.62361  0.81167  0.40210  1.0000
  O   O1        1.0  0.43205  0.00000  0.31817  1.0000
  O   O2        1.0  0.56795  1.00000  0.68183  1.0000
  O   O3        1.0  0.33660  0.00000  0.45031  1.0000
  O   O4        1.0  0.66340  0.00000  0.54970  1.0000
  O   O5        1.0  0.84003  0.00000  0.40464  1.0000
  O   O6        1.0  0.15996  0.00000  0.59536  1.0000
  O   O7        1.0  0.71002  1.00000  0.25510  1.0000
  O   O8        1.0  0.28998  0.00000  0.74490  1.0000
