data_image0
_chemical_formula_structural       Zn2H12C12N4O12
_chemical_formula_sum              "Zn2 H12 C12 N4 O12"
_cell_length_a       6.92861
_cell_length_b       7.45713
_cell_length_c       9.58119
_cell_angle_alpha    70.5334
_cell_angle_beta     68.8917
_cell_angle_gamma    62.3937

_space_group_name_H-M_alt    "P 1"
_space_group_IT_number       1

loop_
  _space_group_symop_operation_xyz
  'x, y, z'

loop_
  _atom_site_type_symbol
  _atom_site_label
  _atom_site_symmetry_multiplicity
  _atom_site_fract_x
  _atom_site_fract_y
  _atom_site_fract_z
  _atom_site_occupancy
  Zn  Zn1       1.0  0.08176  0.24989  0.75013  1.0000
  Zn  Zn2       1.0  0.91824  0.75011  0.24987  1.0000
  H   H1        1.0  0.63469  0.57098  0.67476  1.0000
  H   H2        1.0  0.12000  0.07152  0.17470  1.0000
  H   H3        1.0  0.36531  0.42902  0.32524  1.0000
  H   H4        1.0  0.88001  0.92848  0.82529  1.0000
  H   H5        1.0  0.24193  0.02032  0.54830  1.0000
  H   H6        1.0  0.18898  0.52020  0.04838  1.0000
  H   H7        1.0  0.75807  0.97967  0.45170  1.0000
  H   H8        1.0  0.81102  0.47980  0.95161  1.0000
  H   H9        1.0  0.11370  0.25088  0.46582  1.0000
  H   H10       1.0  0.16918  0.75075  0.96587  1.0000
  H   H11       1.0  0.88631  0.74911  0.53418  1.0000
  H   H12       1.0  0.83082  0.24925  0.03413  1.0000
  C   C1        1.0  0.40968  0.42654  0.70270  1.0000
  C   C2        1.0  0.46134  0.92690  0.20245  1.0000
  C   C3        1.0  0.59031  0.57347  0.29730  1.0000
  C   C4        1.0  0.53866  0.07310  0.79755  1.0000
  C   C5        1.0  0.22179  0.61104  0.63990  1.0000
  C   C6        1.0  0.52781  0.11140  0.13970  1.0000
  C   C7        1.0  0.77822  0.38895  0.36011  1.0000
  C   C8        1.0  0.47219  0.88859  0.86030  1.0000
  C   C9        1.0  0.60814  0.42792  0.70757  1.0000
  C   C10       1.0  0.25648  0.92841  0.20746  1.0000
  C   C11       1.0  0.39186  0.57209  0.29243  1.0000
  C   C12       1.0  0.74352  0.07159  0.79254  1.0000
  N   N1        1.0  0.38048  0.24985  0.75016  1.0000
  N   N2        1.0  0.61951  0.75016  0.24984  1.0000
  N   N3        1.0  0.77385  0.24972  0.75006  1.0000
  N   N4        1.0  0.22614  0.75028  0.24994  1.0000
  O   O1        1.0  0.24461  0.77899  0.58488  1.0000
  O   O2        1.0  0.39222  0.27950  0.08489  1.0000
  O   O3        1.0  0.75539  0.22101  0.41513  1.0000
  O   O4        1.0  0.60778  0.72050  0.91511  1.0000
  O   O5        1.0  0.05653  0.57293  0.64379  1.0000
  O   O6        1.0  0.72731  0.07308  0.14348  1.0000
  O   O7        1.0  0.94347  0.42708  0.35621  1.0000
  O   O8        1.0  0.27269  0.92692  0.85652  1.0000
  O   O9        1.0  0.22035  0.16575  0.53368  1.0000
  O   O10       1.0  0.07990  0.66552  0.03362  1.0000
  O   O11       1.0  0.77966  0.83425  0.46632  1.0000
  O   O12       1.0  0.92010  0.33448  0.96638  1.0000
