data_image0
_chemical_formula_structural       Zn2H8C8I4N4
_chemical_formula_sum              "Zn2 H8 C8 I4 N4"
_cell_length_a       6.29762
_cell_length_b       7.3791
_cell_length_c       9.83617
_cell_angle_alpha    89.9996
_cell_angle_beta     90.0005
_cell_angle_gamma    110.855

_space_group_name_H-M_alt    "P 1"
_space_group_IT_number       1

loop_
  _space_group_symop_operation_xyz
  'x, y, z'

loop_
  _atom_site_type_symbol
  _atom_site_label
  _atom_site_symmetry_multiplicity
  _atom_site_fract_x
  _atom_site_fract_y
  _atom_site_fract_z
  _atom_site_occupancy
  Zn  Zn1       1.0  0.62344  0.52983  0.75000  1.0000
  Zn  Zn2       1.0  0.37655  0.47016  0.25001  1.0000
  H   H1        1.0  0.05386  0.80299  0.88096  1.0000
  H   H2        1.0  0.94617  0.19700  0.38098  1.0000
  H   H3        1.0  0.94615  0.19706  0.11903  1.0000
  H   H4        1.0  0.05381  0.80294  0.61901  1.0000
  H   H5        1.0  0.65803  0.22246  0.94854  1.0000
  H   H6        1.0  0.34196  0.77755  0.44853  1.0000
  H   H7        1.0  0.34197  0.77755  0.05147  1.0000
  H   H8        1.0  0.65805  0.22244  0.55148  1.0000
  C   C1        1.0  0.03096  0.66702  0.93351  1.0000
  C   C2        1.0  0.96905  0.33298  0.43352  1.0000
  C   C3        1.0  0.96905  0.33304  0.06648  1.0000
  C   C4        1.0  0.03094  0.66697  0.56646  1.0000
  C   C5        1.0  0.81119  0.34620  0.97170  1.0000
  C   C6        1.0  0.18880  0.65381  0.47168  1.0000
  C   C7        1.0  0.18882  0.65384  0.02831  1.0000
  C   C8        1.0  0.81120  0.34617  0.52831  1.0000
  I   I1        1.0  0.25717  0.23867  0.75001  1.0000
  I   I2        1.0  0.74283  0.76132  0.25001  1.0000
  I   I3        1.0  0.61265  0.87157  0.75000  1.0000
  I   I4        1.0  0.38735  0.12842  0.25000  1.0000
  N   N1        1.0  0.84360  0.51308  0.90544  1.0000
  N   N2        1.0  0.15641  0.48692  0.40544  1.0000
  N   N3        1.0  0.15640  0.48696  0.09457  1.0000
  N   N4        1.0  0.84360  0.51305  0.59456  1.0000
