data_image0
_chemical_formula_structural       Ag4H24C28S4N4O8
_chemical_formula_sum              "Ag4 H24 C28 S4 N4 O8"
_cell_length_a       8.166
_cell_length_b       9.66626
_cell_length_c       10.2498
_cell_angle_alpha    90
_cell_angle_beta     90.0004
_cell_angle_gamma    105.555

_space_group_name_H-M_alt    "P 1"
_space_group_IT_number       1

loop_
  _space_group_symop_operation_xyz
  'x, y, z'

loop_
  _atom_site_type_symbol
  _atom_site_label
  _atom_site_symmetry_multiplicity
  _atom_site_fract_x
  _atom_site_fract_y
  _atom_site_fract_z
  _atom_site_occupancy
  Ag  Ag1       1.0  0.39378  0.79571  0.61065  1.0000
  Ag  Ag2       1.0  0.39378  0.29570  0.88935  1.0000
  Ag  Ag3       1.0  0.60622  0.20429  0.38935  1.0000
  Ag  Ag4       1.0  0.60621  0.70430  0.11065  1.0000
  H   H1        1.0  0.19836  0.94076  0.81329  1.0000
  H   H2        1.0  0.19836  0.44075  0.68671  1.0000
  H   H3        1.0  0.80164  0.05925  0.18671  1.0000
  H   H4        1.0  0.80163  0.55924  0.31329  1.0000
  H   H5        1.0  0.93964  0.02429  0.82956  1.0000
  H   H6        1.0  0.93965  0.52429  0.67044  1.0000
  H   H7        1.0  0.06035  0.97571  0.17044  1.0000
  H   H8        1.0  0.06035  0.47571  0.32956  1.0000
  H   H9        1.0  0.77075  0.80584  0.46385  1.0000
  H   H10       1.0  0.77075  0.30583  0.03615  1.0000
  H   H11       1.0  0.22926  0.19416  0.53615  1.0000
  H   H12       1.0  0.22924  0.69416  0.96385  1.0000
  H   H13       1.0  0.04229  0.73225  0.46233  1.0000
  H   H14       1.0  0.04229  0.23224  0.03766  1.0000
  H   H15       1.0  0.95772  0.26775  0.53767  1.0000
  H   H16       1.0  0.95770  0.76775  0.96234  1.0000
  H   H17       1.0  0.73546  0.11832  0.83975  1.0000
  H   H18       1.0  0.73546  0.61832  0.66025  1.0000
  H   H19       1.0  0.26454  0.88168  0.16025  1.0000
  H   H20       1.0  0.26453  0.38168  0.33975  1.0000
  H   H21       1.0  0.51606  0.07939  0.80342  1.0000
  H   H22       1.0  0.51606  0.57938  0.69657  1.0000
  H   H23       1.0  0.48395  0.92062  0.19658  1.0000
  H   H24       1.0  0.48394  0.42062  0.30343  1.0000
  C   C1        1.0  0.10169  0.91296  0.73695  1.0000
  C   C2        1.0  0.10168  0.41296  0.76305  1.0000
  C   C3        1.0  0.89832  0.08704  0.26306  1.0000
  C   C4        1.0  0.89831  0.58704  0.23694  1.0000
  C   C5        1.0  0.95530  0.95997  0.74578  1.0000
  C   C6        1.0  0.95530  0.45996  0.75422  1.0000
  C   C7        1.0  0.04470  0.04003  0.25422  1.0000
  C   C8        1.0  0.04469  0.54004  0.24578  1.0000
  C   C9        1.0  0.83451  0.92488  0.64539  1.0000
  C   C10       1.0  0.83451  0.42487  0.85461  1.0000
  C   C11       1.0  0.16550  0.07512  0.35462  1.0000
  C   C12       1.0  0.16548  0.57513  0.14539  1.0000
  C   C13       1.0  0.86456  0.83993  0.54159  1.0000
  C   C14       1.0  0.86457  0.33993  0.95840  1.0000
  C   C15       1.0  0.13544  0.16006  0.45841  1.0000
  C   C16       1.0  0.13543  0.66007  0.04159  1.0000
  C   C17       1.0  0.01434  0.79788  0.54153  1.0000
  C   C18       1.0  0.01434  0.29788  0.95847  1.0000
  C   C19       1.0  0.98567  0.20212  0.45848  1.0000
  C   C20       1.0  0.98565  0.70212  0.04152  1.0000
  C   C21       1.0  0.62600  0.03408  0.80545  1.0000
  C   C22       1.0  0.62600  0.53408  0.69454  1.0000
  C   C23       1.0  0.37401  0.96592  0.19455  1.0000
  C   C24       1.0  0.37400  0.46592  0.30546  1.0000
  C   C25       1.0  0.58782  0.90235  0.89529  1.0000
  C   C26       1.0  0.58782  0.40234  0.60471  1.0000
  C   C27       1.0  0.41218  0.09765  0.10471  1.0000
  C   C28       1.0  0.41218  0.59766  0.39528  1.0000
  S   S1        1.0  0.65402  0.99116  0.63751  1.0000
  S   S2        1.0  0.65402  0.49116  0.86249  1.0000
  S   S3        1.0  0.34598  0.00884  0.36249  1.0000
  S   S4        1.0  0.34597  0.50884  0.13751  1.0000
  N   N1        1.0  0.13274  0.83380  0.63646  1.0000
  N   N2        1.0  0.13274  0.33379  0.86354  1.0000
  N   N3        1.0  0.86726  0.16620  0.36354  1.0000
  N   N4        1.0  0.86725  0.66620  0.13646  1.0000
  O   O1        1.0  0.48106  0.78846  0.85961  1.0000
  O   O2        1.0  0.48109  0.28847  0.64037  1.0000
  O   O3        1.0  0.51894  0.21154  0.14039  1.0000
  O   O4        1.0  0.51892  0.71154  0.35962  1.0000
  O   O5        1.0  0.67105  0.92120  0.00240  1.0000
  O   O6        1.0  0.67106  0.42121  0.49759  1.0000
  O   O7        1.0  0.32895  0.07880  0.99760  1.0000
  O   O8        1.0  0.32895  0.57880  0.50241  1.0000
