data_image0
_chemical_formula_structural       V2Cu2As2H16C20N4O12
_chemical_formula_sum              "V2 Cu2 As2 H16 C20 N4 O12"
_cell_length_a       5.61463
_cell_length_b       10.2564
_cell_length_c       11.7094
_cell_angle_alpha    72.6993
_cell_angle_beta     80.7832
_cell_angle_gamma    88.62

_space_group_name_H-M_alt    "P 1"
_space_group_IT_number       1

loop_
  _space_group_symop_operation_xyz
  'x, y, z'

loop_
  _atom_site_type_symbol
  _atom_site_label
  _atom_site_symmetry_multiplicity
  _atom_site_fract_x
  _atom_site_fract_y
  _atom_site_fract_z
  _atom_site_occupancy
  V   V1        1.0  0.11741  0.78870  0.25792  1.0000
  V   V2        1.0  0.88264  0.21130  0.74204  1.0000
  Cu  Cu1       1.0  0.68387  0.87844  0.82760  1.0000
  Cu  Cu2       1.0  0.31600  0.12152  0.17244  1.0000
  As  As1       1.0  0.65366  0.88866  0.11351  1.0000
  As  As2       1.0  0.34640  0.11126  0.88641  1.0000
  H   H1        1.0  0.33697  0.94187  0.64782  1.0000
  H   H2        1.0  0.66302  0.05815  0.35222  1.0000
  H   H3        1.0  0.27175  0.84980  0.47658  1.0000
  H   H4        1.0  0.72825  0.15024  0.52343  1.0000
  H   H5        1.0  0.52560  0.65754  0.44149  1.0000
  H   H6        1.0  0.47440  0.34247  0.55854  1.0000
  H   H7        1.0  0.83482  0.56359  0.57416  1.0000
  H   H8        1.0  0.16524  0.43644  0.42586  1.0000
  H   H9        1.0  0.09037  0.49924  0.69566  1.0000
  H   H10       1.0  0.90962  0.50078  0.30433  1.0000
  H   H11       1.0  0.38210  0.44549  0.84112  1.0000
  H   H12       1.0  0.61785  0.55450  0.15892  1.0000
  H   H13       1.0  0.37926  0.58786  0.98650  1.0000
  H   H14       1.0  0.62074  0.41216  0.01352  1.0000
  H   H15       1.0  0.07954  0.77249  0.97839  1.0000
  H   H16       1.0  0.92046  0.22754  0.02162  1.0000
  C   C1        1.0  0.44450  0.86003  0.62596  1.0000
  C   C2        1.0  0.55547  0.13998  0.37408  1.0000
  C   C3        1.0  0.40881  0.80739  0.53278  1.0000
  C   C4        1.0  0.59117  0.19263  0.46725  1.0000
  C   C5        1.0  0.55171  0.70064  0.51325  1.0000
  C   C6        1.0  0.44830  0.29938  0.48677  1.0000
  C   C7        1.0  0.72494  0.64858  0.58680  1.0000
  C   C8        1.0  0.27505  0.35144  0.41320  1.0000
  C   C9        1.0  0.75281  0.70624  0.67795  1.0000
  C   C10       1.0  0.24716  0.29377  0.32209  1.0000
  C   C11       1.0  0.93005  0.66248  0.76096  1.0000
  C   C12       1.0  0.06990  0.33752  0.23907  1.0000
  C   C13       1.0  0.09263  0.55741  0.75963  1.0000
  C   C14       1.0  0.90738  0.44258  0.24040  1.0000
  C   C15       1.0  0.25583  0.52797  0.84153  1.0000
  C   C16       1.0  0.74417  0.47204  0.15849  1.0000
  C   C17       1.0  0.25432  0.60510  0.92164  1.0000
  C   C18       1.0  0.74565  0.39493  0.07838  1.0000
  C   C19       1.0  0.08764  0.70832  0.91891  1.0000
  C   C20       1.0  0.91232  0.29170  0.08111  1.0000
  N   N1        1.0  0.61299  0.81070  0.69558  1.0000
  N   N2        1.0  0.38698  0.18928  0.30447  1.0000
  N   N3        1.0  0.92904  0.73479  0.84127  1.0000
  N   N4        1.0  0.07092  0.26522  0.15874  1.0000
  O   O1        1.0  0.76789  0.93126  0.96347  1.0000
  O   O2        1.0  0.23208  0.06860  0.03646  1.0000
  O   O3        1.0  0.84823  0.77160  0.19186  1.0000
  O   O4        1.0  0.15190  0.22836  0.80806  1.0000
  O   O5        1.0  0.39483  0.78305  0.14843  1.0000
  O   O6        1.0  0.60525  0.21684  0.85157  1.0000
  O   O7        1.0  0.61808  0.02584  0.16730  1.0000
  O   O8        1.0  0.38199  0.97413  0.83258  1.0000
  O   O9        1.0  0.88305  0.07234  0.69886  1.0000
  O   O10       1.0  0.11689  0.92773  0.30102  1.0000
  O   O11       1.0  0.11677  0.65539  0.37659  1.0000
  O   O12       1.0  0.88329  0.34470  0.62342  1.0000
