data_image0
_chemical_formula_structural       Co2H28C28S4N4O10
_chemical_formula_sum              "Co2 H28 C28 S4 N4 O10"
_cell_length_a       5.6215
_cell_length_b       8.7388
_cell_length_c       17.2408
_cell_angle_alpha    104.397
_cell_angle_beta     88.7975
_cell_angle_gamma    107.264

_space_group_name_H-M_alt    "P 1"
_space_group_IT_number       1

loop_
  _space_group_symop_operation_xyz
  'x, y, z'

loop_
  _atom_site_type_symbol
  _atom_site_label
  _atom_site_symmetry_multiplicity
  _atom_site_fract_x
  _atom_site_fract_y
  _atom_site_fract_z
  _atom_site_occupancy
  Co  Co1       1.0  0.02859  0.00600  0.75162  1.0000
  Co  Co2       1.0  0.97142  0.99400  0.24838  1.0000
  H   H1        1.0  0.88084  0.29447  0.74994  1.0000
  H   H2        1.0  0.43256  0.26997  0.24300  1.0000
  H   H3        1.0  0.11918  0.70553  0.25006  1.0000
  H   H4        1.0  0.56743  0.73005  0.75700  1.0000
  H   H5        1.0  0.96934  0.57706  0.83530  1.0000
  H   H6        1.0  0.61994  0.55208  0.32707  1.0000
  H   H7        1.0  0.03064  0.42295  0.16470  1.0000
  H   H8        1.0  0.38006  0.44793  0.67293  1.0000
  H   H9        1.0  0.60236  0.49978  0.94215  1.0000
  H   H10       1.0  0.91705  0.50400  0.44221  1.0000
  H   H11       1.0  0.39761  0.50022  0.05785  1.0000
  H   H12       1.0  0.08294  0.49600  0.55779  1.0000
  H   H13       1.0  0.47875  0.21720  0.85424  1.0000
  H   H14       1.0  0.76444  0.22069  0.35664  1.0000
  H   H15       1.0  0.52125  0.78278  0.14576  1.0000
  H   H16       1.0  0.23554  0.77930  0.64336  1.0000
  H   H17       1.0  0.93213  0.76424  0.95635  1.0000
  H   H18       1.0  0.82987  0.75063  0.44643  1.0000
  H   H19       1.0  0.06784  0.23575  0.04364  1.0000
  H   H20       1.0  0.17017  0.24938  0.55357  1.0000
  H   H21       1.0  0.15410  0.95138  0.00614  1.0000
  H   H22       1.0  0.77900  0.92810  0.51278  1.0000
  H   H23       1.0  0.84590  0.04862  0.99387  1.0000
  H   H24       1.0  0.22102  0.07190  0.48721  1.0000
  H   H25       1.0  0.54535  0.97435  0.78707  1.0000
  H   H26       1.0  0.41354  0.97152  0.29524  1.0000
  H   H27       1.0  0.45466  0.02565  0.21293  1.0000
  H   H28       1.0  0.58646  0.02848  0.70475  1.0000
  C   C1        1.0  0.03500  0.34354  0.79488  1.0000
  C   C2        1.0  0.32606  0.32420  0.28950  1.0000
  C   C3        1.0  0.96497  0.65645  0.20512  1.0000
  C   C4        1.0  0.67396  0.67581  0.71050  1.0000
  C   C5        1.0  0.08647  0.50273  0.84375  1.0000
  C   C6        1.0  0.43042  0.48424  0.33722  1.0000
  C   C7        1.0  0.91352  0.49726  0.15625  1.0000
  C   C8        1.0  0.56959  0.51577  0.66278  1.0000
  C   C9        1.0  0.28318  0.56148  0.90285  1.0000
  C   C10       1.0  0.29306  0.55117  0.39839  1.0000
  C   C11       1.0  0.71681  0.43851  0.09716  1.0000
  C   C12       1.0  0.70695  0.44883  0.60161  1.0000
  C   C13       1.0  0.43499  0.45886  0.90256  1.0000
  C   C14       1.0  0.04234  0.45660  0.40060  1.0000
  C   C15       1.0  0.56499  0.54115  0.09744  1.0000
  C   C16       1.0  0.95765  0.54339  0.59939  1.0000
  C   C17       1.0  0.36720  0.29955  0.85332  1.0000
  C   C18       1.0  0.95333  0.29777  0.35211  1.0000
  C   C19       1.0  0.63278  0.70045  0.14668  1.0000
  C   C20       1.0  0.04667  0.70222  0.64788  1.0000
  C   C21       1.0  0.12506  0.84215  0.95498  1.0000
  C   C22       1.0  0.71235  0.83319  0.45586  1.0000
  C   C23       1.0  0.87496  0.15785  0.04501  1.0000
  C   C24       1.0  0.28766  0.16680  0.54414  1.0000
  C   C25       1.0  0.16444  0.89452  0.87601  1.0000
  C   C26       1.0  0.72836  0.91910  0.38767  1.0000
  C   C27       1.0  0.83557  0.10548  0.12398  1.0000
  C   C28       1.0  0.27167  0.08090  0.61233  1.0000
  S   S1        1.0  0.34628  0.74546  0.97781  1.0000
  S   S2        1.0  0.39725  0.73074  0.47570  1.0000
  S   S3        1.0  0.65370  0.25454  0.02219  1.0000
  S   S4        1.0  0.60277  0.26926  0.52430  1.0000
  N   N1        1.0  0.16267  0.23814  0.80228  1.0000
  N   N2        1.0  0.09535  0.22703  0.29915  1.0000
  N   N3        1.0  0.83731  0.76186  0.19771  1.0000
  N   N4        1.0  0.90464  0.77297  0.70085  1.0000
  O   O1        1.0  0.00210  0.95808  0.85702  1.0000
  O   O2        1.0  0.93134  0.93332  0.35048  1.0000
  O   O3        1.0  0.99792  0.04194  0.14298  1.0000
  O   O4        1.0  0.06868  0.06667  0.64952  1.0000
  O   O5        1.0  0.34426  0.87075  0.83585  1.0000
  O   O6        1.0  0.55001  0.96993  0.37499  1.0000
  O   O7        1.0  0.65574  0.12925  0.16415  1.0000
  O   O8        1.0  0.45001  0.03008  0.62501  1.0000
  O   O9        1.0  0.67258  0.03920  0.75696  1.0000
  O   O10       1.0  0.32744  0.96079  0.24304  1.0000
