data_image0
_chemical_formula_structural       Sm2H32C36N6O16
_chemical_formula_sum              "Sm2 H32 C36 N6 O16"
_cell_length_a       9.45552
_cell_length_b       10.5148
_cell_length_c       10.5149
_cell_angle_alpha    83.4702
_cell_angle_beta     84.6237
_cell_angle_gamma    84.6236

_space_group_name_H-M_alt    "P 1"
_space_group_IT_number       1

loop_
  _space_group_symop_operation_xyz
  'x, y, z'

loop_
  _atom_site_type_symbol
  _atom_site_label
  _atom_site_symmetry_multiplicity
  _atom_site_fract_x
  _atom_site_fract_y
  _atom_site_fract_z
  _atom_site_occupancy
  Sm  Sm1       1.0  0.25000  0.97586  0.02415  1.0000
  Sm  Sm2       1.0  0.75000  0.02414  0.97586  1.0000
  H   H1        1.0  0.02363  0.79361  0.11326  1.0000
  H   H2        1.0  0.47637  0.88674  0.20639  1.0000
  H   H3        1.0  0.97637  0.20639  0.88674  1.0000
  H   H4        1.0  0.52363  0.11326  0.79362  1.0000
  H   H5        1.0  0.17505  0.71595  0.15251  1.0000
  H   H6        1.0  0.32495  0.84749  0.28405  1.0000
  H   H7        1.0  0.82495  0.28405  0.84750  1.0000
  H   H8        1.0  0.67505  0.15251  0.71595  1.0000
  H   H9        1.0  0.95713  0.19786  0.63348  1.0000
  H   H10       1.0  0.54287  0.36652  0.80215  1.0000
  H   H11       1.0  0.04287  0.80214  0.36652  1.0000
  H   H12       1.0  0.45712  0.63348  0.19786  1.0000
  H   H13       1.0  0.09623  0.15923  0.42167  1.0000
  H   H14       1.0  0.40377  0.57834  0.84077  1.0000
  H   H15       1.0  0.90377  0.84078  0.57834  1.0000
  H   H16       1.0  0.59623  0.42166  0.15923  1.0000
  H   H17       1.0  0.69962  0.09638  0.27788  1.0000
  H   H18       1.0  0.80039  0.72212  0.90363  1.0000
  H   H19       1.0  0.30039  0.90362  0.72212  1.0000
  H   H20       1.0  0.19961  0.27788  0.09637  1.0000
  H   H21       1.0  0.57903  0.13318  0.49479  1.0000
  H   H22       1.0  0.92097  0.50520  0.86683  1.0000
  H   H23       1.0  0.42098  0.86682  0.50520  1.0000
  H   H24       1.0  0.07903  0.49479  0.13318  1.0000
  H   H25       1.0  0.35501  0.36021  0.39234  1.0000
  H   H26       1.0  0.14498  0.60766  0.63979  1.0000
  H   H27       1.0  0.64498  0.63979  0.60766  1.0000
  H   H28       1.0  0.85502  0.39234  0.36021  1.0000
  H   H29       1.0  0.35809  0.17526  0.56690  1.0000
  H   H30       1.0  0.14191  0.43310  0.82474  1.0000
  H   H31       1.0  0.64191  0.82474  0.43309  1.0000
  H   H32       1.0  0.85809  0.56691  0.17526  1.0000
  C   C1        1.0  0.90500  0.17553  0.55145  1.0000
  C   C2        1.0  0.59500  0.44855  0.82448  1.0000
  C   C3        1.0  0.09501  0.82448  0.44855  1.0000
  C   C4        1.0  0.40499  0.55145  0.17553  1.0000
  C   C5        1.0  0.98111  0.15456  0.43448  1.0000
  C   C6        1.0  0.51889  0.56553  0.84545  1.0000
  C   C7        1.0  0.01889  0.84545  0.56552  1.0000
  C   C8        1.0  0.48111  0.43448  0.15456  1.0000
  C   C9        1.0  0.90801  0.12325  0.33406  1.0000
  C   C10       1.0  0.59198  0.66594  0.87676  1.0000
  C   C11       1.0  0.09199  0.87676  0.66594  1.0000
  C   C12       1.0  0.40800  0.33406  0.12325  1.0000
  C   C13       1.0  0.98647  0.08795  0.20974  1.0000
  C   C14       1.0  0.51354  0.79027  0.91204  1.0000
  C   C15       1.0  0.01353  0.91204  0.79026  1.0000
  C   C16       1.0  0.48648  0.20974  0.08795  1.0000
  C   C17       1.0  0.76017  0.11867  0.35414  1.0000
  C   C18       1.0  0.73983  0.64586  0.88133  1.0000
  C   C19       1.0  0.23984  0.88133  0.64586  1.0000
  C   C20       1.0  0.26017  0.35414  0.11867  1.0000
  C   C21       1.0  0.69372  0.13949  0.47450  1.0000
  C   C22       1.0  0.80628  0.52549  0.86052  1.0000
  C   C23       1.0  0.30629  0.86051  0.52549  1.0000
  C   C24       1.0  0.19372  0.47450  0.13949  1.0000
  C   C25       1.0  0.30814  0.37331  0.48942  1.0000
  C   C26       1.0  0.19186  0.51058  0.62669  1.0000
  C   C27       1.0  0.69186  0.62670  0.51058  1.0000
  C   C28       1.0  0.80814  0.48943  0.37330  1.0000
  C   C29       1.0  0.31103  0.27059  0.58580  1.0000
  C   C30       1.0  0.18897  0.41419  0.72941  1.0000
  C   C31       1.0  0.68896  0.72942  0.41419  1.0000
  C   C32       1.0  0.81103  0.58581  0.27059  1.0000
  C   C33       1.0  0.24999  0.29119  0.70881  1.0000
  C   C34       1.0  0.75000  0.70881  0.29119  1.0000
  C   C35       1.0  0.24999  0.18449  0.81550  1.0000
  C   C36       1.0  0.75000  0.81551  0.18449  1.0000
  N   N1        1.0  0.76393  0.16582  0.57219  1.0000
  N   N2        1.0  0.73607  0.42781  0.83419  1.0000
  N   N3        1.0  0.23608  0.83418  0.42781  1.0000
  N   N4        1.0  0.26392  0.57219  0.16582  1.0000
  N   N5        1.0  0.24999  0.49181  0.50819  1.0000
  N   N6        1.0  0.75000  0.50819  0.49181  1.0000
  O   O1        1.0  0.12177  0.07987  0.20213  1.0000
  O   O2        1.0  0.37824  0.79788  0.92013  1.0000
  O   O3        1.0  0.87825  0.92012  0.79788  1.0000
  O   O4        1.0  0.62176  0.20212  0.07987  1.0000
  O   O5        1.0  0.91434  0.06457  0.12036  1.0000
  O   O6        1.0  0.58567  0.87965  0.93541  1.0000
  O   O7        1.0  0.08568  0.93541  0.87965  1.0000
  O   O8        1.0  0.41433  0.12035  0.06457  1.0000
  O   O9        1.0  0.34255  0.08845  0.80855  1.0000
  O   O10       1.0  0.15744  0.19145  0.91155  1.0000
  O   O11       1.0  0.65745  0.91155  0.19145  1.0000
  O   O12       1.0  0.84255  0.80855  0.08845  1.0000
  O   O13       1.0  0.12049  0.80416  0.13659  1.0000
  O   O14       1.0  0.37951  0.86341  0.19584  1.0000
  O   O15       1.0  0.87950  0.19583  0.86342  1.0000
  O   O16       1.0  0.62050  0.13659  0.80416  1.0000
