data_image0
_chemical_formula_structural       Na2Zn2H30C30N2O16
_chemical_formula_sum              "Na2 Zn2 H30 C30 N2 O16"
_cell_length_a       8.77957
_cell_length_b       9.95431
_cell_length_c       10.7563
_cell_angle_alpha    107.631
_cell_angle_beta     103.553
_cell_angle_gamma    100.294

_space_group_name_H-M_alt    "P 1"
_space_group_IT_number       1

loop_
  _space_group_symop_operation_xyz
  'x, y, z'

loop_
  _atom_site_type_symbol
  _atom_site_label
  _atom_site_symmetry_multiplicity
  _atom_site_fract_x
  _atom_site_fract_y
  _atom_site_fract_z
  _atom_site_occupancy
  Na  Na1       1.0  0.42344  0.63367  0.55766  1.0000
  Na  Na2       1.0  0.57656  0.36632  0.44235  1.0000
  Zn  Zn1       1.0  0.07119  0.43594  0.30216  1.0000
  Zn  Zn2       1.0  0.92881  0.56406  0.69784  1.0000
  H   H1        1.0  0.23942  0.31372  0.43747  1.0000
  H   H2        1.0  0.76058  0.68628  0.56253  1.0000
  H   H3        1.0  0.13805  0.39782  0.53415  1.0000
  H   H4        1.0  0.86195  0.60218  0.46584  1.0000
  H   H5        1.0  0.66864  0.52244  0.22953  1.0000
  H   H6        1.0  0.33137  0.47757  0.77048  1.0000
  H   H7        1.0  0.20186  0.46650  0.95225  1.0000
  H   H8        1.0  0.79816  0.53351  0.04776  1.0000
  H   H9        1.0  0.78225  0.97410  0.03503  1.0000
  H   H10       1.0  0.21775  0.02590  0.96497  1.0000
  H   H11       1.0  0.45270  0.22777  0.14119  1.0000
  H   H12       1.0  0.54730  0.77223  0.85881  1.0000
  H   H13       1.0  0.81015  0.77159  0.31803  1.0000
  H   H14       1.0  0.18985  0.22840  0.68196  1.0000
  H   H15       1.0  0.27707  0.99764  0.62040  1.0000
  H   H16       1.0  0.72292  0.00236  0.37959  1.0000
  H   H17       1.0  0.91993  0.92974  0.74574  1.0000
  H   H18       1.0  0.08007  0.07026  0.25426  1.0000
  H   H19       1.0  0.01049  0.15833  0.87272  1.0000
  H   H20       1.0  0.98951  0.84167  0.12728  1.0000
  H   H21       1.0  0.87363  0.21951  0.96135  1.0000
  H   H22       1.0  0.12636  0.78049  0.03864  1.0000
  H   H23       1.0  0.89909  0.27802  0.82426  1.0000
  H   H24       1.0  0.10090  0.72198  0.17574  1.0000
  H   H25       1.0  0.51728  0.97726  0.65153  1.0000
  H   H26       1.0  0.48272  0.02274  0.34847  1.0000
  H   H27       1.0  0.60477  0.16413  0.67705  1.0000
  H   H28       1.0  0.39523  0.83587  0.32295  1.0000
  H   H29       1.0  0.56283  0.11758  0.81688  1.0000
  H   H30       1.0  0.43717  0.88241  0.18312  1.0000
  C   C1        1.0  0.35027  0.48606  0.21208  1.0000
  C   C2        1.0  0.64974  0.51394  0.78793  1.0000
  C   C3        1.0  0.42743  0.49529  0.10267  1.0000
  C   C4        1.0  0.57258  0.50472  0.89734  1.0000
  C   C5        1.0  0.59570  0.51445  0.12936  1.0000
  C   C6        1.0  0.40431  0.48556  0.87065  1.0000
  C   C7        1.0  0.33243  0.48101  0.97232  1.0000
  C   C8        1.0  0.66759  0.51900  0.02769  1.0000
  C   C9        1.0  0.76835  0.23649  0.20474  1.0000
  C   C10       1.0  0.23165  0.76351  0.79526  1.0000
  C   C11       1.0  0.63102  0.11271  0.09923  1.0000
  C   C12       1.0  0.36898  0.88729  0.90077  1.0000
  C   C13       1.0  0.65830  0.98449  0.01952  1.0000
  C   C14       1.0  0.34170  0.01550  0.98048  1.0000
  C   C15       1.0  0.47200  0.12735  0.07897  1.0000
  C   C16       1.0  0.52799  0.87265  0.92103  1.0000
  C   C17       1.0  0.10765  0.73652  0.42859  1.0000
  C   C18       1.0  0.89235  0.26348  0.57141  1.0000
  C   C19       1.0  0.04936  0.87114  0.46653  1.0000
  C   C20       1.0  0.95064  0.12886  0.53346  1.0000
  C   C21       1.0  0.89263  0.87163  0.39793  1.0000
  C   C22       1.0  0.10737  0.12837  0.60207  1.0000
  C   C23       1.0  0.15588  0.99999  0.56865  1.0000
  C   C24       1.0  0.84412  0.00001  0.43134  1.0000
  C   C25       1.0  0.79137  0.93031  0.71038  1.0000
  C   C26       1.0  0.20863  0.06969  0.28962  1.0000
  C   C27       1.0  0.89388  0.18610  0.86079  1.0000
  C   C28       1.0  0.10612  0.81390  0.13921  1.0000
  C   C29       1.0  0.60153  0.08107  0.72497  1.0000
  C   C30       1.0  0.39847  0.91893  0.27503  1.0000
  N   N1        1.0  0.76332  0.05957  0.76277  1.0000
  N   N2        1.0  0.23668  0.94042  0.23723  1.0000
  O   O1        1.0  0.19379  0.46181  0.17561  1.0000
  O   O2        1.0  0.80622  0.53819  0.82439  1.0000
  O   O3        1.0  0.43767  0.49954  0.32857  1.0000
  O   O4        1.0  0.56234  0.50046  0.67143  1.0000
  O   O5        1.0  0.74219  0.32451  0.30296  1.0000
  O   O6        1.0  0.25782  0.67549  0.69704  1.0000
  O   O7        1.0  0.90960  0.24619  0.18465  1.0000
  O   O8        1.0  0.09040  0.75381  0.81535  1.0000
  O   O9        1.0  0.25577  0.74727  0.44951  1.0000
  O   O10       1.0  0.74423  0.25273  0.55049  1.0000
  O   O11       1.0  0.99372  0.61224  0.37156  1.0000
  O   O12       1.0  0.00629  0.38776  0.62843  1.0000
  O   O13       1.0  0.68468  0.81532  0.62732  1.0000
  O   O14       1.0  0.31532  0.18468  0.37268  1.0000
  O   O15       1.0  0.19862  0.40378  0.46725  1.0000
  O   O16       1.0  0.80138  0.59622  0.53274  1.0000
