data_image0
_chemical_formula_structural       Cd2H30C36N6O10
_chemical_formula_sum              "Cd2 H30 C36 N6 O10"
_cell_length_a       9.69977
_cell_length_b       9.69977
_cell_length_c       11.1562
_cell_angle_alpha    104.792
_cell_angle_beta     104.792
_cell_angle_gamma    98.5162

_space_group_name_H-M_alt    "P 1"
_space_group_IT_number       1

loop_
  _space_group_symop_operation_xyz
  'x, y, z'

loop_
  _atom_site_type_symbol
  _atom_site_label
  _atom_site_symmetry_multiplicity
  _atom_site_fract_x
  _atom_site_fract_y
  _atom_site_fract_z
  _atom_site_occupancy
  Cd  Cd1       1.0  0.28240  0.28240  0.68037  1.0000
  Cd  Cd2       1.0  0.71760  0.71760  0.31963  1.0000
  H   H1        1.0  0.05057  0.05057  0.44921  1.0000
  H   H2        1.0  0.94943  0.94943  0.55079  1.0000
  H   H3        1.0  0.95165  0.95165  0.21105  1.0000
  H   H4        1.0  0.04835  0.04835  0.78895  1.0000
  H   H5        1.0  0.28514  0.28514  0.18792  1.0000
  H   H6        1.0  0.71486  0.71486  0.81208  1.0000
  H   H7        1.0  0.37159  0.37159  0.43106  1.0000
  H   H8        1.0  0.62841  0.62841  0.56894  1.0000
  H   H9        1.0  0.11712  0.11712  0.98684  1.0000
  H   H10       1.0  0.88288  0.88288  0.01316  1.0000
  H   H11       1.0  0.12876  0.75331  0.55149  1.0000
  H   H12       1.0  0.75331  0.12876  0.55149  1.0000
  H   H13       1.0  0.87124  0.24668  0.44851  1.0000
  H   H14       1.0  0.24669  0.87124  0.44851  1.0000
  H   H15       1.0  0.13090  0.49000  0.52706  1.0000
  H   H16       1.0  0.49000  0.13090  0.52706  1.0000
  H   H17       1.0  0.86910  0.51000  0.47294  1.0000
  H   H18       1.0  0.51000  0.86910  0.47294  1.0000
  H   H19       1.0  0.44727  0.59567  0.88590  1.0000
  H   H20       1.0  0.59567  0.44727  0.88590  1.0000
  H   H21       1.0  0.55273  0.40433  0.11410  1.0000
  H   H22       1.0  0.40433  0.55273  0.11410  1.0000
  H   H23       1.0  0.45999  0.86345  0.92538  1.0000
  H   H24       1.0  0.86345  0.45999  0.92538  1.0000
  H   H25       1.0  0.54001  0.13655  0.07462  1.0000
  H   H26       1.0  0.13655  0.54001  0.07462  1.0000
  H   H27       1.0  0.35527  0.24582  0.90906  1.0000
  H   H28       1.0  0.24582  0.35527  0.90906  1.0000
  H   H29       1.0  0.64473  0.75418  0.09094  1.0000
  H   H30       1.0  0.75418  0.64473  0.09094  1.0000
  C   C1        1.0  0.09991  0.09991  0.38842  1.0000
  C   C2        1.0  0.90009  0.90009  0.61158  1.0000
  C   C3        1.0  0.04484  0.04485  0.25422  1.0000
  C   C4        1.0  0.95515  0.95516  0.74578  1.0000
  C   C5        1.0  0.10974  0.10974  0.17692  1.0000
  C   C6        1.0  0.89026  0.89026  0.82308  1.0000
  C   C7        1.0  0.23013  0.23013  0.24258  1.0000
  C   C8        1.0  0.76987  0.76987  0.75742  1.0000
  C   C9        1.0  0.27855  0.27855  0.37789  1.0000
  C   C10       1.0  0.72145  0.72145  0.62211  1.0000
  C   C11       1.0  0.05723  0.05723  0.03546  1.0000
  C   C12       1.0  0.94277  0.94277  0.96454  1.0000
  C   C13       1.0  0.30346  0.99143  0.76205  1.0000
  C   C14       1.0  0.99143  0.30346  0.76205  1.0000
  C   C15       1.0  0.69654  0.00857  0.23795  1.0000
  C   C16       1.0  0.00857  0.69654  0.23795  1.0000
  C   C17       1.0  0.29684  0.82981  0.74032  1.0000
  C   C18       1.0  0.82981  0.29684  0.74032  1.0000
  C   C19       1.0  0.70316  0.17019  0.25968  1.0000
  C   C20       1.0  0.17019  0.70316  0.25968  1.0000
  C   C21       1.0  0.20199  0.72324  0.62752  1.0000
  C   C22       1.0  0.72324  0.20199  0.62752  1.0000
  C   C23       1.0  0.79801  0.27676  0.37248  1.0000
  C   C24       1.0  0.27676  0.79801  0.37248  1.0000
  C   C25       1.0  0.20279  0.57669  0.61347  1.0000
  C   C26       1.0  0.57669  0.20279  0.61347  1.0000
  C   C27       1.0  0.79721  0.42331  0.38653  1.0000
  C   C28       1.0  0.42331  0.79722  0.38653  1.0000
  C   C29       1.0  0.38037  0.63536  0.81327  1.0000
  C   C30       1.0  0.63536  0.38037  0.81327  1.0000
  C   C31       1.0  0.61963  0.36464  0.18673  1.0000
  C   C32       1.0  0.36464  0.61963  0.18673  1.0000
  C   C33       1.0  0.38639  0.78419  0.83530  1.0000
  C   C34       1.0  0.78419  0.38639  0.83530  1.0000
  C   C35       1.0  0.61361  0.21581  0.16470  1.0000
  C   C36       1.0  0.21581  0.61361  0.16470  1.0000
  N   N1        1.0  0.21508  0.21508  0.45062  1.0000
  N   N2        1.0  0.78492  0.78492  0.54938  1.0000
  N   N3        1.0  0.29104  0.53303  0.70373  1.0000
  N   N4        1.0  0.53303  0.29104  0.70373  1.0000
  N   N5        1.0  0.70896  0.46697  0.29627  1.0000
  N   N6        1.0  0.46697  0.70896  0.29627  1.0000
  O   O1        1.0  0.35005  0.35005  0.91246  1.0000
  O   O2        1.0  0.64995  0.64995  0.08754  1.0000
  O   O3        1.0  0.25687  0.03073  0.66089  1.0000
  O   O4        1.0  0.03073  0.25687  0.66089  1.0000
  O   O5        1.0  0.74313  0.96927  0.33911  1.0000
  O   O6        1.0  0.96927  0.74313  0.33911  1.0000
  O   O7        1.0  0.35361  0.07348  0.87898  1.0000
  O   O8        1.0  0.07348  0.35361  0.87898  1.0000
  O   O9        1.0  0.64639  0.92652  0.12102  1.0000
  O   O10       1.0  0.92652  0.64639  0.12102  1.0000
