data_image0
_chemical_formula_structural       Mn2H28C28S4N4O10
_chemical_formula_sum              "Mn2 H28 C28 S4 N4 O10"
_cell_length_a       6.42167
_cell_length_b       11.0838
_cell_length_c       11.8928
_cell_angle_alpha    85.8798
_cell_angle_beta     74.3291
_cell_angle_gamma    73.1334

_space_group_name_H-M_alt    "P 1"
_space_group_IT_number       1

loop_
  _space_group_symop_operation_xyz
  'x, y, z'

loop_
  _atom_site_type_symbol
  _atom_site_label
  _atom_site_symmetry_multiplicity
  _atom_site_fract_x
  _atom_site_fract_y
  _atom_site_fract_z
  _atom_site_occupancy
  Mn  Mn1       1.0  0.80551  0.25002  0.75003  1.0000
  Mn  Mn2       1.0  0.19449  0.74998  0.24996  1.0000
  H   H1        1.0  0.19931  0.27386  0.81422  1.0000
  H   H2        1.0  0.71277  0.77398  0.31424  1.0000
  H   H3        1.0  0.80068  0.72614  0.18578  1.0000
  H   H4        1.0  0.28723  0.22602  0.68577  1.0000
  H   H5        1.0  0.82478  0.00696  0.44716  1.0000
  H   H6        1.0  0.72209  0.50682  0.94703  1.0000
  H   H7        1.0  0.17522  0.99302  0.55285  1.0000
  H   H8        1.0  0.27793  0.49319  0.05298  1.0000
  H   H9        1.0  0.88752  0.13465  0.36226  1.0000
  H   H10       1.0  0.61604  0.63454  0.86224  1.0000
  H   H11       1.0  0.11248  0.86533  0.63775  1.0000
  H   H12       1.0  0.38399  0.36546  0.13775  1.0000
  H   H13       1.0  0.75514  0.32899  0.33981  1.0000
  H   H14       1.0  0.57561  0.82927  0.83980  1.0000
  H   H15       1.0  0.24486  0.67102  0.66021  1.0000
  H   H16       1.0  0.42440  0.17074  0.16020  1.0000
  H   H17       1.0  0.62129  0.55030  0.28304  1.0000
  H   H18       1.0  0.54465  0.05069  0.78333  1.0000
  H   H19       1.0  0.37869  0.44970  0.71698  1.0000
  H   H20       1.0  0.45536  0.94931  0.21667  1.0000
  H   H21       1.0  0.96247  0.53584  0.35152  1.0000
  H   H22       1.0  0.14983  0.03580  0.85154  1.0000
  H   H23       1.0  0.03753  0.46416  0.64847  1.0000
  H   H24       1.0  0.85016  0.96421  0.14847  1.0000
  H   H25       1.0  0.06683  0.31051  0.41497  1.0000
  H   H26       1.0  0.20772  0.81026  0.91460  1.0000
  H   H27       1.0  0.93317  0.68949  0.58502  1.0000
  H   H28       1.0  0.79228  0.18975  0.08540  1.0000
  C   C1        1.0  0.76325  0.17097  0.54860  1.0000
  C   C2        1.0  0.51776  0.67075  0.04864  1.0000
  C   C3        1.0  0.23677  0.82901  0.45140  1.0000
  C   C4        1.0  0.48224  0.32925  0.95135  1.0000
  C   C5        1.0  0.76486  0.11016  0.43749  1.0000
  C   C6        1.0  0.68810  0.61004  0.93742  1.0000
  C   C7        1.0  0.23512  0.88982  0.56252  1.0000
  C   C8        1.0  0.31192  0.38997  0.06258  1.0000
  C   C9        1.0  0.42166  0.29808  0.37934  1.0000
  C   C10       1.0  0.90081  0.79813  0.87906  1.0000
  C   C11       1.0  0.57833  0.70191  0.62066  1.0000
  C   C12       1.0  0.09921  0.20188  0.12094  1.0000
  C   C13       1.0  0.57690  0.36946  0.34520  1.0000
  C   C14       1.0  0.70820  0.86957  0.84504  1.0000
  C   C15       1.0  0.42309  0.63054  0.65480  1.0000
  C   C16       1.0  0.29182  0.13042  0.15495  1.0000
  C   C17       1.0  0.50291  0.49430  0.31324  1.0000
  C   C18       1.0  0.68914  0.99449  0.81322  1.0000
  C   C19       1.0  0.49709  0.50570  0.68676  1.0000
  C   C20       1.0  0.31086  0.00552  0.18678  1.0000
  C   C21       1.0  0.13654  0.48546  0.34985  1.0000
  C   C22       1.0  0.02789  0.98545  0.84974  1.0000
  C   C23       1.0  0.86345  0.51454  0.65014  1.0000
  C   C24       1.0  0.97210  0.01456  0.15025  1.0000
  C   C25       1.0  0.19487  0.36010  0.38281  1.0000
  C   C26       1.0  0.06210  0.86006  0.88252  1.0000
  C   C27       1.0  0.80512  0.63989  0.61719  1.0000
  C   C28       1.0  0.93790  0.13995  0.11749  1.0000
  S   S1        1.0  0.49227  0.13794  0.41196  1.0000
  S   S2        1.0  0.95830  0.63798  0.91162  1.0000
  S   S3        1.0  0.50770  0.86206  0.58805  1.0000
  S   S4        1.0  0.04170  0.36203  0.08838  1.0000
  N   N1        1.0  0.28688  0.55295  0.31386  1.0000
  N   N2        1.0  0.84589  0.05304  0.81386  1.0000
  N   N3        1.0  0.71312  0.44706  0.68614  1.0000
  N   N4        1.0  0.15411  0.94696  0.18613  1.0000
  O   O1        1.0  0.58290  0.20787  0.62913  1.0000
  O   O2        1.0  0.58077  0.70735  0.12924  1.0000
  O   O3        1.0  0.41713  0.79212  0.37087  1.0000
  O   O4        1.0  0.41921  0.29266  0.87076  1.0000
  O   O5        1.0  0.95223  0.17833  0.55825  1.0000
  O   O6        1.0  0.31168  0.67831  0.05824  1.0000
  O   O7        1.0  0.04779  0.82166  0.44174  1.0000
  O   O8        1.0  0.68833  0.32169  0.94174  1.0000
  O   O9        1.0  0.14720  0.24971  0.75012  1.0000
  O   O10       1.0  0.85279  0.75031  0.24988  1.0000
