data_image0
_chemical_formula_structural       Mn2H28C28S4N4O10
_chemical_formula_sum              "Mn2 H28 C28 S4 N4 O10"
_cell_length_a       5.71997
_cell_length_b       8.81505
_cell_length_c       17.557
_cell_angle_alpha    101.143
_cell_angle_beta     90.0117
_cell_angle_gamma    109.255

_space_group_name_H-M_alt    "P 1"
_space_group_IT_number       1

loop_
  _space_group_symop_operation_xyz
  'x, y, z'

loop_
  _atom_site_type_symbol
  _atom_site_label
  _atom_site_symmetry_multiplicity
  _atom_site_fract_x
  _atom_site_fract_y
  _atom_site_fract_z
  _atom_site_occupancy
  Mn  Mn1       1.0  0.48124  0.99804  0.74979  1.0000
  Mn  Mn2       1.0  0.51874  0.00196  0.25021  1.0000
  H   H1        1.0  0.02376  0.98722  0.79791  1.0000
  H   H2        1.0  0.96720  0.99085  0.29587  1.0000
  H   H3        1.0  0.97622  0.01278  0.20208  1.0000
  H   H4        1.0  0.03281  0.00915  0.70412  1.0000
  H   H5        1.0  0.44317  0.76444  0.96197  1.0000
  H   H6        1.0  0.32368  0.76771  0.46276  1.0000
  H   H7        1.0  0.55683  0.23556  0.03804  1.0000
  H   H8        1.0  0.67633  0.23228  0.53724  1.0000
  H   H9        1.0  0.67088  0.94004  0.01862  1.0000
  H   H10       1.0  0.27377  0.94407  0.51791  1.0000
  H   H11       1.0  0.32912  0.05996  0.98138  1.0000
  H   H12       1.0  0.72625  0.05592  0.48209  1.0000
  H   H13       1.0  0.96293  0.23802  0.85108  1.0000
  H   H14       1.0  0.27056  0.23941  0.35068  1.0000
  H   H15       1.0  0.03706  0.76197  0.14893  1.0000
  H   H16       1.0  0.72943  0.76061  0.64931  1.0000
  H   H17       1.0  0.08998  0.50640  0.94122  1.0000
  H   H18       1.0  0.41386  0.50708  0.44160  1.0000
  H   H19       1.0  0.91002  0.49360  0.05878  1.0000
  H   H20       1.0  0.58614  0.49294  0.55839  1.0000
  H   H21       1.0  0.45461  0.59004  0.84507  1.0000
  H   H22       1.0  0.13569  0.59422  0.34620  1.0000
  H   H23       1.0  0.54540  0.40997  0.15493  1.0000
  H   H24       1.0  0.86431  0.40577  0.65380  1.0000
  H   H25       1.0  0.36354  0.32087  0.75563  1.0000
  H   H26       1.0  0.95601  0.32538  0.25651  1.0000
  H   H27       1.0  0.63646  0.67914  0.24437  1.0000
  H   H28       1.0  0.04399  0.67461  0.74349  1.0000
  C   C1        1.0  0.69433  0.92482  0.89466  1.0000
  C   C2        1.0  0.23143  0.92320  0.39341  1.0000
  C   C3        1.0  0.30566  0.07518  0.10534  1.0000
  C   C4        1.0  0.76858  0.07679  0.60659  1.0000
  C   C5        1.0  0.63792  0.84379  0.96537  1.0000
  C   C6        1.0  0.20815  0.84602  0.46535  1.0000
  C   C7        1.0  0.36208  0.15620  0.03463  1.0000
  C   C8        1.0  0.79187  0.15397  0.53465  1.0000
  C   C9        1.0  0.85594  0.31997  0.85075  1.0000
  C   C10       1.0  0.46082  0.32183  0.35093  1.0000
  C   C11       1.0  0.14405  0.68002  0.14925  1.0000
  C   C12       1.0  0.53917  0.67819  0.64907  1.0000
  C   C13       1.0  0.92401  0.46969  0.90224  1.0000
  C   C14       1.0  0.54343  0.47125  0.40272  1.0000
  C   C15       1.0  0.07599  0.53032  0.09777  1.0000
  C   C16       1.0  0.45656  0.52876  0.59727  1.0000
  C   C17       1.0  0.77336  0.56907  0.90577  1.0000
  C   C18       1.0  0.79465  0.57141  0.40662  1.0000
  C   C19       1.0  0.22664  0.43093  0.09423  1.0000
  C   C20       1.0  0.20535  0.42859  0.59338  1.0000
  C   C21       1.0  0.57315  0.51701  0.84923  1.0000
  C   C22       1.0  0.94310  0.52062  0.35012  1.0000
  C   C23       1.0  0.42685  0.48300  0.15077  1.0000
  C   C24       1.0  0.05690  0.47937  0.64988  1.0000
  C   C25       1.0  0.52150  0.36587  0.79865  1.0000
  C   C26       1.0  0.84271  0.36982  0.29928  1.0000
  C   C27       1.0  0.47850  0.63414  0.20136  1.0000
  C   C28       1.0  0.15729  0.63018  0.70072  1.0000
  S   S1        1.0  0.84690  0.73782  0.98243  1.0000
  S   S2        1.0  0.89292  0.73984  0.48344  1.0000
  S   S3        1.0  0.15310  0.26218  0.01757  1.0000
  S   S4        1.0  0.10709  0.26016  0.51656  1.0000
  N   N1        1.0  0.65340  0.26444  0.80033  1.0000
  N   N2        1.0  0.60815  0.26750  0.30063  1.0000
  N   N3        1.0  0.34660  0.73556  0.19968  1.0000
  N   N4        1.0  0.39185  0.73251  0.69936  1.0000
  O   O1        1.0  0.50865  0.93913  0.86010  1.0000
  O   O2        1.0  0.43620  0.94388  0.36092  1.0000
  O   O3        1.0  0.49134  0.06089  0.13990  1.0000
  O   O4        1.0  0.56383  0.05612  0.63909  1.0000
  O   O5        1.0  0.91669  0.97308  0.87731  1.0000
  O   O6        1.0  0.05126  0.96173  0.37299  1.0000
  O   O7        1.0  0.08330  0.02690  0.12268  1.0000
  O   O8        1.0  0.94875  0.03825  0.62700  1.0000
  O   O9        1.0  0.12098  0.99056  0.74969  1.0000
  O   O10       1.0  0.87902  0.00946  0.25031  1.0000
