data_image0
_chemical_formula_structural       Cu2H8C10S2N6
_chemical_formula_sum              "Cu2 H8 C10 S2 N6"
_cell_length_a       3.70568
_cell_length_b       8.27583
_cell_length_c       10.5308
_cell_angle_alpha    89.9983
_cell_angle_beta     90.0017
_cell_angle_gamma    96.7618

_space_group_name_H-M_alt    "P 1"
_space_group_IT_number       1

loop_
  _space_group_symop_operation_xyz
  'x, y, z'

loop_
  _atom_site_type_symbol
  _atom_site_label
  _atom_site_symmetry_multiplicity
  _atom_site_fract_x
  _atom_site_fract_y
  _atom_site_fract_z
  _atom_site_occupancy
  Cu  Cu1       1.0  0.78942  0.90799  0.02348  1.0000
  Cu  Cu2       1.0  0.21053  0.09203  0.52346  1.0000
  H   H1        1.0  0.61294  0.85219  0.29503  1.0000
  H   H2        1.0  0.38707  0.14780  0.79504  1.0000
  H   H3        1.0  0.61918  0.62161  0.45013  1.0000
  H   H4        1.0  0.38087  0.37837  0.95013  1.0000
  H   H5        1.0  0.79516  0.35436  0.36580  1.0000
  H   H6        1.0  0.20491  0.64562  0.86581  1.0000
  H   H7        1.0  0.93655  0.34294  0.13094  1.0000
  H   H8        1.0  0.06346  0.65707  0.63096  1.0000
  C   C1        1.0  0.28081  0.08592  0.23359  1.0000
  C   C2        1.0  0.71916  0.91409  0.73360  1.0000
  C   C3        1.0  0.68130  0.73344  0.26548  1.0000
  C   C4        1.0  0.31870  0.26655  0.76548  1.0000
  C   C5        1.0  0.68690  0.60518  0.35085  1.0000
  C   C6        1.0  0.31312  0.39481  0.85085  1.0000
  C   C7        1.0  0.78088  0.45925  0.30464  1.0000
  C   C8        1.0  0.21915  0.54075  0.80464  1.0000
  C   C9        1.0  0.86069  0.45339  0.17500  1.0000
  C   C10       1.0  0.13933  0.54661  0.67500  1.0000
  S   S1        1.0  0.32589  0.07327  0.07893  1.0000
  S   S2        1.0  0.67408  0.92674  0.57895  1.0000
  N   N1        1.0  0.24646  0.09671  0.34489  1.0000
  N   N2        1.0  0.75349  0.90328  0.84489  1.0000
  N   N3        1.0  0.75984  0.71963  0.14143  1.0000
  N   N4        1.0  0.24015  0.28036  0.64143  1.0000
  N   N5        1.0  0.85086  0.57862  0.09533  1.0000
  N   N6        1.0  0.14913  0.42139  0.59534  1.0000
