data_image0
_chemical_formula_structural       Cu2H22C34S2N4O14
_chemical_formula_sum              "Cu2 H22 C34 S2 N4 O14"
_cell_length_a       9.164
_cell_length_b       10.7061
_cell_length_c       10.5675
_cell_angle_alpha    88.3138
_cell_angle_beta     102.229
_cell_angle_gamma    114.339

_space_group_name_H-M_alt    "P 1"
_space_group_IT_number       1

loop_
  _space_group_symop_operation_xyz
  'x, y, z'

loop_
  _atom_site_type_symbol
  _atom_site_label
  _atom_site_symmetry_multiplicity
  _atom_site_fract_x
  _atom_site_fract_y
  _atom_site_fract_z
  _atom_site_occupancy
  Cu  Cu1       1.0  0.86993  0.84321  0.55084  1.0000
  Cu  Cu2       1.0  0.13006  0.15680  0.44915  1.0000
  H   H1        1.0  0.84402  0.87910  0.04261  1.0000
  H   H2        1.0  0.15598  0.12091  0.95738  1.0000
  H   H3        1.0  0.57630  0.87499  0.06651  1.0000
  H   H4        1.0  0.42371  0.12501  0.93349  1.0000
  H   H5        1.0  0.33912  0.79967  0.87837  1.0000
  H   H6        1.0  0.66087  0.20032  0.12164  1.0000
  H   H7        1.0  0.37132  0.74300  0.66379  1.0000
  H   H8        1.0  0.62866  0.25699  0.33622  1.0000
  H   H9        1.0  0.40627  0.62487  0.52803  1.0000
  H   H10       1.0  0.59373  0.37512  0.47197  1.0000
  H   H11       1.0  0.91147  0.77336  0.28392  1.0000
  H   H12       1.0  0.08854  0.22664  0.71608  1.0000
  H   H13       1.0  0.72398  0.60418  0.10024  1.0000
  H   H14       1.0  0.27603  0.39583  0.89976  1.0000
  H   H15       1.0  0.42309  0.47754  0.10449  1.0000
  H   H16       1.0  0.57692  0.52247  0.89550  1.0000
  H   H17       1.0  0.32709  0.51777  0.29612  1.0000
  H   H18       1.0  0.67292  0.48223  0.70387  1.0000
  H   H19       1.0  0.36423  0.01317  0.67521  1.0000
  H   H20       1.0  0.63577  0.98683  0.32480  1.0000
  H   H21       1.0  0.12475  0.82967  0.11728  1.0000
  H   H22       1.0  0.87526  0.17033  0.88272  1.0000
  C   C1        1.0  0.75784  0.81216  0.84106  1.0000
  C   C2        1.0  0.24216  0.18785  0.15893  1.0000
  C   C3        1.0  0.73958  0.84762  0.96048  1.0000
  C   C4        1.0  0.26042  0.15239  0.03951  1.0000
  C   C5        1.0  0.59010  0.84542  0.97368  1.0000
  C   C6        1.0  0.40990  0.15458  0.02632  1.0000
  C   C7        1.0  0.45659  0.80337  0.86761  1.0000
  C   C8        1.0  0.54341  0.19662  0.13240  1.0000
  C   C9        1.0  0.47449  0.77011  0.74702  1.0000
  C   C10       1.0  0.52550  0.22988  0.25298  1.0000
  C   C11       1.0  0.62634  0.77745  0.73148  1.0000
  C   C12       1.0  0.37366  0.22255  0.26852  1.0000
  C   C13       1.0  0.53288  0.67867  0.51611  1.0000
  C   C14       1.0  0.46711  0.32132  0.48389  1.0000
  C   C15       1.0  0.57113  0.66082  0.39381  1.0000
  C   C16       1.0  0.42887  0.33918  0.60619  1.0000
  C   C17       1.0  0.78247  0.71365  0.28389  1.0000
  C   C18       1.0  0.21754  0.28635  0.71611  1.0000
  C   C19       1.0  0.67515  0.62011  0.18071  1.0000
  C   C20       1.0  0.32486  0.37990  0.81929  1.0000
  C   C21       1.0  0.51018  0.54976  0.18386  1.0000
  C   C22       1.0  0.48983  0.45024  0.81613  1.0000
  C   C23       1.0  0.45587  0.57155  0.29147  1.0000
  C   C24       1.0  0.54414  0.42845  0.70852  1.0000
  C   C25       1.0  0.15210  0.84707  0.48145  1.0000
  C   C26       1.0  0.84790  0.15295  0.51856  1.0000
  C   C27       1.0  0.32954  0.93073  0.48224  1.0000
  C   C28       1.0  0.67046  0.06927  0.51776  1.0000
  C   C29       1.0  0.40547  0.92260  0.38225  1.0000
  C   C30       1.0  0.59452  0.07740  0.61776  1.0000
  C   C31       1.0  0.31613  0.85518  0.24976  1.0000
  C   C32       1.0  0.68387  0.14482  0.75024  1.0000
  C   C33       1.0  0.42402  0.00900  0.59751  1.0000
  C   C34       1.0  0.57598  0.99099  0.40250  1.0000
  S   S1        1.0  0.94346  0.79989  0.83000  1.0000
  S   S2        1.0  0.05654  0.20011  0.17000  1.0000
  N   N1        1.0  0.73129  0.73210  0.38821  1.0000
  N   N2        1.0  0.26871  0.26790  0.61179  1.0000
  N   N3        1.0  0.65231  0.75466  0.60930  1.0000
  N   N4        1.0  0.34768  0.24534  0.39070  1.0000
  O   O1        1.0  0.89749  0.65824  0.78760  1.0000
  O   O2        1.0  0.10250  0.34176  0.21239  1.0000
  O   O3        1.0  0.05545  0.84742  0.95667  1.0000
  O   O4        1.0  0.94455  0.15258  0.04332  1.0000
  O   O5        1.0  0.07204  0.92287  0.48568  1.0000
  O   O6        1.0  0.92796  0.07714  0.51431  1.0000
  O   O7        1.0  0.09812  0.72080  0.48571  1.0000
  O   O8        1.0  0.90187  0.27921  0.51433  1.0000
  O   O9        1.0  0.16575  0.85364  0.21304  1.0000
  O   O10       1.0  0.83424  0.14636  0.78696  1.0000
  O   O11       1.0  0.37925  0.81323  0.17943  1.0000
  O   O12       1.0  0.62076  0.18677  0.82058  1.0000
  O   O13       1.0  0.00897  0.89983  0.73110  1.0000
  O   O14       1.0  0.99103  0.10016  0.26890  1.0000
