data_image0
_chemical_formula_structural       Zn2H28C26N4Cl4
_chemical_formula_sum              "Zn2 H28 C26 N4 Cl4"
_cell_length_a       5.29403
_cell_length_b       9.71012
_cell_length_c       13.1636
_cell_angle_alpha    89.997
_cell_angle_beta     89.9982
_cell_angle_gamma    91.3173

_space_group_name_H-M_alt    "P 1"
_space_group_IT_number       1

loop_
  _space_group_symop_operation_xyz
  'x, y, z'

loop_
  _atom_site_type_symbol
  _atom_site_label
  _atom_site_symmetry_multiplicity
  _atom_site_fract_x
  _atom_site_fract_y
  _atom_site_fract_z
  _atom_site_occupancy
  Zn  Zn1       1.0  0.57587  0.28821  0.25000  1.0000
  Zn  Zn2       1.0  0.42412  0.71179  0.75000  1.0000
  H   H1        1.0  0.03869  0.42314  0.34869  1.0000
  H   H2        1.0  0.96125  0.57688  0.84871  1.0000
  H   H3        1.0  0.96130  0.57687  0.65131  1.0000
  H   H4        1.0  0.03871  0.42313  0.15129  1.0000
  H   H5        1.0  0.29266  0.38918  0.50479  1.0000
  H   H6        1.0  0.70729  0.61083  0.00481  1.0000
  H   H7        1.0  0.70734  0.61083  0.49521  1.0000
  H   H8        1.0  0.29269  0.38917  0.99519  1.0000
  H   H9        1.0  0.77556  0.05837  0.58770  1.0000
  H   H10       1.0  0.22444  0.94161  0.08769  1.0000
  H   H11       1.0  0.22444  0.94163  0.41229  1.0000
  H   H12       1.0  0.77556  0.05838  0.91231  1.0000
  H   H13       1.0  0.53781  0.10612  0.42613  1.0000
  H   H14       1.0  0.46221  0.89386  0.92611  1.0000
  H   H15       1.0  0.46220  0.89388  0.57387  1.0000
  H   H16       1.0  0.53779  0.10614  0.07388  1.0000
  H   H17       1.0  0.38818  0.24362  0.65132  1.0000
  H   H18       1.0  0.61182  0.75637  0.15134  1.0000
  H   H19       1.0  0.61183  0.75638  0.34868  1.0000
  H   H20       1.0  0.38818  0.24364  0.84867  1.0000
  H   H21       1.0  0.23394  0.07942  0.65931  1.0000
  H   H22       1.0  0.76605  0.92058  0.15931  1.0000
  H   H23       1.0  0.76607  0.92059  0.34069  1.0000
  H   H24       1.0  0.23397  0.07942  0.84070  1.0000
  H   H25       1.0  0.86917  0.18976  0.75000  1.0000
  H   H26       1.0  0.13084  0.81024  0.25000  1.0000
  H   H27       1.0  0.04181  0.34784  0.74999  1.0000
  H   H28       1.0  0.95820  0.65216  0.25001  1.0000
  C   C1        1.0  0.98406  0.34358  0.40339  1.0000
  C   C2        1.0  0.01591  0.65642  0.90340  1.0000
  C   C3        1.0  0.01593  0.65642  0.59662  1.0000
  C   C4        1.0  0.98407  0.34357  0.09660  1.0000
  C   C5        1.0  0.12596  0.32386  0.49089  1.0000
  C   C6        1.0  0.87400  0.67614  0.99090  1.0000
  C   C7        1.0  0.87403  0.67614  0.50911  1.0000
  C   C8        1.0  0.12598  0.32386  0.00910  1.0000
  C   C9        1.0  0.05635  0.21940  0.55928  1.0000
  C   C10       1.0  0.94366  0.78060  0.05929  1.0000
  C   C11       1.0  0.94366  0.78061  0.44072  1.0000
  C   C12       1.0  0.05635  0.21940  0.94071  1.0000
  C   C13       1.0  0.83842  0.14039  0.53628  1.0000
  C   C14       1.0  0.16157  0.85959  0.03627  1.0000
  C   C15       1.0  0.16158  0.85961  0.46372  1.0000
  C   C16       1.0  0.83843  0.14039  0.96372  1.0000
  C   C17       1.0  0.70647  0.16565  0.44767  1.0000
  C   C18       1.0  0.29352  0.83433  0.94767  1.0000
  C   C19       1.0  0.29353  0.83435  0.55233  1.0000
  C   C20       1.0  0.70648  0.16565  0.05233  1.0000
  C   C21       1.0  0.20256  0.19095  0.65411  1.0000
  C   C22       1.0  0.79744  0.80904  0.15412  1.0000
  C   C23       1.0  0.79745  0.80905  0.34589  1.0000
  C   C24       1.0  0.20258  0.19096  0.84589  1.0000
  C   C25       1.0  0.06137  0.23546  0.75000  1.0000
  C   C26       1.0  0.93865  0.76454  0.25000  1.0000
  N   N1        1.0  0.77846  0.26503  0.38135  1.0000
  N   N2        1.0  0.22152  0.73497  0.88135  1.0000
  N   N3        1.0  0.22154  0.73497  0.61865  1.0000
  N   N4        1.0  0.77847  0.26503  0.11865  1.0000
  Cl  Cl1       1.0  0.29369  0.10919  0.25000  1.0000
  Cl  Cl2       1.0  0.70630  0.89080  0.75000  1.0000
  Cl  Cl3       1.0  0.45079  0.50791  0.25000  1.0000
  Cl  Cl4       1.0  0.54922  0.49209  0.75000  1.0000
