data_image0
_chemical_formula_structural       Zn2H16C12N24
_chemical_formula_sum              "Zn2 H16 C12 N24"
_cell_length_a       7.73899
_cell_length_b       8.67763
_cell_length_c       9.1152
_cell_angle_alpha    95.1524
_cell_angle_beta     105.188
_cell_angle_gamma    101.03

_space_group_name_H-M_alt    "P 1"
_space_group_IT_number       1

loop_
  _space_group_symop_operation_xyz
  'x, y, z'

loop_
  _atom_site_type_symbol
  _atom_site_label
  _atom_site_symmetry_multiplicity
  _atom_site_fract_x
  _atom_site_fract_y
  _atom_site_fract_z
  _atom_site_occupancy
  Zn  Zn1       1.0  0.13112  0.68326  0.95478  1.0000
  Zn  Zn2       1.0  0.86887  0.31673  0.04522  1.0000
  H   H1        1.0  0.42485  0.00570  0.10537  1.0000
  H   H2        1.0  0.57514  0.99429  0.89463  1.0000
  H   H3        1.0  0.34516  0.58136  0.29369  1.0000
  H   H4        1.0  0.65485  0.41864  0.70630  1.0000
  H   H5        1.0  0.70200  0.23076  0.33007  1.0000
  H   H6        1.0  0.29801  0.76924  0.66993  1.0000
  H   H7        1.0  0.91680  0.68297  0.23146  1.0000
  H   H8        1.0  0.08320  0.31703  0.76854  1.0000
  H   H9        1.0  0.57265  0.68821  0.56410  1.0000
  H   H10       1.0  0.42735  0.31179  0.43589  1.0000
  H   H11       1.0  0.67800  0.89522  0.60434  1.0000
  H   H12       1.0  0.32200  0.10478  0.39566  1.0000
  H   H13       1.0  0.90721  0.84786  0.46395  1.0000
  H   H14       1.0  0.09279  0.15214  0.53606  1.0000
  H   H15       1.0  0.91854  0.74718  0.62761  1.0000
  H   H16       1.0  0.08146  0.25282  0.37240  1.0000
  C   C1        1.0  0.44404  0.91776  0.18200  1.0000
  C   C2        1.0  0.55595  0.08224  0.81800  1.0000
  C   C3        1.0  0.39954  0.69953  0.27356  1.0000
  C   C4        1.0  0.60046  0.30046  0.72644  1.0000
  C   C5        1.0  0.74685  0.35857  0.33728  1.0000
  C   C6        1.0  0.25316  0.64143  0.66272  1.0000
  C   C7        1.0  0.85603  0.58497  0.28196  1.0000
  C   C8        1.0  0.14397  0.41503  0.71804  1.0000
  C   C9        1.0  0.65047  0.78616  0.52339  1.0000
  C   C10       1.0  0.34953  0.21384  0.47661  1.0000
  C   C11       1.0  0.83367  0.75354  0.51222  1.0000
  C   C12       1.0  0.16632  0.24645  0.48778  1.0000
  N   N1        1.0  0.53542  0.80724  0.37598  1.0000
  N   N2        1.0  0.46458  0.19276  0.62402  1.0000
  N   N3        1.0  0.56637  0.94708  0.31915  1.0000
  N   N4        1.0  0.43363  0.05292  0.68085  1.0000
  N   N5        1.0  0.33857  0.76616  0.14913  1.0000
  N   N6        1.0  0.66143  0.23384  0.85087  1.0000
  N   N7        1.0  0.81181  0.60525  0.41403  1.0000
  N   N8        1.0  0.18820  0.39475  0.58597  1.0000
  N   N9        1.0  0.74188  0.46217  0.45164  1.0000
  N   N10       1.0  0.25812  0.53782  0.54837  1.0000
  N   N11       1.0  0.81621  0.42936  0.23030  1.0000
  N   N12       1.0  0.18379  0.57064  0.76970  1.0000
  N   N13       1.0  0.14876  0.89798  0.88040  1.0000
  N   N14       1.0  0.85124  0.10202  0.11960  1.0000
  N   N15       1.0  0.06030  0.98541  0.82090  1.0000
  N   N16       1.0  0.93970  0.01459  0.17910  1.0000
  N   N17       1.0  0.97837  0.07388  0.75943  1.0000
  N   N18       1.0  0.02163  0.92612  0.24057  1.0000
  N   N19       1.0  0.87116  0.59265  0.94431  1.0000
  N   N20       1.0  0.12884  0.40735  0.05569  1.0000
  N   N21       1.0  0.75061  0.66543  0.92964  1.0000
  N   N22       1.0  0.24938  0.33458  0.07036  1.0000
  N   N23       1.0  0.62817  0.72818  0.91516  1.0000
  N   N24       1.0  0.37183  0.27182  0.08485  1.0000
