data_image0
_chemical_formula_structural       Zn4H44C68N16O16
_chemical_formula_sum              "Zn4 H44 C68 N16 O16"
_cell_length_a       7.35203
_cell_length_b       15.1217
_cell_length_c       16.7451
_cell_angle_alpha    105.581
_cell_angle_beta     90
_cell_angle_gamma    90.0001

_space_group_name_H-M_alt    "P 1"
_space_group_IT_number       1

loop_
  _space_group_symop_operation_xyz
  'x, y, z'

loop_
  _atom_site_type_symbol
  _atom_site_label
  _atom_site_symmetry_multiplicity
  _atom_site_fract_x
  _atom_site_fract_y
  _atom_site_fract_z
  _atom_site_occupancy
  Zn  Zn1       1.0  0.85334  0.18699  0.51405  1.0000
  Zn  Zn2       1.0  0.85334  0.31301  0.98595  1.0000
  Zn  Zn3       1.0  0.14666  0.81301  0.48595  1.0000
  Zn  Zn4       1.0  0.14666  0.68699  0.01405  1.0000
  H   H1        1.0  0.69490  0.07259  0.63406  1.0000
  H   H2        1.0  0.69490  0.42741  0.86594  1.0000
  H   H3        1.0  0.30510  0.92741  0.36593  1.0000
  H   H4        1.0  0.30510  0.57259  0.13407  1.0000
  H   H5        1.0  0.23843  0.14786  0.59880  1.0000
  H   H6        1.0  0.23843  0.35214  0.90120  1.0000
  H   H7        1.0  0.76157  0.85214  0.40120  1.0000
  H   H8        1.0  0.76157  0.64786  0.09880  1.0000
  H   H9        1.0  0.56707  0.89330  0.75302  1.0000
  H   H10       1.0  0.56707  0.60670  0.74698  1.0000
  H   H11       1.0  0.43293  0.10670  0.24698  1.0000
  H   H12       1.0  0.43293  0.39330  0.25302  1.0000
  H   H13       1.0  0.70474  0.02995  0.85474  1.0000
  H   H14       1.0  0.70474  0.47005  0.64526  1.0000
  H   H15       1.0  0.29526  0.97005  0.14526  1.0000
  H   H16       1.0  0.29526  0.52995  0.35474  1.0000
  H   H17       1.0  0.29687  0.20248  0.79287  1.0000
  H   H18       1.0  0.29687  0.29752  0.70713  1.0000
  H   H19       1.0  0.70313  0.79752  0.20713  1.0000
  H   H20       1.0  0.70313  0.70248  0.29287  1.0000
  H   H21       1.0  0.16404  0.13022  0.36937  1.0000
  H   H22       1.0  0.16404  0.36978  0.13063  1.0000
  H   H23       1.0  0.83596  0.86978  0.63063  1.0000
  H   H24       1.0  0.83596  0.63023  0.86937  1.0000
  H   H25       1.0  0.43609  0.25428  0.35801  1.0000
  H   H26       1.0  0.43609  0.24572  0.14199  1.0000
  H   H27       1.0  0.56391  0.74572  0.64199  1.0000
  H   H28       1.0  0.56391  0.75428  0.85801  1.0000
  H   H29       1.0  0.08588  0.37275  0.56051  1.0000
  H   H30       1.0  0.08588  0.12725  0.93949  1.0000
  H   H31       1.0  0.91412  0.62725  0.43950  1.0000
  H   H32       1.0  0.91413  0.87275  0.06051  1.0000
  H   H33       1.0  0.64184  0.34912  0.42980  1.0000
  H   H34       1.0  0.64184  0.15088  0.07020  1.0000
  H   H35       1.0  0.35817  0.65087  0.57020  1.0000
  H   H36       1.0  0.35817  0.84913  0.92980  1.0000
  H   H37       1.0  0.17199  0.50965  0.53690  1.0000
  H   H38       1.0  0.17199  0.99035  0.96310  1.0000
  H   H39       1.0  0.82802  0.49035  0.46310  1.0000
  H   H40       1.0  0.82802  0.00965  0.03690  1.0000
  H   H41       1.0  0.92516  0.01161  0.74155  1.0000
  H   H42       1.0  0.92516  0.48839  0.75844  1.0000
  H   H43       1.0  0.07483  0.98838  0.25844  1.0000
  H   H44       1.0  0.07484  0.51162  0.24156  1.0000
  C   C1        1.0  0.84119  0.07747  0.64187  1.0000
  C   C2        1.0  0.84119  0.42253  0.85813  1.0000
  C   C3        1.0  0.15880  0.92253  0.35813  1.0000
  C   C4        1.0  0.15881  0.57747  0.14187  1.0000
  C   C5        1.0  0.11868  0.11965  0.62139  1.0000
  C   C6        1.0  0.11868  0.38035  0.87861  1.0000
  C   C7        1.0  0.88132  0.88035  0.37861  1.0000
  C   C8        1.0  0.88132  0.61965  0.12139  1.0000
  C   C9        1.0  0.28645  0.05964  0.72457  1.0000
  C   C10       1.0  0.28645  0.44036  0.77543  1.0000
  C   C11       1.0  0.71355  0.94036  0.27543  1.0000
  C   C12       1.0  0.71355  0.55964  0.22457  1.0000
  C   C13       1.0  0.36285  0.97162  0.71129  1.0000
  C   C14       1.0  0.36285  0.52838  0.78871  1.0000
  C   C15       1.0  0.63715  0.02838  0.28871  1.0000
  C   C16       1.0  0.63715  0.47162  0.21129  1.0000
  C   C17       1.0  0.51175  0.96196  0.76058  1.0000
  C   C18       1.0  0.51174  0.53804  0.73942  1.0000
  C   C19       1.0  0.48825  0.03804  0.23942  1.0000
  C   C20       1.0  0.48825  0.46196  0.26058  1.0000
  C   C21       1.0  0.58789  0.03760  0.81719  1.0000
  C   C22       1.0  0.58789  0.46240  0.68281  1.0000
  C   C23       1.0  0.41211  0.96240  0.18281  1.0000
  C   C24       1.0  0.41211  0.53760  0.31719  1.0000
  C   C25       1.0  0.51370  0.12530  0.82782  1.0000
  C   C26       1.0  0.51370  0.37470  0.67218  1.0000
  C   C27       1.0  0.48630  0.87470  0.17218  1.0000
  C   C28       1.0  0.48630  0.62530  0.32782  1.0000
  C   C29       1.0  0.35939  0.13505  0.78241  1.0000
  C   C30       1.0  0.35939  0.36495  0.71759  1.0000
  C   C31       1.0  0.64061  0.86495  0.21759  1.0000
  C   C32       1.0  0.64061  0.63505  0.28241  1.0000
  C   C33       1.0  0.59448  0.20924  0.88649  1.0000
  C   C34       1.0  0.59448  0.29076  0.61351  1.0000
  C   C35       1.0  0.40552  0.79076  0.11351  1.0000
  C   C36       1.0  0.40552  0.70924  0.38649  1.0000
  C   C37       1.0  0.29695  0.88911  0.64468  1.0000
  C   C38       1.0  0.29695  0.61089  0.85533  1.0000
  C   C39       1.0  0.70305  0.11089  0.35532  1.0000
  C   C40       1.0  0.70305  0.38911  0.14468  1.0000
  C   C41       1.0  0.18744  0.19989  0.40636  1.0000
  C   C42       1.0  0.18744  0.30011  0.09364  1.0000
  C   C43       1.0  0.81256  0.80011  0.59364  1.0000
  C   C44       1.0  0.81256  0.69989  0.90636  1.0000
  C   C45       1.0  0.32019  0.26084  0.39927  1.0000
  C   C46       1.0  0.32019  0.23916  0.10073  1.0000
  C   C47       1.0  0.67981  0.73916  0.60073  1.0000
  C   C48       1.0  0.67981  0.76084  0.89927  1.0000
  C   C49       1.0  0.14026  0.32417  0.50598  1.0000
  C   C50       1.0  0.14026  0.17583  0.99402  1.0000
  C   C51       1.0  0.85974  0.67583  0.49402  1.0000
  C   C52       1.0  0.85974  0.82417  0.00598  1.0000
  C   C53       1.0  0.39533  0.42088  0.48117  1.0000
  C   C54       1.0  0.39533  0.07912  0.01883  1.0000
  C   C55       1.0  0.60468  0.57911  0.51883  1.0000
  C   C56       1.0  0.60468  0.92089  0.98117  1.0000
  C   C57       1.0  0.57936  0.41527  0.45935  1.0000
  C   C58       1.0  0.57936  0.08473  0.04066  1.0000
  C   C59       1.0  0.42064  0.58473  0.54066  1.0000
  C   C60       1.0  0.42064  0.91527  0.95934  1.0000
  C   C61       1.0  0.31631  0.50520  0.52149  1.0000
  C   C62       1.0  0.31631  0.99480  0.97851  1.0000
  C   C63       1.0  0.68369  0.49480  0.47851  1.0000
  C   C64       1.0  0.68369  0.00520  0.02149  1.0000
  C   C65       1.0  0.95238  0.04721  0.69478  1.0000
  C   C66       1.0  0.95238  0.45279  0.80522  1.0000
  C   C67       1.0  0.04761  0.95279  0.30521  1.0000
  C   C68       1.0  0.04761  0.54721  0.19478  1.0000
  N   N1        1.0  0.94675  0.12219  0.59655  1.0000
  N   N2        1.0  0.94675  0.37782  0.90345  1.0000
  N   N3        1.0  0.05324  0.87782  0.40345  1.0000
  N   N4        1.0  0.05324  0.62219  0.09655  1.0000
  N   N5        1.0  0.12664  0.07462  0.68124  1.0000
  N   N6        1.0  0.12664  0.42538  0.81876  1.0000
  N   N7        1.0  0.87335  0.92538  0.31876  1.0000
  N   N8        1.0  0.87336  0.57462  0.18124  1.0000
  N   N9        1.0  0.07677  0.24016  0.47282  1.0000
  N   N10       1.0  0.07677  0.25984  0.02718  1.0000
  N   N11       1.0  0.92323  0.75984  0.52718  1.0000
  N   N12       1.0  0.92322  0.74016  0.97282  1.0000
  N   N13       1.0  0.28870  0.33973  0.46282  1.0000
  N   N14       1.0  0.28870  0.16027  0.03718  1.0000
  N   N15       1.0  0.71130  0.66027  0.53718  1.0000
  N   N16       1.0  0.71130  0.83973  0.96282  1.0000
  O   O1        1.0  0.51642  0.28528  0.89888  1.0000
  O   O2        1.0  0.51642  0.21472  0.60112  1.0000
  O   O3        1.0  0.48358  0.71472  0.10112  1.0000
  O   O4        1.0  0.48358  0.78528  0.39888  1.0000
  O   O5        1.0  0.74693  0.19573  0.92062  1.0000
  O   O6        1.0  0.74693  0.30427  0.57938  1.0000
  O   O7        1.0  0.25308  0.80426  0.07938  1.0000
  O   O8        1.0  0.25308  0.69573  0.42062  1.0000
  O   O9        1.0  0.24556  0.90873  0.57743  1.0000
  O   O10       1.0  0.24556  0.59127  0.92257  1.0000
  O   O11       1.0  0.75444  0.09127  0.42257  1.0000
  O   O12       1.0  0.75444  0.40873  0.07743  1.0000
  O   O13       1.0  0.30075  0.81144  0.65707  1.0000
  O   O14       1.0  0.30075  0.68856  0.84293  1.0000
  O   O15       1.0  0.69925  0.18855  0.34293  1.0000
  O   O16       1.0  0.69925  0.31144  0.15707  1.0000
