data_image0
_chemical_formula_structural       Hg2P4H36Au4C60F40
_chemical_formula_sum              "Hg2 P4 H36 Au4 C60 F40"
_cell_length_a       10.4721
_cell_length_b       10.9993
_cell_length_c       18.1944
_cell_angle_alpha    106.976
_cell_angle_beta     90.0122
_cell_angle_gamma    118.422

_space_group_name_H-M_alt    "P 1"
_space_group_IT_number       1

loop_
  _space_group_symop_operation_xyz
  'x, y, z'

loop_
  _atom_site_type_symbol
  _atom_site_label
  _atom_site_symmetry_multiplicity
  _atom_site_fract_x
  _atom_site_fract_y
  _atom_site_fract_z
  _atom_site_occupancy
  Hg  Hg1       1.0  0.00000  0.00000  0.00000  1.0000
  Hg  Hg2       1.0  1.00000  1.00000  0.50000  1.0000
  P   P1        1.0  0.31113  0.22628  0.85869  1.0000
  P   P2        1.0  0.08497  0.77376  0.64130  1.0000
  P   P3        1.0  0.68887  0.77372  0.14131  1.0000
  P   P4        1.0  0.91503  0.22624  0.35870  1.0000
  H   H1        1.0  0.51139  0.30200  0.78523  1.0000
  H   H2        1.0  0.20945  0.69806  0.71483  1.0000
  H   H3        1.0  0.48861  0.69800  0.21477  1.0000
  H   H4        1.0  0.79055  0.30194  0.28517  1.0000
  H   H5        1.0  0.33589  0.21851  0.72546  1.0000
  H   H6        1.0  0.11743  0.78155  0.77455  1.0000
  H   H7        1.0  0.66411  0.78150  0.27454  1.0000
  H   H8        1.0  0.88257  0.21845  0.22545  1.0000
  H   H9        1.0  0.39565  0.10810  0.75236  1.0000
  H   H10       1.0  0.28762  0.89197  0.74771  1.0000
  H   H11       1.0  0.60435  0.89189  0.24764  1.0000
  H   H12       1.0  0.71238  0.10803  0.25229  1.0000
  H   H13       1.0  0.54075  0.29751  0.93408  1.0000
  H   H14       1.0  0.24330  0.70244  0.56592  1.0000
  H   H15       1.0  0.45925  0.70249  0.06592  1.0000
  H   H16       1.0  0.75670  0.29756  0.43408  1.0000
  H   H17       1.0  0.41315  0.10683  0.91169  1.0000
  H   H18       1.0  0.30637  0.89314  0.58830  1.0000
  H   H19       1.0  0.58685  0.89317  0.08831  1.0000
  H   H20       1.0  0.69363  0.10686  0.41170  1.0000
  H   H21       1.0  0.39017  0.23727  0.98647  1.0000
  H   H22       1.0  0.15292  0.76274  0.51356  1.0000
  H   H23       1.0  0.60983  0.76273  0.01353  1.0000
  H   H24       1.0  0.84708  0.23727  0.48644  1.0000
  H   H25       1.0  0.31543  0.43808  0.95028  1.0000
  H   H26       1.0  0.87750  0.56198  0.54971  1.0000
  H   H27       1.0  0.68457  0.56192  0.04972  1.0000
  H   H28       1.0  0.12250  0.43802  0.45029  1.0000
  H   H29       1.0  0.29737  0.43694  0.85271  1.0000
  H   H30       1.0  0.86059  0.56311  0.64727  1.0000
  H   H31       1.0  0.70263  0.56306  0.14729  1.0000
  H   H32       1.0  0.13941  0.43689  0.35272  1.0000
  H   H33       1.0  0.47268  0.48864  0.90200  1.0000
  H   H34       1.0  0.98419  0.51138  0.59800  1.0000
  H   H35       1.0  0.52732  0.51136  0.09800  1.0000
  H   H36       1.0  0.01581  0.48862  0.40200  1.0000
  Au  Au1       1.0  0.06326  0.06052  0.83888  1.0000
  Au  Au2       1.0  0.00284  0.93948  0.66108  1.0000
  Au  Au3       1.0  0.93674  0.93948  0.16112  1.0000
  Au  Au4       1.0  0.99716  0.06051  0.33892  1.0000
  C   C1        1.0  0.39688  0.21270  0.77208  1.0000
  C   C2        1.0  0.18426  0.78737  0.72796  1.0000
  C   C3        1.0  0.60312  0.78730  0.22792  1.0000
  C   C4        1.0  0.81574  0.21263  0.27204  1.0000
  C   C5        1.0  0.42489  0.21613  0.92949  1.0000
  C   C6        1.0  0.20882  0.78383  0.57053  1.0000
  C   C7        1.0  0.57511  0.78387  0.07051  1.0000
  C   C8        1.0  0.79118  0.21618  0.42947  1.0000
  C   C9        1.0  0.35328  0.41612  0.89434  1.0000
  C   C10       1.0  0.93732  0.58392  0.60565  1.0000
  C   C11       1.0  0.64672  0.58388  0.10566  1.0000
  C   C12       1.0  0.06268  0.41608  0.39434  1.0000
  C   C13       1.0  0.83726  0.92139  0.82367  1.0000
  C   C14       1.0  0.91589  0.07857  0.67627  1.0000
  C   C15       1.0  0.16274  0.07861  0.17633  1.0000
  C   C16       1.0  0.08411  0.92143  0.32373  1.0000
  C   C17       1.0  0.74143  0.97723  0.83627  1.0000
  C   C18       1.0  0.76422  0.02268  0.66370  1.0000
  C   C19       1.0  0.25857  0.02277  0.16373  1.0000
  C   C20       1.0  0.23578  0.97732  0.33630  1.0000
  C   C21       1.0  0.58895  0.88945  0.82425  1.0000
  C   C22       1.0  0.69950  0.11045  0.67575  1.0000
  C   C23       1.0  0.41105  0.11055  0.17575  1.0000
  C   C24       1.0  0.30050  0.88955  0.32425  1.0000
  C   C25       1.0  0.52651  0.73742  0.79770  1.0000
  C   C26       1.0  0.78903  0.26249  0.70230  1.0000
  C   C27       1.0  0.47349  0.26258  0.20230  1.0000
  C   C28       1.0  0.21097  0.73751  0.29770  1.0000
  C   C29       1.0  0.61819  0.67684  0.78382  1.0000
  C   C30       1.0  0.94129  0.32310  0.71618  1.0000
  C   C31       1.0  0.38181  0.32315  0.21618  1.0000
  C   C32       1.0  0.05871  0.67690  0.28382  1.0000
  C   C33       1.0  0.77001  0.76933  0.79696  1.0000
  C   C34       1.0  0.00065  0.23062  0.70303  1.0000
  C   C35       1.0  0.22999  0.23067  0.20304  1.0000
  C   C36       1.0  0.99935  0.76938  0.29697  1.0000
  C   C37       1.0  0.98335  0.19135  0.03634  1.0000
  C   C38       1.0  0.79175  0.80872  0.46366  1.0000
  C   C39       1.0  0.01665  0.80865  0.96366  1.0000
  C   C40       1.0  0.20824  0.19128  0.53634  1.0000
  C   C41       1.0  0.10683  0.33007  0.06075  1.0000
  C   C42       1.0  0.77659  0.67002  0.43926  1.0000
  C   C43       1.0  0.89317  0.66993  0.93925  1.0000
  C   C44       1.0  0.22341  0.32998  0.56074  1.0000
  C   C45       1.0  0.09822  0.45793  0.08326  1.0000
  C   C46       1.0  0.64018  0.54212  0.41675  1.0000
  C   C47       1.0  0.90177  0.54207  0.91674  1.0000
  C   C48       1.0  0.35982  0.45788  0.58325  1.0000
  C   C49       1.0  0.96004  0.44729  0.08102  1.0000
  C   C50       1.0  0.51261  0.55274  0.41902  1.0000
  C   C51       1.0  0.03996  0.55271  0.91898  1.0000
  C   C52       1.0  0.48738  0.44726  0.58098  1.0000
  C   C53       1.0  0.83336  0.30959  0.05674  1.0000
  C   C54       1.0  0.52360  0.69043  0.44335  1.0000
  C   C55       1.0  0.16664  0.69040  0.94326  1.0000
  C   C56       1.0  0.47640  0.30957  0.55665  1.0000
  C   C57       1.0  0.84756  0.18474  0.03518  1.0000
  C   C58       1.0  0.66259  0.81532  0.46486  1.0000
  C   C59       1.0  0.15244  0.81526  0.96482  1.0000
  C   C60       1.0  0.33741  0.18468  0.53514  1.0000
  F   F1        1.0  0.79567  0.12516  0.86138  1.0000
  F   F2        1.0  0.67059  0.87476  0.63864  1.0000
  F   F3        1.0  0.20433  0.87484  0.13862  1.0000
  F   F4        1.0  0.32941  0.12524  0.36136  1.0000
  F   F5        1.0  0.50046  0.94946  0.83789  1.0000
  F   F6        1.0  0.55099  0.05043  0.66217  1.0000
  F   F7        1.0  0.49954  0.05054  0.16211  1.0000
  F   F8        1.0  0.44901  0.94957  0.33783  1.0000
  F   F9        1.0  0.37882  0.64929  0.78484  1.0000
  F   F10       1.0  0.72947  0.35062  0.71514  1.0000
  F   F11       1.0  0.62118  0.35071  0.21516  1.0000
  F   F12       1.0  0.27053  0.64938  0.28486  1.0000
  F   F13       1.0  0.55780  0.52890  0.75738  1.0000
  F   F14       1.0  0.02880  0.47105  0.74266  1.0000
  F   F15       1.0  0.44220  0.47110  0.24262  1.0000
  F   F16       1.0  0.97120  0.52895  0.25734  1.0000
  F   F17       1.0  0.85353  0.70244  0.78176  1.0000
  F   F18       1.0  0.15105  0.29757  0.71826  1.0000
  F   F19       1.0  0.14647  0.29756  0.21824  1.0000
  F   F20       1.0  0.84895  0.70243  0.28174  1.0000
  F   F21       1.0  0.24458  0.34541  0.06332  1.0000
  F   F22       1.0  0.89902  0.65470  0.43670  1.0000
  F   F23       1.0  0.75542  0.65460  0.93668  1.0000
  F   F24       1.0  0.10097  0.34529  0.56330  1.0000
  F   F25       1.0  0.22121  0.59163  0.10700  1.0000
  F   F26       1.0  0.62948  0.40843  0.39298  1.0000
  F   F27       1.0  0.77879  0.40837  0.89300  1.0000
  F   F28       1.0  0.37051  0.59157  0.60702  1.0000
  F   F29       1.0  0.94915  0.56971  0.10208  1.0000
  F   F30       1.0  0.37931  0.43029  0.39786  1.0000
  F   F31       1.0  0.05084  0.43028  0.89792  1.0000
  F   F32       1.0  0.62068  0.56971  0.60214  1.0000
  F   F33       1.0  0.69941  0.29902  0.05377  1.0000
  F   F34       1.0  0.40022  0.70098  0.44629  1.0000
  F   F35       1.0  0.30058  0.70097  0.94623  1.0000
  F   F36       1.0  0.59978  0.29902  0.55371  1.0000
  F   F37       1.0  0.72130  0.05240  0.01133  1.0000
  F   F38       1.0  0.66865  0.94764  0.48869  1.0000
  F   F39       1.0  0.27870  0.94760  0.98867  1.0000
  F   F40       1.0  0.33135  0.05236  0.51131  1.0000
