data_image0
_chemical_formula_structural       Cu6H18C32N28
_chemical_formula_sum              "Cu6 H18 C32 N28"
_cell_length_a       9.65963
_cell_length_b       10.0466
_cell_length_c       10.9624
_cell_angle_alpha    108.307
_cell_angle_beta     90.9155
_cell_angle_gamma    108.823

_space_group_name_H-M_alt    "P 1"
_space_group_IT_number       1

loop_
  _space_group_symop_operation_xyz
  'x, y, z'

loop_
  _atom_site_type_symbol
  _atom_site_label
  _atom_site_symmetry_multiplicity
  _atom_site_fract_x
  _atom_site_fract_y
  _atom_site_fract_z
  _atom_site_occupancy
  Cu  Cu1       1.0  0.28410  0.84125  0.65301  1.0000
  Cu  Cu2       1.0  0.71591  0.15874  0.34698  1.0000
  Cu  Cu3       1.0  0.45168  0.41588  0.56353  1.0000
  Cu  Cu4       1.0  0.54833  0.58412  0.43647  1.0000
  Cu  Cu5       1.0  0.91281  0.95595  0.71593  1.0000
  Cu  Cu6       1.0  0.08719  0.04405  0.28407  1.0000
  H   H1        1.0  0.88328  0.47101  0.89838  1.0000
  H   H2        1.0  0.11671  0.52899  0.10162  1.0000
  H   H3        1.0  0.58912  0.94718  0.79386  1.0000
  H   H4        1.0  0.41088  0.05282  0.20613  1.0000
  H   H5        1.0  0.42927  0.82491  0.93589  1.0000
  H   H6        1.0  0.57073  0.17509  0.06411  1.0000
  H   H7        1.0  0.75647  0.56374  0.75584  1.0000
  H   H8        1.0  0.24353  0.43626  0.24416  1.0000
  H   H9        1.0  0.54641  0.71336  0.06914  1.0000
  H   H10       1.0  0.45359  0.28665  0.93086  1.0000
  H   H11       1.0  0.92743  0.48899  0.40142  1.0000
  H   H12       1.0  0.07256  0.51101  0.59859  1.0000
  H   H13       1.0  0.84618  0.71511  0.14486  1.0000
  H   H14       1.0  0.15382  0.28488  0.85514  1.0000
  H   H15       1.0  0.78513  0.47705  0.20244  1.0000
  H   H16       1.0  0.21487  0.52295  0.79756  1.0000
  H   H17       1.0  0.76648  0.20055  0.88143  1.0000
  H   H18       1.0  0.23352  0.79946  0.11857  1.0000
  C   C1        1.0  0.78048  0.39860  0.83582  1.0000
  C   C2        1.0  0.21952  0.60140  0.16418  1.0000
  C   C3        1.0  0.19239  0.97181  0.48310  1.0000
  C   C4        1.0  0.80761  0.02819  0.51690  1.0000
  C   C5        1.0  0.96543  0.82055  0.89086  1.0000
  C   C6        1.0  0.03457  0.17945  0.10914  1.0000
  C   C7        1.0  0.38529  0.13641  0.60003  1.0000
  C   C8        1.0  0.61470  0.86359  0.39997  1.0000
  C   C9        1.0  0.81978  0.82709  0.91441  1.0000
  C   C10       1.0  0.18022  0.17292  0.08559  1.0000
  C   C11       1.0  0.63028  0.89418  0.85218  1.0000
  C   C12       1.0  0.36972  0.10583  0.14782  1.0000
  C   C13       1.0  0.52390  0.22188  0.68395  1.0000
  C   C14       1.0  0.47610  0.77812  0.31606  1.0000
  C   C15       1.0  0.54305  0.82837  0.93192  1.0000
  C   C16       1.0  0.45694  0.17163  0.06808  1.0000
  C   C17       1.0  0.70982  0.45106  0.75933  1.0000
  C   C18       1.0  0.29018  0.54894  0.24068  1.0000
  C   C19       1.0  0.60690  0.76540  0.00330  1.0000
  C   C20       1.0  0.39310  0.23461  0.99670  1.0000
  C   C21       1.0  0.07744  0.83340  0.41049  1.0000
  C   C22       1.0  0.92256  0.16659  0.58951  1.0000
  C   C23       1.0  0.94859  0.58765  0.37259  1.0000
  C   C24       1.0  0.05141  0.41235  0.62741  1.0000
  C   C25       1.0  0.90152  0.71091  0.23072  1.0000
  C   C26       1.0  0.09848  0.28909  0.76928  1.0000
  C   C27       1.0  0.86874  0.58120  0.26221  1.0000
  C   C28       1.0  0.13126  0.41880  0.73779  1.0000
  C   C29       1.0  0.71450  0.24942  0.82641  1.0000
  C   C30       1.0  0.28550  0.75058  0.17359  1.0000
  C   C31       1.0  0.40539  0.58836  0.59609  1.0000
  C   C32       1.0  0.59462  0.41164  0.40390  1.0000
  N   N1        1.0  0.02936  0.86813  0.79599  1.0000
  N   N2        1.0  0.97064  0.13186  0.20401  1.0000
  N   N3        1.0  0.29840  0.99254  0.57632  1.0000
  N   N4        1.0  0.70160  0.00745  0.42369  1.0000
  N   N5        1.0  0.33310  0.20106  0.52679  1.0000
  N   N6        1.0  0.66690  0.79894  0.47322  1.0000
  N   N7        1.0  0.15814  0.84406  0.79483  1.0000
  N   N8        1.0  0.84186  0.15594  0.20517  1.0000
  N   N9        1.0  0.21041  0.09592  0.45195  1.0000
  N   N10       1.0  0.78958  0.90408  0.54806  1.0000
  N   N11       1.0  0.76934  0.89512  0.84296  1.0000
  N   N12       1.0  0.23066  0.10489  0.15704  1.0000
  N   N13       1.0  0.58096  0.36528  0.68496  1.0000
  N   N14       1.0  0.41904  0.63472  0.31504  1.0000
  N   N15       1.0  0.17086  0.78402  0.88595  1.0000
  N   N16       1.0  0.82914  0.21598  0.11405  1.0000
  N   N17       1.0  0.05113  0.76780  0.94681  1.0000
  N   N18       1.0  0.94887  0.23221  0.05319  1.0000
  N   N19       1.0  0.58681  0.15998  0.75022  1.0000
  N   N20       1.0  0.41319  0.84002  0.24978  1.0000
  N   N21       1.0  0.74463  0.76359  0.99477  1.0000
  N   N22       1.0  0.25537  0.23641  0.00523  1.0000
  N   N23       1.0  0.00694  0.83884  0.30445  1.0000
  N   N24       1.0  0.99306  0.16116  0.69555  1.0000
  N   N25       1.0  0.05330  0.71379  0.44767  1.0000
  N   N26       1.0  0.94669  0.28621  0.55234  1.0000
  N   N27       1.0  0.36364  0.69121  0.62294  1.0000
  N   N28       1.0  0.63637  0.30878  0.37705  1.0000
