data_image0
_chemical_formula_structural       H24Rh2C32N2O14
_chemical_formula_sum              "H24 Rh2 C32 N2 O14"
_cell_length_a       9.51262
_cell_length_b       10.3079
_cell_length_c       10.5358
_cell_angle_alpha    74.1517
_cell_angle_beta     64.2046
_cell_angle_gamma    63.6799

_space_group_name_H-M_alt    "P 1"
_space_group_IT_number       1

loop_
  _space_group_symop_operation_xyz
  'x, y, z'

loop_
  _atom_site_type_symbol
  _atom_site_label
  _atom_site_symmetry_multiplicity
  _atom_site_fract_x
  _atom_site_fract_y
  _atom_site_fract_z
  _atom_site_occupancy
  H   H1        1.0  0.00503  0.08541  0.37059  1.0000
  H   H2        1.0  0.99496  0.91458  0.62941  1.0000
  H   H3        1.0  0.17425  0.82955  0.30312  1.0000
  H   H4        1.0  0.82574  0.17045  0.69689  1.0000
  H   H5        1.0  0.03637  0.69171  0.27255  1.0000
  H   H6        1.0  0.96362  0.30828  0.72745  1.0000
  H   H7        1.0  0.72862  0.79960  0.32073  1.0000
  H   H8        1.0  0.27137  0.20040  0.67925  1.0000
  H   H9        1.0  0.56193  0.05474  0.38679  1.0000
  H   H10       1.0  0.43806  0.94526  0.61320  1.0000
  H   H11       1.0  0.60714  0.34274  0.93079  1.0000
  H   H12       1.0  0.39283  0.65730  0.06923  1.0000
  H   H13       1.0  0.57417  0.20562  0.16953  1.0000
  H   H14       1.0  0.42580  0.79441  0.83049  1.0000
  H   H15       1.0  0.37482  0.07551  0.27572  1.0000
  H   H16       1.0  0.62518  0.92449  0.72429  1.0000
  H   H17       1.0  0.20838  0.08513  0.14205  1.0000
  H   H18       1.0  0.79165  0.91485  0.85795  1.0000
  H   H19       1.0  0.23825  0.22642  0.90610  1.0000
  H   H20       1.0  0.76177  0.77356  0.09390  1.0000
  H   H21       1.0  0.72465  0.63129  0.66609  1.0000
  H   H22       1.0  0.27534  0.36871  0.33392  1.0000
  H   H23       1.0  0.00808  0.38294  0.32370  1.0000
  H   H24       1.0  0.99191  0.61706  0.67631  1.0000
  Rh  Rh1       1.0  0.62521  0.50669  0.49653  1.0000
  Rh  Rh2       1.0  0.37479  0.49330  0.50347  1.0000
  C   C1        1.0  0.67602  0.23761  0.41682  1.0000
  C   C2        1.0  0.32397  0.76238  0.58318  1.0000
  C   C3        1.0  0.77490  0.08572  0.37910  1.0000
  C   C4        1.0  0.22509  0.91428  0.62089  1.0000
  C   C5        1.0  0.94719  0.02216  0.35703  1.0000
  C   C6        1.0  0.05280  0.97783  0.64297  1.0000
  C   C7        1.0  0.04061  0.88030  0.31959  1.0000
  C   C8        1.0  0.95937  0.11969  0.68041  1.0000
  C   C9        1.0  0.96225  0.80164  0.30424  1.0000
  C   C10       1.0  0.03774  0.19835  0.69575  1.0000
  C   C11       1.0  0.78994  0.86292  0.32916  1.0000
  C   C12       1.0  0.21004  0.13708  0.67083  1.0000
  C   C13       1.0  0.69642  0.00484  0.36642  1.0000
  C   C14       1.0  0.30357  0.99515  0.63357  1.0000
  C   C15       1.0  0.44652  0.37367  0.76068  1.0000
  C   C16       1.0  0.55348  0.62632  0.23932  1.0000
  C   C17       1.0  0.42460  0.29305  0.90401  1.0000
  C   C18       1.0  0.57539  0.70695  0.09600  1.0000
  C   C19       1.0  0.51954  0.28657  0.97849  1.0000
  C   C20       1.0  0.48044  0.71344  0.02152  1.0000
  C   C21       1.0  0.50067  0.20950  0.11209  1.0000
  C   C22       1.0  0.49932  0.79051  0.88792  1.0000
  C   C23       1.0  0.38864  0.13691  0.17147  1.0000
  C   C24       1.0  0.61135  0.86309  0.82854  1.0000
  C   C25       1.0  0.29439  0.14274  0.09730  1.0000
  C   C26       1.0  0.70563  0.85725  0.90270  1.0000
  C   C27       1.0  0.31130  0.22125  0.96444  1.0000
  C   C28       1.0  0.68871  0.77874  0.03556  1.0000
  C   C29       1.0  0.84829  0.57267  0.59197  1.0000
  C   C30       1.0  0.15171  0.42733  0.40804  1.0000
  C   C31       1.0  0.00519  0.43559  0.40202  1.0000
  C   C32       1.0  0.99482  0.56440  0.59798  1.0000
  N   N1        1.0  0.85265  0.50843  0.49407  1.0000
  N   N2        1.0  0.14732  0.49157  0.50594  1.0000
  O   O1        1.0  0.75493  0.30452  0.42901  1.0000
  O   O2        1.0  0.24506  0.69548  0.57097  1.0000
  O   O3        1.0  0.51895  0.29103  0.43512  1.0000
  O   O4        1.0  0.48103  0.70896  0.56491  1.0000
  O   O5        1.0  0.57395  0.41226  0.70023  1.0000
  O   O6        1.0  0.42606  0.58772  0.29977  1.0000
  O   O7        1.0  0.66134  0.60258  0.29347  1.0000
  O   O8        1.0  0.33865  0.39743  0.70655  1.0000
  O   O9        1.0  0.92531  0.02178  0.00779  1.0000
  O   O10       1.0  0.07489  0.97827  0.99217  1.0000
  O   O11       1.0  0.89474  0.40071  0.96796  1.0000
  O   O12       1.0  0.10532  0.59929  0.03202  1.0000
  O   O13       1.0  0.82861  0.33878  0.08240  1.0000
  O   O14       1.0  0.17135  0.66127  0.91758  1.0000
