data_image0
_chemical_formula_structural       Ni2H36C20N4O16
_chemical_formula_sum              "Ni2 H36 C20 N4 O16"
_cell_length_a       9.50252
_cell_length_b       9.48834
_cell_length_c       9.41529
_cell_angle_alpha    97.2229
_cell_angle_beta     120.266
_cell_angle_gamma    90.0088

_space_group_name_H-M_alt    "P 1"
_space_group_IT_number       1

loop_
  _space_group_symop_operation_xyz
  'x, y, z'

loop_
  _atom_site_type_symbol
  _atom_site_label
  _atom_site_symmetry_multiplicity
  _atom_site_fract_x
  _atom_site_fract_y
  _atom_site_fract_z
  _atom_site_occupancy
  Ni  Ni1       1.0  0.22941  0.24995  0.99995  1.0000
  Ni  Ni2       1.0  0.77059  0.75006  0.00005  1.0000
  H   H1        1.0  0.54297  0.36815  0.18349  1.0000
  H   H2        1.0  0.35957  0.13193  0.81627  1.0000
  H   H3        1.0  0.45703  0.63185  0.81650  1.0000
  H   H4        1.0  0.64043  0.86807  0.18374  1.0000
  H   H5        1.0  0.52049  0.20098  0.19650  1.0000
  H   H6        1.0  0.32411  0.29910  0.80336  1.0000
  H   H7        1.0  0.47950  0.79901  0.80350  1.0000
  H   H8        1.0  0.67589  0.70090  0.19664  1.0000
  H   H9        1.0  0.54503  0.38014  0.49419  1.0000
  H   H10       1.0  0.05037  0.11990  0.50592  1.0000
  H   H11       1.0  0.45497  0.61986  0.50582  1.0000
  H   H12       1.0  0.94964  0.88010  0.49408  1.0000
  H   H13       1.0  0.67037  0.47576  0.70060  1.0000
  H   H14       1.0  0.96944  0.02406  0.29955  1.0000
  H   H15       1.0  0.32962  0.52423  0.29941  1.0000
  H   H16       1.0  0.03056  0.97593  0.70045  1.0000
  H   H17       1.0  0.51823  0.34185  0.66086  1.0000
  H   H18       1.0  0.85699  0.15797  0.33925  1.0000
  H   H19       1.0  0.48177  0.65815  0.33915  1.0000
  H   H20       1.0  0.14301  0.84203  0.66075  1.0000
  H   H21       1.0  0.91414  0.40167  0.85669  1.0000
  H   H22       1.0  0.05711  0.09805  0.14323  1.0000
  H   H23       1.0  0.08585  0.59833  0.14331  1.0000
  H   H24       1.0  0.94289  0.90195  0.85677  1.0000
  H   H25       1.0  0.54689  0.12408  0.46923  1.0000
  H   H26       1.0  0.07717  0.37593  0.53067  1.0000
  H   H27       1.0  0.45311  0.87592  0.53077  1.0000
  H   H28       1.0  0.92283  0.62407  0.46933  1.0000
  H   H29       1.0  0.68612  0.04541  0.64864  1.0000
  H   H30       1.0  0.03703  0.45446  0.35111  1.0000
  H   H31       1.0  0.31388  0.95459  0.35136  1.0000
  H   H32       1.0  0.96297  0.54553  0.64889  1.0000
  H   H33       1.0  0.74807  0.09412  0.51090  1.0000
  H   H34       1.0  0.23657  0.40574  0.48871  1.0000
  H   H35       1.0  0.25192  0.90587  0.48910  1.0000
  H   H36       1.0  0.76343  0.59426  0.51129  1.0000
  C   C1        1.0  0.28534  0.53454  0.92040  1.0000
  C   C2        1.0  0.36491  0.96546  0.07978  1.0000
  C   C3        1.0  0.71466  0.46546  0.07960  1.0000
  C   C4        1.0  0.63509  0.03454  0.92021  1.0000
  C   C5        1.0  0.60836  0.37269  0.62755  1.0000
  C   C6        1.0  0.98038  0.12717  0.37253  1.0000
  C   C7        1.0  0.39164  0.62731  0.37245  1.0000
  C   C8        1.0  0.01962  0.87283  0.62748  1.0000
  C   C9        1.0  0.88225  0.29334  0.78667  1.0000
  C   C10       1.0  0.09520  0.20638  0.21323  1.0000
  C   C11       1.0  0.11775  0.70666  0.21333  1.0000
  C   C12       1.0  0.90480  0.79361  0.78677  1.0000
  C   C13       1.0  0.30412  0.68646  0.97449  1.0000
  C   C14       1.0  0.32975  0.81354  0.02588  1.0000
  C   C15       1.0  0.69588  0.31354  0.02550  1.0000
  C   C16       1.0  0.67026  0.18648  0.97412  1.0000
  C   C17       1.0  0.67422  0.12428  0.56782  1.0000
  C   C18       1.0  0.10586  0.37564  0.43196  1.0000
  C   C19       1.0  0.32578  0.87572  0.43218  1.0000
  C   C20       1.0  0.89414  0.62436  0.56804  1.0000
  N   N1        1.0  0.72796  0.26658  0.66317  1.0000
  N   N2        1.0  0.06424  0.23329  0.33669  1.0000
  N   N3        1.0  0.27203  0.73342  0.33683  1.0000
  N   N4        1.0  0.93576  0.76671  0.66332  1.0000
  O   O1        1.0  0.47595  0.29579  0.19675  1.0000
  O   O2        1.0  0.27931  0.20425  0.80302  1.0000
  O   O3        1.0  0.52404  0.70421  0.80324  1.0000
  O   O4        1.0  0.72069  0.79575  0.19698  1.0000
  O   O5        1.0  0.98446  0.19979  0.82027  1.0000
  O   O6        1.0  0.16383  0.29991  0.17955  1.0000
  O   O7        1.0  0.01555  0.80021  0.17973  1.0000
  O   O8        1.0  0.83617  0.70008  0.82045  1.0000
  O   O9        1.0  0.34253  0.48920  0.82802  1.0000
  O   O10       1.0  0.51439  0.01081  0.17209  1.0000
  O   O11       1.0  0.65747  0.51080  0.17197  1.0000
  O   O12       1.0  0.48562  0.98919  0.82791  1.0000
  O   O13       1.0  0.21344  0.46189  0.97345  1.0000
  O   O14       1.0  0.24006  0.03811  0.02661  1.0000
  O   O15       1.0  0.78656  0.53812  0.02654  1.0000
  O   O16       1.0  0.75995  0.96190  0.97339  1.0000
