data_image0
_chemical_formula_structural       Zn2H36C20N4O16
_chemical_formula_sum              "Zn2 H36 C20 N4 O16"
_cell_length_a       9.531
_cell_length_b       9.55855
_cell_length_c       9.49351
_cell_angle_alpha    97.868
_cell_angle_beta     120.131
_cell_angle_gamma    90.0004

_space_group_name_H-M_alt    "P 1"
_space_group_IT_number       1

loop_
  _space_group_symop_operation_xyz
  'x, y, z'

loop_
  _atom_site_type_symbol
  _atom_site_label
  _atom_site_symmetry_multiplicity
  _atom_site_fract_x
  _atom_site_fract_y
  _atom_site_fract_z
  _atom_site_occupancy
  Zn  Zn1       1.0  0.23024  0.25000  1.00000  1.0000
  Zn  Zn2       1.0  0.76975  0.75000  1.00000  1.0000
  H   H1        1.0  0.54749  0.36813  0.18963  1.0000
  H   H2        1.0  0.35787  0.13187  0.81037  1.0000
  H   H3        1.0  0.45251  0.63187  0.81037  1.0000
  H   H4        1.0  0.64213  0.86814  0.18963  1.0000
  H   H5        1.0  0.52328  0.20215  0.20056  1.0000
  H   H6        1.0  0.32272  0.29784  0.79944  1.0000
  H   H7        1.0  0.47672  0.79784  0.79944  1.0000
  H   H8        1.0  0.67729  0.70216  0.20056  1.0000
  H   H9        1.0  0.91118  0.40435  0.85284  1.0000
  H   H10       1.0  0.05834  0.09565  0.14716  1.0000
  H   H11       1.0  0.08882  0.59566  0.14716  1.0000
  H   H12       1.0  0.94166  0.90435  0.85284  1.0000
  H   H13       1.0  0.54478  0.37785  0.49252  1.0000
  H   H14       1.0  0.05226  0.12215  0.50748  1.0000
  H   H15       1.0  0.45521  0.62216  0.50748  1.0000
  H   H16       1.0  0.94774  0.87785  0.49252  1.0000
  H   H17       1.0  0.66946  0.47640  0.69657  1.0000
  H   H18       1.0  0.97289  0.02360  0.30343  1.0000
  H   H19       1.0  0.33054  0.52360  0.30343  1.0000
  H   H20       1.0  0.02711  0.97640  0.69657  1.0000
  H   H21       1.0  0.51720  0.34430  0.65847  1.0000
  H   H22       1.0  0.85873  0.15570  0.34153  1.0000
  H   H23       1.0  0.48280  0.65570  0.34153  1.0000
  H   H24       1.0  0.14127  0.84430  0.65847  1.0000
  H   H25       1.0  0.54674  0.12400  0.46880  1.0000
  H   H26       1.0  0.07794  0.37601  0.53120  1.0000
  H   H27       1.0  0.45326  0.87601  0.53119  1.0000
  H   H28       1.0  0.92206  0.62399  0.46880  1.0000
  H   H29       1.0  0.68082  0.04873  0.64909  1.0000
  H   H30       1.0  0.03174  0.45127  0.35090  1.0000
  H   H31       1.0  0.31917  0.95127  0.35090  1.0000
  H   H32       1.0  0.96827  0.54873  0.64910  1.0000
  H   H33       1.0  0.74829  0.09210  0.51543  1.0000
  H   H34       1.0  0.23286  0.40789  0.48457  1.0000
  H   H35       1.0  0.25171  0.90790  0.48457  1.0000
  H   H36       1.0  0.76715  0.59210  0.51544  1.0000
  C   C1        1.0  0.28767  0.53523  0.92108  1.0000
  C   C2        1.0  0.36659  0.96476  0.07893  1.0000
  C   C3        1.0  0.71235  0.46477  0.07894  1.0000
  C   C4        1.0  0.63341  0.03524  0.92107  1.0000
  C   C5        1.0  0.30624  0.68661  0.97486  1.0000
  C   C6        1.0  0.33138  0.81338  0.02515  1.0000
  C   C7        1.0  0.69378  0.31338  0.02516  1.0000
  C   C8        1.0  0.66862  0.18662  0.97485  1.0000
  C   C9        1.0  0.87980  0.29544  0.78489  1.0000
  C   C10       1.0  0.09490  0.20456  0.21511  1.0000
  C   C11       1.0  0.12021  0.70456  0.21511  1.0000
  C   C12       1.0  0.90509  0.79545  0.78489  1.0000
  C   C13       1.0  0.60743  0.37305  0.62518  1.0000
  C   C14       1.0  0.98224  0.12695  0.37482  1.0000
  C   C15       1.0  0.39257  0.62695  0.37482  1.0000
  C   C16       1.0  0.01776  0.87304  0.62518  1.0000
  C   C17       1.0  0.67244  0.12487  0.56882  1.0000
  C   C18       1.0  0.10364  0.37513  0.43118  1.0000
  C   C19       1.0  0.32755  0.87514  0.43117  1.0000
  C   C20       1.0  0.89637  0.62487  0.56883  1.0000
  N   N1        1.0  0.72621  0.26761  0.66213  1.0000
  N   N2        1.0  0.06408  0.23239  0.33786  1.0000
  N   N3        1.0  0.27379  0.73240  0.33786  1.0000
  N   N4        1.0  0.93592  0.76761  0.66213  1.0000
  O   O1        1.0  0.47883  0.29617  0.19987  1.0000
  O   O2        1.0  0.27896  0.20383  0.80013  1.0000
  O   O3        1.0  0.52117  0.70383  0.80013  1.0000
  O   O4        1.0  0.72104  0.79618  0.19986  1.0000
  O   O5        1.0  0.98128  0.20280  0.81970  1.0000
  O   O6        1.0  0.16157  0.29719  0.18028  1.0000
  O   O7        1.0  0.01871  0.79720  0.18028  1.0000
  O   O8        1.0  0.83842  0.70281  0.81971  1.0000
  O   O9        1.0  0.21888  0.46296  0.97572  1.0000
  O   O10       1.0  0.24316  0.03702  0.02428  1.0000
  O   O11       1.0  0.78114  0.53704  0.02430  1.0000
  O   O12       1.0  0.75684  0.96297  0.97571  1.0000
  O   O13       1.0  0.34169  0.48988  0.82640  1.0000
  O   O14       1.0  0.51528  0.01011  0.17359  1.0000
  O   O15       1.0  0.65833  0.51012  0.17362  1.0000
  O   O16       1.0  0.48472  0.98990  0.82640  1.0000
