data_image0
_chemical_formula_structural       Zn2H56C60S4N20
_chemical_formula_sum              "Zn2 H56 C60 S4 N20"
_cell_length_a       9.57165
_cell_length_b       13.2874
_cell_length_c       13.8457
_cell_angle_alpha    72.1201
_cell_angle_beta     69.7786
_cell_angle_gamma    68.8864

_space_group_name_H-M_alt    "P 1"
_space_group_IT_number       1

loop_
  _space_group_symop_operation_xyz
  'x, y, z'

loop_
  _atom_site_type_symbol
  _atom_site_label
  _atom_site_symmetry_multiplicity
  _atom_site_fract_x
  _atom_site_fract_y
  _atom_site_fract_z
  _atom_site_occupancy
  Zn  Zn1       1.0  0.48054  0.75004  0.24994  1.0000
  Zn  Zn2       1.0  0.51946  0.24996  0.75006  1.0000
  H   H1        1.0  0.84557  0.66691  0.15370  1.0000
  H   H2        1.0  0.66610  0.83316  0.34607  1.0000
  H   H3        1.0  0.15443  0.33309  0.84630  1.0000
  H   H4        1.0  0.33390  0.16684  0.65393  1.0000
  H   H5        1.0  0.06735  0.50932  0.19882  1.0000
  H   H6        1.0  0.77543  0.99075  0.30086  1.0000
  H   H7        1.0  0.93265  0.49068  0.80118  1.0000
  H   H8        1.0  0.22457  0.00925  0.69914  1.0000
  H   H9        1.0  0.73872  0.38873  0.47598  1.0000
  H   H10       1.0  0.60305  0.11133  0.02380  1.0000
  H   H11       1.0  0.26128  0.61127  0.52402  1.0000
  H   H12       1.0  0.39695  0.88867  0.97620  1.0000
  H   H13       1.0  0.53311  0.55313  0.42018  1.0000
  H   H14       1.0  0.50609  0.94690  0.07971  1.0000
  H   H15       1.0  0.46689  0.44687  0.57982  1.0000
  H   H16       1.0  0.49391  0.05310  0.92029  1.0000
  H   H17       1.0  0.37091  0.07582  0.42852  1.0000
  H   H18       1.0  0.87516  0.42428  0.07108  1.0000
  H   H19       1.0  0.62909  0.92418  0.57147  1.0000
  H   H20       1.0  0.12484  0.57572  0.92892  1.0000
  H   H21       1.0  0.27689  0.12342  0.32525  1.0000
  H   H22       1.0  0.72549  0.37677  0.17442  1.0000
  H   H23       1.0  0.72311  0.87658  0.67475  1.0000
  H   H24       1.0  0.27451  0.62323  0.82558  1.0000
  H   H25       1.0  0.08253  0.07763  0.49436  1.0000
  H   H26       1.0  0.65411  0.42254  0.00544  1.0000
  H   H27       1.0  0.91747  0.92237  0.50564  1.0000
  H   H28       1.0  0.34589  0.57746  0.99456  1.0000
  H   H29       1.0  0.12756  0.16138  0.55080  1.0000
  H   H30       1.0  0.83930  0.33878  0.94891  1.0000
  H   H31       1.0  0.87244  0.83862  0.44920  1.0000
  H   H32       1.0  0.16070  0.66122  0.05109  1.0000
  H   H33       1.0  0.46817  0.37268  0.21984  1.0000
  H   H34       1.0  0.06028  0.12757  0.27992  1.0000
  H   H35       1.0  0.53183  0.62732  0.78016  1.0000
  H   H36       1.0  0.93972  0.87243  0.72008  1.0000
  H   H37       1.0  0.55991  0.54057  0.17349  1.0000
  H   H38       1.0  0.27386  0.95983  0.32619  1.0000
  H   H39       1.0  0.44009  0.45943  0.82651  1.0000
  H   H40       1.0  0.72614  0.04017  0.67381  1.0000
  H   H41       1.0  0.16257  0.69950  0.37268  1.0000
  H   H42       1.0  0.23448  0.80057  0.12737  1.0000
  H   H43       1.0  0.83743  0.30050  0.62732  1.0000
  H   H44       1.0  0.76552  0.19943  0.87264  1.0000
  H   H45       1.0  0.05032  0.54297  0.42330  1.0000
  H   H46       1.0  0.01625  0.95698  0.07672  1.0000
  H   H47       1.0  0.94968  0.45703  0.57670  1.0000
  H   H48       1.0  0.98375  0.04302  0.92328  1.0000
  H   H49       1.0  0.92596  0.23036  0.41298  1.0000
  H   H50       1.0  0.56893  0.26979  0.08686  1.0000
  H   H51       1.0  0.07404  0.76964  0.58702  1.0000
  H   H52       1.0  0.43107  0.73021  0.91314  1.0000
  H   H53       1.0  0.41424  0.24444  0.38460  1.0000
  H   H54       1.0  0.04304  0.25560  0.11522  1.0000
  H   H55       1.0  0.58576  0.75557  0.61540  1.0000
  H   H56       1.0  0.95696  0.74440  0.88478  1.0000
  C   C1        1.0  0.82831  0.60462  0.22612  1.0000
  C   C2        1.0  0.65895  0.89546  0.27364  1.0000
  C   C3        1.0  0.17169  0.39538  0.77388  1.0000
  C   C4        1.0  0.34105  0.10455  0.72636  1.0000
  C   C5        1.0  0.95148  0.51696  0.25206  1.0000
  C   C6        1.0  0.72037  0.98311  0.24765  1.0000
  C   C7        1.0  0.04852  0.48304  0.74794  1.0000
  C   C8        1.0  0.27963  0.01689  0.75235  1.0000
  C   C9        1.0  0.92508  0.43664  0.34566  1.0000
  C   C10       1.0  0.70716  0.06344  0.15406  1.0000
  C   C11       1.0  0.07492  0.56336  0.65434  1.0000
  C   C12       1.0  0.29284  0.93656  0.84594  1.0000
  C   C13       1.0  0.76899  0.44888  0.40473  1.0000
  C   C14       1.0  0.62234  0.05117  0.09504  1.0000
  C   C15       1.0  0.23101  0.55112  0.59527  1.0000
  C   C16       1.0  0.37767  0.94883  0.90496  1.0000
  C   C17       1.0  0.65364  0.53986  0.37363  1.0000
  C   C18       1.0  0.56690  0.96019  0.12618  1.0000
  C   C19       1.0  0.34636  0.46014  0.62637  1.0000
  C   C20       1.0  0.43310  0.03981  0.87382  1.0000
  C   C21       1.0  0.04744  0.34258  0.37947  1.0000
  C   C22       1.0  0.76919  0.15754  0.12026  1.0000
  C   C23       1.0  0.95256  0.65742  0.62053  1.0000
  C   C24       1.0  0.23081  0.84246  0.87973  1.0000
  C   C25       1.0  0.28001  0.14214  0.39651  1.0000
  C   C26       1.0  0.81850  0.35799  0.10315  1.0000
  C   C27       1.0  0.71999  0.85786  0.60349  1.0000
  C   C28       1.0  0.18150  0.64201  0.89685  1.0000
  C   C29       1.0  0.11906  0.15213  0.47669  1.0000
  C   C30       1.0  0.74752  0.34802  0.02306  1.0000
  C   C31       1.0  0.88094  0.84787  0.52331  1.0000
  C   C32       1.0  0.25248  0.65198  0.97694  1.0000
  C   C33       1.0  0.20047  0.34318  0.35833  1.0000
  C   C34       1.0  0.90166  0.15692  0.14143  1.0000
  C   C35       1.0  0.79953  0.65682  0.64166  1.0000
  C   C36       1.0  0.09834  0.84308  0.85857  1.0000
  C   C37       1.0  0.25057  0.44302  0.32563  1.0000
  C   C38       1.0  0.01885  0.05710  0.17423  1.0000
  C   C39       1.0  0.74943  0.55698  0.67437  1.0000
  C   C40       1.0  0.98115  0.94290  0.82577  1.0000
  C   C41       1.0  0.39699  0.44400  0.25476  1.0000
  C   C42       1.0  0.09541  0.05621  0.24506  1.0000
  C   C43       1.0  0.60300  0.55600  0.74524  1.0000
  C   C44       1.0  0.90459  0.94379  0.75495  1.0000
  C   C45       1.0  0.44811  0.53641  0.22910  1.0000
  C   C46       1.0  0.21347  0.96391  0.27064  1.0000
  C   C47       1.0  0.55189  0.46360  0.77090  1.0000
  C   C48       1.0  0.78653  0.03609  0.72937  1.0000
  C   C49       1.0  0.22491  0.62652  0.33833  1.0000
  C   C50       1.0  0.18953  0.87361  0.16161  1.0000
  C   C51       1.0  0.77509  0.37348  0.66168  1.0000
  C   C52       1.0  0.81047  0.12638  0.83840  1.0000
  C   C53       1.0  0.16347  0.53851  0.36685  1.0000
  C   C54       1.0  0.06850  0.96153  0.13312  1.0000
  C   C55       1.0  0.83652  0.46149  0.63315  1.0000
  C   C56       1.0  0.93150  0.03847  0.86688  1.0000
  C   C57       1.0  0.36301  0.78544  0.49275  1.0000
  C   C58       1.0  0.64132  0.71455  0.00718  1.0000
  C   C59       1.0  0.63699  0.21456  0.50725  1.0000
  C   C60       1.0  0.35868  0.28545  0.99282  1.0000
  S   S1        1.0  0.30810  0.82151  0.60522  1.0000
  S   S2        1.0  0.73503  0.67849  0.89472  1.0000
  S   S3        1.0  0.69190  0.17848  0.39479  1.0000
  S   S4        1.0  0.26497  0.32151  0.10528  1.0000
  N   N1        1.0  0.68065  0.61789  0.28630  1.0000
  N   N2        1.0  0.58466  0.88217  0.21352  1.0000
  N   N3        1.0  0.31935  0.38211  0.71370  1.0000
  N   N4        1.0  0.41534  0.11783  0.78649  1.0000
  N   N5        1.0  0.00411  0.24680  0.43653  1.0000
  N   N6        1.0  0.68709  0.25335  0.06325  1.0000
  N   N7        1.0  0.99589  0.75320  0.56347  1.0000
  N   N8        1.0  0.31291  0.74665  0.93675  1.0000
  N   N9        1.0  0.31632  0.24527  0.36982  1.0000
  N   N10       1.0  0.93120  0.25482  0.12980  1.0000
  N   N11       1.0  0.68368  0.75473  0.63018  1.0000
  N   N12       1.0  0.06880  0.74518  0.87019  1.0000
  N   N13       1.0  0.36579  0.62595  0.27112  1.0000
  N   N14       1.0  0.26279  0.87433  0.22866  1.0000
  N   N15       1.0  0.63421  0.37405  0.72888  1.0000
  N   N16       1.0  0.73720  0.12567  0.77134  1.0000
  N   N17       1.0  0.39968  0.75698  0.41208  1.0000
  N   N18       1.0  0.56883  0.74298  0.08785  1.0000
  N   N19       1.0  0.60033  0.24302  0.58792  1.0000
  N   N20       1.0  0.43117  0.25702  0.91214  1.0000
