data_image0
_chemical_formula_structural       Zn12H24C24O48
_chemical_formula_sum              "Zn12 H24 C24 O48"
_cell_length_a       9.99904
_cell_length_b       11.444
_cell_length_c       14.6698
_cell_angle_alpha    91.3919
_cell_angle_beta     90.0002
_cell_angle_gamma    90

_space_group_name_H-M_alt    "P 1"
_space_group_IT_number       1

loop_
  _space_group_symop_operation_xyz
  'x, y, z'

loop_
  _atom_site_type_symbol
  _atom_site_label
  _atom_site_symmetry_multiplicity
  _atom_site_fract_x
  _atom_site_fract_y
  _atom_site_fract_z
  _atom_site_occupancy
  Zn  Zn1       1.0  0.88328  0.24212  0.31078  1.0000
  Zn  Zn2       1.0  0.38328  0.25787  0.18922  1.0000
  Zn  Zn3       1.0  0.11672  0.75788  0.68922  1.0000
  Zn  Zn4       1.0  0.61672  0.74212  0.81078  1.0000
  Zn  Zn5       1.0  0.57164  0.24301  0.36799  1.0000
  Zn  Zn6       1.0  0.07164  0.25699  0.13201  1.0000
  Zn  Zn7       1.0  0.42836  0.75699  0.63201  1.0000
  Zn  Zn8       1.0  0.92836  0.74301  0.86799  1.0000
  Zn  Zn9       1.0  0.50001  0.50000  0.50000  1.0000
  Zn  Zn10      1.0  1.00000  0.00000  1.00000  1.0000
  Zn  Zn11      1.0  0.50000  0.00000  0.50000  1.0000
  Zn  Zn12      1.0  1.00000  0.50000  1.00000  1.0000
  H   H1        1.0  0.79125  0.99137  0.48549  1.0000
  H   H2        1.0  0.29125  0.50863  0.01452  1.0000
  H   H3        1.0  0.20875  0.00864  0.51452  1.0000
  H   H4        1.0  0.70875  0.49137  0.98548  1.0000
  H   H5        1.0  0.74574  0.14002  0.12468  1.0000
  H   H6        1.0  0.24575  0.35997  0.37532  1.0000
  H   H7        1.0  0.25425  0.85997  0.87532  1.0000
  H   H8        1.0  0.75425  0.64003  0.62468  1.0000
  H   H9        1.0  0.89350  0.44199  0.45352  1.0000
  H   H10       1.0  0.39350  0.05801  0.04647  1.0000
  H   H11       1.0  0.10650  0.55801  0.54647  1.0000
  H   H12       1.0  0.60650  0.94199  0.95352  1.0000
  H   H13       1.0  0.34021  0.31242  0.58358  1.0000
  H   H14       1.0  0.84021  0.18758  0.91642  1.0000
  H   H15       1.0  0.65979  0.68759  0.41642  1.0000
  H   H16       1.0  0.15978  0.81242  0.08358  1.0000
  H   H17       1.0  0.27657  0.02279  0.27013  1.0000
  H   H18       1.0  0.77657  0.47721  0.22987  1.0000
  H   H19       1.0  0.72343  0.97721  0.72987  1.0000
  H   H20       1.0  0.22343  0.52279  0.77013  1.0000
  H   H21       1.0  0.44252  0.52591  0.22767  1.0000
  H   H22       1.0  0.94251  0.97408  0.27233  1.0000
  H   H23       1.0  0.55749  0.47408  0.77233  1.0000
  H   H24       1.0  0.05748  0.02592  0.72767  1.0000
  C   C1        1.0  0.77437  0.06695  0.44175  1.0000
  C   C2        1.0  0.27436  0.43305  0.05826  1.0000
  C   C3        1.0  0.22563  0.93305  0.55826  1.0000
  C   C4        1.0  0.72563  0.56695  0.94174  1.0000
  C   C5        1.0  0.66304  0.17231  0.16837  1.0000
  C   C6        1.0  0.16305  0.32768  0.33163  1.0000
  C   C7        1.0  0.33696  0.82768  0.83164  1.0000
  C   C8        1.0  0.83696  0.67232  0.66836  1.0000
  C   C9        1.0  0.78453  0.42646  0.44816  1.0000
  C   C10       1.0  0.28452  0.07354  0.05184  1.0000
  C   C11       1.0  0.21548  0.57354  0.55184  1.0000
  C   C12       1.0  0.71548  0.92647  0.94816  1.0000
  C   C13       1.0  0.40018  0.25686  0.53661  1.0000
  C   C14       1.0  0.90018  0.24314  0.96339  1.0000
  C   C15       1.0  0.59982  0.74314  0.46339  1.0000
  C   C16       1.0  0.09981  0.75686  0.03661  1.0000
  C   C17       1.0  0.35527  0.04878  0.31989  1.0000
  C   C18       1.0  0.85526  0.45123  0.18011  1.0000
  C   C19       1.0  0.64473  0.95123  0.68011  1.0000
  C   C20       1.0  0.14473  0.54877  0.81989  1.0000
  C   C21       1.0  0.47286  0.48131  0.29049  1.0000
  C   C22       1.0  0.97285  0.01870  0.20951  1.0000
  C   C23       1.0  0.52715  0.51869  0.70951  1.0000
  C   C24       1.0  0.02715  0.98131  0.79049  1.0000
  O   O1        1.0  0.87433  0.11064  0.40371  1.0000
  O   O2        1.0  0.37433  0.38936  0.09629  1.0000
  O   O3        1.0  0.12567  0.88936  0.59629  1.0000
  O   O4        1.0  0.62567  0.61064  0.90371  1.0000
  O   O5        1.0  0.65200  0.10078  0.43480  1.0000
  O   O6        1.0  0.15200  0.39922  0.06521  1.0000
  O   O7        1.0  0.34800  0.89922  0.56520  1.0000
  O   O8        1.0  0.84800  0.60078  0.93479  1.0000
  O   O9        1.0  0.69125  0.19577  0.25212  1.0000
  O   O10       1.0  0.19125  0.30423  0.24788  1.0000
  O   O11       1.0  0.30875  0.80423  0.74789  1.0000
  O   O12       1.0  0.80875  0.69577  0.75211  1.0000
  O   O13       1.0  0.55007  0.18165  0.13143  1.0000
  O   O14       1.0  0.05008  0.31834  0.36858  1.0000
  O   O15       1.0  0.44992  0.81834  0.86858  1.0000
  O   O16       1.0  0.94993  0.68166  0.63142  1.0000
  O   O17       1.0  0.74870  0.34809  0.38861  1.0000
  O   O18       1.0  0.24869  0.15191  0.11139  1.0000
  O   O19       1.0  0.25131  0.65191  0.61139  1.0000
  O   O20       1.0  0.75130  0.84809  0.88861  1.0000
  O   O21       1.0  0.70851  0.48585  0.49892  1.0000
  O   O22       1.0  0.20850  0.01415  0.00108  1.0000
  O   O23       1.0  0.29150  0.51415  0.50108  1.0000
  O   O24       1.0  0.79149  0.98586  0.99892  1.0000
  O   O25       1.0  0.47263  0.31291  0.47928  1.0000
  O   O26       1.0  0.97263  0.18710  0.02071  1.0000
  O   O27       1.0  0.52737  0.68710  0.52072  1.0000
  O   O28       1.0  0.02736  0.81291  0.97928  1.0000
  O   O29       1.0  0.39137  0.14854  0.54287  1.0000
  O   O30       1.0  0.89137  0.35146  0.95713  1.0000
  O   O31       1.0  0.60863  0.85146  0.45713  1.0000
  O   O32       1.0  0.10863  0.64854  0.04287  1.0000
  O   O33       1.0  0.41077  0.14808  0.30628  1.0000
  O   O34       1.0  0.91077  0.35192  0.19372  1.0000
  O   O35       1.0  0.58922  0.85192  0.69372  1.0000
  O   O36       1.0  0.08923  0.64808  0.80628  1.0000
  O   O37       1.0  0.38039  0.98025  0.38274  1.0000
  O   O38       1.0  0.88038  0.51974  0.11726  1.0000
  O   O39       1.0  0.61961  0.01975  0.61726  1.0000
  O   O40       1.0  0.11961  0.48025  0.88274  1.0000
  O   O41       1.0  0.48241  0.36944  0.28363  1.0000
  O   O42       1.0  0.98241  0.13056  0.21637  1.0000
  O   O43       1.0  0.51759  0.63055  0.71637  1.0000
  O   O44       1.0  0.01759  0.86944  0.78363  1.0000
  O   O45       1.0  0.49492  0.54236  0.36076  1.0000
  O   O46       1.0  0.99489  0.95765  0.13924  1.0000
  O   O47       1.0  0.50511  0.45764  0.63924  1.0000
  O   O48       1.0  0.00509  0.04236  0.86076  1.0000
