data_image0
_chemical_formula_structural       Cu16H40C32I8N24
_chemical_formula_sum              "Cu16 H40 C32 I8 N24"
_cell_length_a       8.51119
_cell_length_b       12.7083
_cell_length_c       12.7084
_cell_angle_alpha    89.9999
_cell_angle_beta     90.0002
_cell_angle_gamma    90.0001

_space_group_name_H-M_alt    "P 1"
_space_group_IT_number       1

loop_
  _space_group_symop_operation_xyz
  'x, y, z'

loop_
  _atom_site_type_symbol
  _atom_site_label
  _atom_site_symmetry_multiplicity
  _atom_site_fract_x
  _atom_site_fract_y
  _atom_site_fract_z
  _atom_site_occupancy
  Cu  Cu1       1.0  0.36218  0.66755  0.80769  1.0000
  Cu  Cu2       1.0  0.36218  0.83245  0.69230  1.0000
  Cu  Cu3       1.0  0.86218  0.19230  0.16755  1.0000
  Cu  Cu4       1.0  0.86218  0.30769  0.33245  1.0000
  Cu  Cu5       1.0  0.63782  0.33245  0.19230  1.0000
  Cu  Cu6       1.0  0.63783  0.16755  0.30769  1.0000
  Cu  Cu7       1.0  0.13783  0.80770  0.83245  1.0000
  Cu  Cu8       1.0  0.13782  0.69231  0.66755  1.0000
  Cu  Cu9       1.0  0.34301  0.44609  0.65133  1.0000
  Cu  Cu10      1.0  0.34301  0.05391  0.84868  1.0000
  Cu  Cu11      1.0  0.84301  0.34867  0.94610  1.0000
  Cu  Cu12      1.0  0.84300  0.15133  0.55391  1.0000
  Cu  Cu13      1.0  0.65699  0.55391  0.34868  1.0000
  Cu  Cu14      1.0  0.65699  0.94610  0.15132  1.0000
  Cu  Cu15      1.0  0.15700  0.65133  0.05390  1.0000
  Cu  Cu16      1.0  0.15699  0.84867  0.44609  1.0000
  H   H1        1.0  0.61726  0.66949  0.97729  1.0000
  H   H2        1.0  0.61725  0.83051  0.52271  1.0000
  H   H3        1.0  0.11726  0.02271  0.16949  1.0000
  H   H4        1.0  0.11726  0.47729  0.33051  1.0000
  H   H5        1.0  0.38274  0.33051  0.02271  1.0000
  H   H6        1.0  0.38274  0.16949  0.47728  1.0000
  H   H7        1.0  0.88274  0.97729  0.83051  1.0000
  H   H8        1.0  0.88274  0.52272  0.66949  1.0000
  H   H9        1.0  0.80786  0.61117  0.96989  1.0000
  H   H10       1.0  0.80785  0.88883  0.53012  1.0000
  H   H11       1.0  0.30786  0.03012  0.11117  1.0000
  H   H12       1.0  0.30786  0.46988  0.38883  1.0000
  H   H13       1.0  0.19215  0.38883  0.03011  1.0000
  H   H14       1.0  0.19214  0.11117  0.46988  1.0000
  H   H15       1.0  0.69214  0.96988  0.88883  1.0000
  H   H16       1.0  0.69214  0.53012  0.61117  1.0000
  H   H17       1.0  0.66544  0.55650  0.05533  1.0000
  H   H18       1.0  0.66543  0.94350  0.44466  1.0000
  H   H19       1.0  0.16544  0.94467  0.05650  1.0000
  H   H20       1.0  0.16544  0.55533  0.44350  1.0000
  H   H21       1.0  0.33456  0.44350  0.94466  1.0000
  H   H22       1.0  0.33456  0.05650  0.55533  1.0000
  H   H23       1.0  0.83456  0.05533  0.94350  1.0000
  H   H24       1.0  0.83456  0.44467  0.55650  1.0000
  H   H25       1.0  0.54898  0.29936  0.65812  1.0000
  H   H26       1.0  0.54898  0.20064  0.84188  1.0000
  H   H27       1.0  0.04899  0.34188  0.79936  1.0000
  H   H28       1.0  0.04898  0.15812  0.70065  1.0000
  H   H29       1.0  0.45102  0.70064  0.34188  1.0000
  H   H30       1.0  0.45102  0.79935  0.15812  1.0000
  H   H31       1.0  0.95102  0.65812  0.20065  1.0000
  H   H32       1.0  0.95102  0.84188  0.29936  1.0000
  H   H33       1.0  0.75276  0.31018  0.67585  1.0000
  H   H34       1.0  0.75275  0.18981  0.82416  1.0000
  H   H35       1.0  0.25276  0.32416  0.81018  1.0000
  H   H36       1.0  0.25275  0.17584  0.68982  1.0000
  H   H37       1.0  0.24725  0.68982  0.32416  1.0000
  H   H38       1.0  0.24725  0.81018  0.17584  1.0000
  H   H39       1.0  0.74725  0.67585  0.18981  1.0000
  H   H40       1.0  0.74724  0.82416  0.31018  1.0000
  C   C1        1.0  0.62775  0.52581  0.89286  1.0000
  C   C2        1.0  0.62774  0.97419  0.60714  1.0000
  C   C3        1.0  0.12775  0.10714  0.02582  1.0000
  C   C4        1.0  0.12775  0.39286  0.47419  1.0000
  C   C5        1.0  0.37225  0.47419  0.10714  1.0000
  C   C6        1.0  0.37225  0.02581  0.39286  1.0000
  C   C7        1.0  0.87225  0.89286  0.97419  1.0000
  C   C8        1.0  0.87225  0.60714  0.52582  1.0000
  C   C9        1.0  0.61122  0.39601  0.78387  1.0000
  C   C10       1.0  0.61122  0.10399  0.71613  1.0000
  C   C11       1.0  0.11122  0.21613  0.89601  1.0000
  C   C12       1.0  0.11121  0.28387  0.60399  1.0000
  C   C13       1.0  0.38878  0.60399  0.21613  1.0000
  C   C14       1.0  0.38878  0.89600  0.28386  1.0000
  C   C15       1.0  0.88879  0.78387  0.10399  1.0000
  C   C16       1.0  0.88878  0.71613  0.39601  1.0000
  C   C17       1.0  0.68181  0.59498  0.97884  1.0000
  C   C18       1.0  0.68180  0.90502  0.52116  1.0000
  C   C19       1.0  0.18181  0.02117  0.09498  1.0000
  C   C20       1.0  0.18180  0.47884  0.40502  1.0000
  C   C21       1.0  0.31820  0.40502  0.02116  1.0000
  C   C22       1.0  0.31819  0.09498  0.47883  1.0000
  C   C23       1.0  0.81820  0.97883  0.90502  1.0000
  C   C24       1.0  0.81819  0.52117  0.59498  1.0000
  C   C25       1.0  0.64110  0.30133  0.71892  1.0000
  C   C26       1.0  0.64110  0.19867  0.78108  1.0000
  C   C27       1.0  0.14110  0.28108  0.80133  1.0000
  C   C28       1.0  0.14110  0.21892  0.69867  1.0000
  C   C29       1.0  0.35890  0.69867  0.28108  1.0000
  C   C30       1.0  0.35890  0.80133  0.21892  1.0000
  C   C31       1.0  0.85890  0.71892  0.19867  1.0000
  C   C32       1.0  0.85890  0.78108  0.30133  1.0000
  I   I1        1.0  0.41695  0.66611  0.57736  1.0000
  I   I2        1.0  0.41694  0.83389  0.92265  1.0000
  I   I3        1.0  0.91694  0.42264  0.16611  1.0000
  I   I4        1.0  0.91695  0.07736  0.33389  1.0000
  I   I5        1.0  0.58305  0.33389  0.42264  1.0000
  I   I6        1.0  0.58306  0.16611  0.07736  1.0000
  I   I7        1.0  0.08305  0.57736  0.83389  1.0000
  I   I8        1.0  0.08305  0.92264  0.66611  1.0000
  N   N1        1.0  0.51184  0.54892  0.82569  1.0000
  N   N2        1.0  0.51183  0.95108  0.67431  1.0000
  N   N3        1.0  0.01184  0.17431  0.04892  1.0000
  N   N4        1.0  0.01183  0.32569  0.45108  1.0000
  N   N5        1.0  0.48816  0.45108  0.17431  1.0000
  N   N6        1.0  0.48817  0.04892  0.32569  1.0000
  N   N7        1.0  0.98817  0.82569  0.95108  1.0000
  N   N8        1.0  0.98817  0.67431  0.54892  1.0000
  N   N9        1.0  0.49996  0.46526  0.75711  1.0000
  N   N10       1.0  0.49996  0.03474  0.74289  1.0000
  N   N11       1.0  0.99997  0.24289  0.96526  1.0000
  N   N12       1.0  0.99996  0.25711  0.53474  1.0000
  N   N13       1.0  0.50003  0.53474  0.24289  1.0000
  N   N14       1.0  0.50004  0.96526  0.25711  1.0000
  N   N15       1.0  0.00004  0.75711  0.03474  1.0000
  N   N16       1.0  0.00003  0.74289  0.46526  1.0000
  N   N17       1.0  0.69215  0.42950  0.87013  1.0000
  N   N18       1.0  0.69215  0.07050  0.62987  1.0000
  N   N19       1.0  0.19215  0.12987  0.92950  1.0000
  N   N20       1.0  0.19215  0.37013  0.57050  1.0000
  N   N21       1.0  0.30785  0.57050  0.12987  1.0000
  N   N22       1.0  0.30785  0.92950  0.37013  1.0000
  N   N23       1.0  0.80785  0.87013  0.07050  1.0000
  N   N24       1.0  0.80785  0.62987  0.42950  1.0000
