data_image0
_chemical_formula_structural       Cd4H48C56O24
_chemical_formula_sum              "Cd4 H48 C56 O24"
_cell_length_a       7.37409
_cell_length_b       11.8151
_cell_length_c       15.6969
_cell_angle_alpha    90
_cell_angle_beta     95.3599
_cell_angle_gamma    89.9997

_space_group_name_H-M_alt    "P 1"
_space_group_IT_number       1

loop_
  _space_group_symop_operation_xyz
  'x, y, z'

loop_
  _atom_site_type_symbol
  _atom_site_label
  _atom_site_symmetry_multiplicity
  _atom_site_fract_x
  _atom_site_fract_y
  _atom_site_fract_z
  _atom_site_occupancy
  Cd  Cd1       1.0  0.74950  0.70074  0.74735  1.0000
  Cd  Cd2       1.0  0.75050  0.20074  0.25264  1.0000
  Cd  Cd3       1.0  0.25050  0.29926  0.25264  1.0000
  Cd  Cd4       1.0  0.24950  0.79926  0.74735  1.0000
  H   H1        1.0  0.29402  0.59837  0.00065  1.0000
  H   H2        1.0  0.20598  0.09837  0.99935  1.0000
  H   H3        1.0  0.70598  0.40163  0.99935  1.0000
  H   H4        1.0  0.79402  0.90163  0.00065  1.0000
  H   H5        1.0  0.47356  0.53833  0.81900  1.0000
  H   H6        1.0  0.02644  0.03833  0.18100  1.0000
  H   H7        1.0  0.52644  0.46166  0.18100  1.0000
  H   H8        1.0  0.97357  0.96167  0.81900  1.0000
  H   H9        1.0  0.51423  0.50152  0.92917  1.0000
  H   H10       1.0  0.98577  0.00152  0.07083  1.0000
  H   H11       1.0  0.48577  0.49848  0.07083  1.0000
  H   H12       1.0  0.01423  0.99849  0.92917  1.0000
  H   H13       1.0  0.59283  0.34342  0.77858  1.0000
  H   H14       1.0  0.90717  0.84342  0.22142  1.0000
  H   H15       1.0  0.40717  0.65657  0.22143  1.0000
  H   H16       1.0  0.09283  0.15658  0.77857  1.0000
  H   H17       1.0  0.42203  0.30195  0.94870  1.0000
  H   H18       1.0  0.07797  0.80195  0.05131  1.0000
  H   H19       1.0  0.57796  0.69805  0.05131  1.0000
  H   H20       1.0  0.92203  0.19805  0.94869  1.0000
  H   H21       1.0  0.46047  0.19709  0.86460  1.0000
  H   H22       1.0  0.03954  0.69709  0.13540  1.0000
  H   H23       1.0  0.53952  0.80291  0.13541  1.0000
  H   H24       1.0  0.96047  0.30291  0.86460  1.0000
  H   H25       1.0  0.23255  0.62482  0.48006  1.0000
  H   H26       1.0  0.26745  0.12482  0.51993  1.0000
  H   H27       1.0  0.76745  0.37518  0.51993  1.0000
  H   H28       1.0  0.73255  0.87518  0.48006  1.0000
  H   H29       1.0  0.80051  0.33926  0.66086  1.0000
  H   H30       1.0  0.69949  0.83926  0.33914  1.0000
  H   H31       1.0  0.19949  0.66074  0.33914  1.0000
  H   H32       1.0  0.30051  0.16074  0.66086  1.0000
  H   H33       1.0  0.89803  0.43498  0.74109  1.0000
  H   H34       1.0  0.60197  0.93498  0.25891  1.0000
  H   H35       1.0  0.10196  0.56502  0.25891  1.0000
  H   H36       1.0  0.39803  0.06502  0.74109  1.0000
  H   H37       1.0  0.08041  0.52611  0.62552  1.0000
  H   H38       1.0  0.41960  0.02612  0.37448  1.0000
  H   H39       1.0  0.91960  0.47388  0.37448  1.0000
  H   H40       1.0  0.58041  0.97388  0.62552  1.0000
  H   H41       1.0  0.04509  0.27065  0.58298  1.0000
  H   H42       1.0  0.45491  0.77065  0.41702  1.0000
  H   H43       1.0  0.95490  0.72935  0.41702  1.0000
  H   H44       1.0  0.54509  0.22935  0.58298  1.0000
  H   H45       1.0  0.22714  0.36751  0.55343  1.0000
  H   H46       1.0  0.27286  0.86752  0.44657  1.0000
  H   H47       1.0  0.77286  0.63248  0.44657  1.0000
  H   H48       1.0  0.72714  0.13248  0.55343  1.0000
  C   C1        1.0  0.10064  0.63952  0.85964  1.0000
  C   C2        1.0  0.39936  0.13953  0.14036  1.0000
  C   C3        1.0  0.89936  0.36048  0.14036  1.0000
  C   C4        1.0  0.60064  0.86048  0.85964  1.0000
  C   C5        1.0  0.04046  0.56752  0.93004  1.0000
  C   C6        1.0  0.45954  0.06752  0.06995  1.0000
  C   C7        1.0  0.95954  0.43248  0.06996  1.0000
  C   C8        1.0  0.54046  0.93248  0.93004  1.0000
  C   C9        1.0  0.86807  0.51469  0.92883  1.0000
  C   C10       1.0  0.63193  0.01469  0.07117  1.0000
  C   C11       1.0  0.13192  0.48531  0.07117  1.0000
  C   C12       1.0  0.36808  0.98531  0.92883  1.0000
  C   C13       1.0  0.16705  0.55212  0.00131  1.0000
  C   C14       1.0  0.33295  0.05212  0.99868  1.0000
  C   C15       1.0  0.83295  0.44788  0.99869  1.0000
  C   C16       1.0  0.66705  0.94788  0.00131  1.0000
  C   C17       1.0  0.55780  0.48636  0.86508  1.0000
  C   C18       1.0  0.94220  0.98636  0.13492  1.0000
  C   C19       1.0  0.44220  0.51364  0.13492  1.0000
  C   C20       1.0  0.05780  0.01364  0.86508  1.0000
  C   C21       1.0  0.54441  0.36439  0.84037  1.0000
  C   C22       1.0  0.95559  0.86439  0.15963  1.0000
  C   C23       1.0  0.45559  0.63561  0.15963  1.0000
  C   C24       1.0  0.04441  0.13561  0.84037  1.0000
  C   C25       1.0  0.47256  0.28429  0.88681  1.0000
  C   C26       1.0  0.02744  0.78429  0.11319  1.0000
  C   C27       1.0  0.52743  0.71571  0.11319  1.0000
  C   C28       1.0  0.97257  0.21571  0.88681  1.0000
  C   C29       1.0  0.39154  0.65336  0.63017  1.0000
  C   C30       1.0  0.10846  0.15336  0.36982  1.0000
  C   C31       1.0  0.60846  0.34664  0.36982  1.0000
  C   C32       1.0  0.89154  0.84664  0.63017  1.0000
  C   C33       1.0  0.45793  0.57539  0.56517  1.0000
  C   C34       1.0  0.04207  0.07539  0.43482  1.0000
  C   C35       1.0  0.54207  0.42461  0.43482  1.0000
  C   C36       1.0  0.95793  0.92461  0.56517  1.0000
  C   C37       1.0  0.61155  0.50362  0.57890  1.0000
  C   C38       1.0  0.88845  0.00362  0.42110  1.0000
  C   C39       1.0  0.38845  0.49638  0.42110  1.0000
  C   C40       1.0  0.11155  0.99638  0.57890  1.0000
  C   C41       1.0  0.35139  0.57027  0.48655  1.0000
  C   C42       1.0  0.14861  0.07027  0.51345  1.0000
  C   C43       1.0  0.64861  0.42973  0.51345  1.0000
  C   C44       1.0  0.85139  0.92973  0.48655  1.0000
  C   C45       1.0  0.86060  0.42386  0.67231  1.0000
  C   C46       1.0  0.63940  0.92386  0.32769  1.0000
  C   C47       1.0  0.13940  0.57614  0.32769  1.0000
  C   C48       1.0  0.36060  0.07614  0.67231  1.0000
  C   C49       1.0  0.02465  0.44041  0.62439  1.0000
  C   C50       1.0  0.47535  0.94041  0.37561  1.0000
  C   C51       1.0  0.97535  0.55959  0.37561  1.0000
  C   C52       1.0  0.52465  0.05959  0.62439  1.0000
  C   C53       1.0  0.10383  0.35564  0.58557  1.0000
  C   C54       1.0  0.39617  0.85564  0.41443  1.0000
  C   C55       1.0  0.89617  0.64436  0.41443  1.0000
  C   C56       1.0  0.60383  0.14436  0.58557  1.0000
  O   O1        1.0  0.02838  0.62558  0.78262  1.0000
  O   O2        1.0  0.47162  0.12558  0.21739  1.0000
  O   O3        1.0  0.97162  0.37442  0.21738  1.0000
  O   O4        1.0  0.52837  0.87443  0.78261  1.0000
  O   O5        1.0  0.22773  0.71072  0.87783  1.0000
  O   O6        1.0  0.27227  0.21072  0.12217  1.0000
  O   O7        1.0  0.77227  0.28927  0.12216  1.0000
  O   O8        1.0  0.72773  0.78928  0.87783  1.0000
  O   O9        1.0  0.74073  0.53179  0.86034  1.0000
  O   O10       1.0  0.75927  0.03179  0.13966  1.0000
  O   O11       1.0  0.25927  0.46821  0.13966  1.0000
  O   O12       1.0  0.24073  0.96821  0.86034  1.0000
  O   O13       1.0  0.45960  0.64781  0.70914  1.0000
  O   O14       1.0  0.04040  0.14781  0.29086  1.0000
  O   O15       1.0  0.54040  0.35219  0.29086  1.0000
  O   O16       1.0  0.95960  0.85219  0.70914  1.0000
  O   O17       1.0  0.26241  0.72112  0.60836  1.0000
  O   O18       1.0  0.23758  0.22112  0.39164  1.0000
  O   O19       1.0  0.73759  0.27888  0.39164  1.0000
  O   O20       1.0  0.76242  0.77888  0.60836  1.0000
  O   O21       1.0  0.71944  0.50928  0.65481  1.0000
  O   O22       1.0  0.78056  0.00928  0.34519  1.0000
  O   O23       1.0  0.28056  0.49072  0.34519  1.0000
  O   O24       1.0  0.21944  0.99072  0.65481  1.0000
