data_image0
_chemical_formula_structural       Zn4H56C56O28
_chemical_formula_sum              "Zn4 H56 C56 O28"
_cell_length_a       8.38201
_cell_length_b       10.764
_cell_length_c       16.1885
_cell_angle_alpha    90.0003
_cell_angle_beta     92.5319
_cell_angle_gamma    90.0001

_space_group_name_H-M_alt    "P 1"
_space_group_IT_number       1

loop_
  _space_group_symop_operation_xyz
  'x, y, z'

loop_
  _atom_site_type_symbol
  _atom_site_label
  _atom_site_symmetry_multiplicity
  _atom_site_fract_x
  _atom_site_fract_y
  _atom_site_fract_z
  _atom_site_occupancy
  Zn  Zn1       1.0  0.20081  0.71037  0.72808  1.0000
  Zn  Zn2       1.0  0.29919  0.21038  0.27192  1.0000
  Zn  Zn3       1.0  0.79919  0.28962  0.27192  1.0000
  Zn  Zn4       1.0  0.70081  0.78962  0.72808  1.0000
  H   H1        1.0  0.03524  0.87286  0.80794  1.0000
  H   H2        1.0  0.46476  0.37286  0.19206  1.0000
  H   H3        1.0  0.96476  0.12714  0.19206  1.0000
  H   H4        1.0  0.53525  0.62714  0.80794  1.0000
  H   H5        1.0  0.21560  0.92887  0.80837  1.0000
  H   H6        1.0  0.28440  0.42887  0.19162  1.0000
  H   H7        1.0  0.78439  0.07113  0.19163  1.0000
  H   H8        1.0  0.71561  0.57113  0.80837  1.0000
  H   H9        1.0  0.43224  0.72468  0.98324  1.0000
  H   H10       1.0  0.06775  0.22469  0.01676  1.0000
  H   H11       1.0  0.56777  0.27532  0.01676  1.0000
  H   H12       1.0  0.93223  0.77532  0.98325  1.0000
  H   H13       1.0  0.34365  0.16615  0.95013  1.0000
  H   H14       1.0  0.15635  0.66615  0.04987  1.0000
  H   H15       1.0  0.65635  0.83385  0.04987  1.0000
  H   H16       1.0  0.84365  0.33385  0.95013  1.0000
  H   H17       1.0  0.51378  0.18278  0.88827  1.0000
  H   H18       1.0  0.98622  0.68279  0.11173  1.0000
  H   H19       1.0  0.48622  0.81721  0.11174  1.0000
  H   H20       1.0  0.01378  0.31721  0.88826  1.0000
  H   H21       1.0  0.16615  0.17731  0.81337  1.0000
  H   H22       1.0  0.33385  0.67732  0.18663  1.0000
  H   H23       1.0  0.83385  0.82268  0.18664  1.0000
  H   H24       1.0  0.66614  0.32268  0.81337  1.0000
  H   H25       1.0  0.48231  0.05830  0.76169  1.0000
  H   H26       1.0  0.01770  0.55830  0.23831  1.0000
  H   H27       1.0  0.51769  0.94170  0.23832  1.0000
  H   H28       1.0  0.98230  0.44170  0.76169  1.0000
  H   H29       1.0  0.28402  0.05524  0.70468  1.0000
  H   H30       1.0  0.21599  0.55524  0.29532  1.0000
  H   H31       1.0  0.71598  0.94475  0.29532  1.0000
  H   H32       1.0  0.78401  0.44476  0.70468  1.0000
  H   H33       1.0  0.24430  0.37330  0.51304  1.0000
  H   H34       1.0  0.25571  0.87330  0.48696  1.0000
  H   H35       1.0  0.75570  0.62671  0.48696  1.0000
  H   H36       1.0  0.74430  0.12671  0.51304  1.0000
  H   H37       1.0  0.26145  0.32355  0.64445  1.0000
  H   H38       1.0  0.23855  0.82356  0.35554  1.0000
  H   H39       1.0  0.73855  0.67645  0.35554  1.0000
  H   H40       1.0  0.76146  0.17645  0.64446  1.0000
  H   H41       1.0  0.32522  0.41656  0.73088  1.0000
  H   H42       1.0  0.17478  0.91656  0.26912  1.0000
  H   H43       1.0  0.67478  0.58344  0.26912  1.0000
  H   H44       1.0  0.82523  0.08345  0.73088  1.0000
  H   H45       1.0  0.50410  0.54199  0.63321  1.0000
  H   H46       1.0  0.99590  0.04199  0.36679  1.0000
  H   H47       1.0  0.49590  0.45801  0.36679  1.0000
  H   H48       1.0  0.00410  0.95802  0.63321  1.0000
  H   H49       1.0  0.49182  0.27411  0.56430  1.0000
  H   H50       1.0  0.00819  0.77410  0.43569  1.0000
  H   H51       1.0  0.50818  0.72589  0.43569  1.0000
  H   H52       1.0  0.99182  0.22589  0.56430  1.0000
  H   H53       1.0  0.64858  0.39275  0.54836  1.0000
  H   H54       1.0  0.85142  0.89274  0.45164  1.0000
  H   H55       1.0  0.35142  0.60724  0.45164  1.0000
  H   H56       1.0  0.14858  0.10724  0.54836  1.0000
  C   C1        1.0  0.27311  0.57928  0.87110  1.0000
  C   C2        1.0  0.22690  0.07928  0.12890  1.0000
  C   C3        1.0  0.72691  0.42072  0.12889  1.0000
  C   C4        1.0  0.77309  0.92072  0.87111  1.0000
  C   C5        1.0  0.46125  0.62670  0.99187  1.0000
  C   C6        1.0  0.03875  0.12670  0.00813  1.0000
  C   C7        1.0  0.53877  0.37330  0.00813  1.0000
  C   C8        1.0  0.96123  0.87330  0.99187  1.0000
  C   C9        1.0  0.39014  0.53860  0.93859  1.0000
  C   C10       1.0  0.10987  0.03861  0.06141  1.0000
  C   C11       1.0  0.60987  0.46140  0.06140  1.0000
  C   C12       1.0  0.89012  0.96140  0.93860  1.0000
  C   C13       1.0  0.42934  0.41226  0.94588  1.0000
  C   C14       1.0  0.07067  0.91227  0.05412  1.0000
  C   C15       1.0  0.57068  0.58774  0.05411  1.0000
  C   C16       1.0  0.92932  0.08774  0.94589  1.0000
  C   C17       1.0  0.38543  0.20365  0.89142  1.0000
  C   C18       1.0  0.11458  0.70366  0.10859  1.0000
  C   C19       1.0  0.61458  0.79635  0.10859  1.0000
  C   C20       1.0  0.88542  0.29634  0.89141  1.0000
  C   C21       1.0  0.29291  0.15260  0.81793  1.0000
  C   C22       1.0  0.20709  0.65260  0.18207  1.0000
  C   C23       1.0  0.70709  0.84740  0.18208  1.0000
  C   C24       1.0  0.79290  0.34740  0.81792  1.0000
  C   C25       1.0  0.35712  0.08582  0.75827  1.0000
  C   C26       1.0  0.14289  0.58582  0.24173  1.0000
  C   C27       1.0  0.64288  0.91418  0.24174  1.0000
  C   C28       1.0  0.85711  0.41418  0.75827  1.0000
  C   C29       1.0  0.89232  0.65967  0.63084  1.0000
  C   C30       1.0  0.60769  0.15967  0.36916  1.0000
  C   C31       1.0  0.10768  0.34034  0.36916  1.0000
  C   C32       1.0  0.39232  0.84033  0.63084  1.0000
  C   C33       1.0  0.95517  0.57812  0.56528  1.0000
  C   C34       1.0  0.54483  0.07812  0.43472  1.0000
  C   C35       1.0  0.04484  0.42188  0.43472  1.0000
  C   C36       1.0  0.45517  0.92188  0.56528  1.0000
  C   C37       1.0  0.09496  0.50461  0.57480  1.0000
  C   C38       1.0  0.40504  0.00462  0.42520  1.0000
  C   C39       1.0  0.90504  0.49539  0.42520  1.0000
  C   C40       1.0  0.59496  0.99539  0.57480  1.0000
  C   C41       1.0  0.13624  0.42882  0.50914  1.0000
  C   C42       1.0  0.36376  0.92882  0.49086  1.0000
  C   C43       1.0  0.86376  0.57118  0.49086  1.0000
  C   C44       1.0  0.63624  0.07118  0.50915  1.0000
  C   C45       1.0  0.30710  0.41557  0.66333  1.0000
  C   C46       1.0  0.19290  0.91558  0.33667  1.0000
  C   C47       1.0  0.69290  0.58442  0.33667  1.0000
  C   C48       1.0  0.80710  0.08443  0.66333  1.0000
  C   C49       1.0  0.45816  0.44795  0.62246  1.0000
  C   C50       1.0  0.04184  0.94795  0.37754  1.0000
  C   C51       1.0  0.54184  0.55204  0.37754  1.0000
  C   C52       1.0  0.95816  0.05205  0.62246  1.0000
  C   C53       1.0  0.53716  0.36778  0.57644  1.0000
  C   C54       1.0  0.96284  0.86778  0.42356  1.0000
  C   C55       1.0  0.46284  0.63221  0.42356  1.0000
  C   C56       1.0  0.03716  0.13221  0.57644  1.0000
  O   O1        1.0  0.12760  0.58076  0.87953  1.0000
  O   O2        1.0  0.37241  0.08076  0.12047  1.0000
  O   O3        1.0  0.87241  0.41924  0.12047  1.0000
  O   O4        1.0  0.62758  0.91924  0.87954  1.0000
  O   O5        1.0  0.34242  0.61357  0.80295  1.0000
  O   O6        1.0  0.15758  0.11358  0.19705  1.0000
  O   O7        1.0  0.65758  0.38642  0.19705  1.0000
  O   O8        1.0  0.84241  0.88643  0.80295  1.0000
  O   O9        1.0  0.35616  0.33609  0.88752  1.0000
  O   O10       1.0  0.14384  0.83609  0.11248  1.0000
  O   O11       1.0  0.64385  0.66391  0.11248  1.0000
  O   O12       1.0  0.85614  0.16391  0.88752  1.0000
  O   O13       1.0  0.97122  0.68330  0.69807  1.0000
  O   O14       1.0  0.52878  0.18331  0.30193  1.0000
  O   O15       1.0  0.02878  0.31670  0.30193  1.0000
  O   O16       1.0  0.47123  0.81670  0.69807  1.0000
  O   O17       1.0  0.75084  0.70341  0.61944  1.0000
  O   O18       1.0  0.74917  0.20340  0.38056  1.0000
  O   O19       1.0  0.24917  0.29660  0.38056  1.0000
  O   O20       1.0  0.25084  0.79659  0.61944  1.0000
  O   O21       1.0  0.18196  0.50821  0.64826  1.0000
  O   O22       1.0  0.31804  0.00821  0.35175  1.0000
  O   O23       1.0  0.81804  0.49179  0.35174  1.0000
  O   O24       1.0  0.68196  0.99180  0.64826  1.0000
  O   O25       1.0  0.15273  0.85229  0.80671  1.0000
  O   O26       1.0  0.34727  0.35229  0.19328  1.0000
  O   O27       1.0  0.84727  0.14771  0.19329  1.0000
  O   O28       1.0  0.65274  0.64771  0.80671  1.0000
