data_image0
_chemical_formula_structural       Cu2P2H30C34N4O12
_chemical_formula_sum              "Cu2 P2 H30 C34 N4 O12"
_cell_length_a       6.89086
_cell_length_b       9.85922
_cell_length_c       12.1475
_cell_angle_alpha    91.5125
_cell_angle_beta     90
_cell_angle_gamma    89.9993

_space_group_name_H-M_alt    "P 1"
_space_group_IT_number       1

loop_
  _space_group_symop_operation_xyz
  'x, y, z'

loop_
  _atom_site_type_symbol
  _atom_site_label
  _atom_site_symmetry_multiplicity
  _atom_site_fract_x
  _atom_site_fract_y
  _atom_site_fract_z
  _atom_site_occupancy
  Cu  Cu1       1.0  0.59641  0.17114  0.73745  1.0000
  Cu  Cu2       1.0  0.09640  0.82886  0.26256  1.0000
  P   P1        1.0  0.72581  0.12963  0.99484  1.0000
  P   P2        1.0  0.22580  0.87037  0.00516  1.0000
  H   H1        1.0  0.16161  0.20906  0.75616  1.0000
  H   H2        1.0  0.66161  0.79093  0.24384  1.0000
  H   H3        1.0  0.24877  0.08459  0.82112  1.0000
  H   H4        1.0  0.74877  0.91541  0.17888  1.0000
  H   H5        1.0  0.59736  0.87882  0.81680  1.0000
  H   H6        1.0  0.09736  0.12118  0.18320  1.0000
  H   H7        1.0  0.57081  0.42364  0.60157  1.0000
  H   H8        1.0  0.07079  0.57636  0.39843  1.0000
  H   H9        1.0  0.04057  0.08750  0.96813  1.0000
  H   H10       1.0  0.54057  0.91249  0.03187  1.0000
  H   H11       1.0  0.56529  0.64793  0.72341  1.0000
  H   H12       1.0  0.06529  0.35208  0.27660  1.0000
  H   H13       1.0  0.54506  0.84756  0.41237  1.0000
  H   H14       1.0  0.04506  0.15244  0.58763  1.0000
  H   H15       1.0  0.57206  0.03612  0.33735  1.0000
  H   H16       1.0  0.07207  0.96388  0.66265  1.0000
  H   H17       1.0  0.55128  0.46892  0.39699  1.0000
  H   H18       1.0  0.05127  0.53108  0.60301  1.0000
  H   H19       1.0  0.88853  0.37574  0.10040  1.0000
  H   H20       1.0  0.38854  0.62425  0.89960  1.0000
  H   H21       1.0  0.32580  0.21977  0.00993  1.0000
  H   H22       1.0  0.82581  0.78023  0.99007  1.0000
  H   H23       1.0  0.54046  0.63621  0.51576  1.0000
  H   H24       1.0  0.04047  0.36379  0.48424  1.0000
  H   H25       1.0  0.55195  0.26949  0.26466  1.0000
  H   H26       1.0  0.05195  0.73051  0.73534  1.0000
  H   H27       1.0  0.73408  0.57441  0.19511  1.0000
  H   H28       1.0  0.23408  0.42558  0.80489  1.0000
  H   H29       1.0  0.17220  0.42243  0.09974  1.0000
  H   H30       1.0  0.67221  0.57756  0.90026  1.0000
  C   C1        1.0  0.58709  0.86589  0.72762  1.0000
  C   C2        1.0  0.08710  0.13411  0.27239  1.0000
  C   C3        1.0  0.57628  0.97525  0.55972  1.0000
  C   C4        1.0  0.07628  0.02476  0.44028  1.0000
  C   C5        1.0  0.57307  0.10799  0.50747  1.0000
  C   C6        1.0  0.07308  0.89201  0.49253  1.0000
  C   C7        1.0  0.56768  0.34214  0.53919  1.0000
  C   C8        1.0  0.06766  0.65787  0.46082  1.0000
  C   C9        1.0  0.61807  0.28280  0.05204  1.0000
  C   C10       1.0  0.11808  0.71719  0.94795  1.0000
  C   C11       1.0  0.56860  0.73917  0.67484  1.0000
  C   C12       1.0  0.06861  0.26083  0.32516  1.0000
  C   C13       1.0  0.55883  0.85188  0.50152  1.0000
  C   C14       1.0  0.05885  0.14812  0.49848  1.0000
  C   C15       1.0  0.56627  0.12416  0.39345  1.0000
  C   C16       1.0  0.06628  0.87585  0.60655  1.0000
  C   C17       1.0  0.55760  0.36567  0.42682  1.0000
  C   C18       1.0  0.05758  0.63433  0.57318  1.0000
  C   C19       1.0  0.73137  0.38473  0.10274  1.0000
  C   C20       1.0  0.23137  0.61528  0.89726  1.0000
  C   C21       1.0  0.41531  0.29682  0.05115  1.0000
  C   C22       1.0  0.91531  0.70319  0.94886  1.0000
  C   C23       1.0  0.55553  0.73274  0.56038  1.0000
  C   C24       1.0  0.05553  0.26727  0.43963  1.0000
  C   C25       1.0  0.55748  0.25464  0.35303  1.0000
  C   C26       1.0  0.05748  0.74537  0.64697  1.0000
  C   C27       1.0  0.64458  0.49610  0.15557  1.0000
  C   C28       1.0  0.14459  0.50389  0.84442  1.0000
  C   C29       1.0  0.32884  0.40932  0.10249  1.0000
  C   C30       1.0  0.82884  0.59067  0.89751  1.0000
  C   C31       1.0  0.44181  0.50825  0.15741  1.0000
  C   C32       1.0  0.94181  0.49176  0.84260  1.0000
  C   C33       1.0  0.35073  0.62601  0.21825  1.0000
  C   C34       1.0  0.85073  0.37399  0.78176  1.0000
  N   N1        1.0  0.59195  0.98036  0.67077  1.0000
  N   N2        1.0  0.09195  0.01964  0.32923  1.0000
  N   N3        1.0  0.57504  0.21642  0.57839  1.0000
  N   N4        1.0  0.07503  0.78357  0.42160  1.0000
  O   O1        1.0  0.64594  0.09501  0.88037  1.0000
  O   O2        1.0  0.14595  0.90499  0.11962  1.0000
  O   O3        1.0  0.27007  0.14295  0.75682  1.0000
  O   O4        1.0  0.77007  0.85705  0.24318  1.0000
  O   O5        1.0  0.66474  0.35936  0.79052  1.0000
  O   O6        1.0  0.16474  0.64064  0.20947  1.0000
  O   O7        1.0  0.94794  0.16662  0.99470  1.0000
  O   O8        1.0  0.44794  0.83338  0.00530  1.0000
  O   O9        1.0  0.67994  0.01344  0.07195  1.0000
  O   O10       1.0  0.17993  0.98655  0.92805  1.0000
  O   O11       1.0  0.45602  0.70460  0.27618  1.0000
  O   O12       1.0  0.95603  0.29539  0.72381  1.0000
