data_image0
_chemical_formula_structural       Cu3P2H24C38N4O10
_chemical_formula_sum              "Cu3 P2 H24 C38 N4 O10"
_cell_length_a       8.34484
_cell_length_b       9.74792
_cell_length_c       11.4938
_cell_angle_alpha    100.52
_cell_angle_beta     97.8405
_cell_angle_gamma    90.5502

_space_group_name_H-M_alt    "P 1"
_space_group_IT_number       1

loop_
  _space_group_symop_operation_xyz
  'x, y, z'

loop_
  _atom_site_type_symbol
  _atom_site_label
  _atom_site_symmetry_multiplicity
  _atom_site_fract_x
  _atom_site_fract_y
  _atom_site_fract_z
  _atom_site_occupancy
  Cu  Cu1       1.0  0.84169  0.00075  0.79952  1.0000
  Cu  Cu2       1.0  0.15832  0.99924  0.20048  1.0000
  Cu  Cu3       1.0  0.50001  1.00000  0.00000  1.0000
  P   P1        1.0  0.84555  0.85061  0.02814  1.0000
  P   P2        1.0  0.15446  0.14938  0.97186  1.0000
  H   H1        1.0  0.68474  0.69366  0.17226  1.0000
  H   H2        1.0  0.31526  0.30634  0.82773  1.0000
  H   H3        1.0  0.60678  0.44171  0.15032  1.0000
  H   H4        1.0  0.39323  0.55829  0.84968  1.0000
  H   H5        1.0  0.81137  0.35070  0.82420  1.0000
  H   H6        1.0  0.18862  0.64928  0.17579  1.0000
  H   H7        1.0  0.88909  0.60496  0.84428  1.0000
  H   H8        1.0  0.11090  0.39502  0.15571  1.0000
  H   H9        1.0  0.60124  0.75437  0.81480  1.0000
  H   H10       1.0  0.39875  0.24564  0.18520  1.0000
  H   H11       1.0  0.41362  0.59131  0.66291  1.0000
  H   H12       1.0  0.58635  0.40872  0.33710  1.0000
  H   H13       1.0  0.39132  0.61134  0.44642  1.0000
  H   H14       1.0  0.60866  0.38867  0.55359  1.0000
  H   H15       1.0  0.84173  0.14101  0.31969  1.0000
  H   H16       1.0  0.15827  0.85901  0.68031  1.0000
  H   H17       1.0  0.00769  0.29459  0.49652  1.0000
  H   H18       1.0  0.99231  0.70542  0.50348  1.0000
  H   H19       1.0  0.00417  0.23957  0.70315  1.0000
  H   H20       1.0  0.99584  0.76043  0.29685  1.0000
  H   H21       1.0  0.64013  0.93526  0.24493  1.0000
  H   H22       1.0  0.35987  0.06474  0.75506  1.0000
  H   H23       1.0  0.47447  0.74743  0.29074  1.0000
  H   H24       1.0  0.52554  0.25257  0.70926  1.0000
  C   C1        1.0  0.78974  0.66606  0.00859  1.0000
  C   C2        1.0  0.21026  0.33393  0.99140  1.0000
  C   C3        1.0  0.71416  0.61851  0.09636  1.0000
  C   C4        1.0  0.28583  0.38148  0.90363  1.0000
  C   C5        1.0  0.67174  0.47800  0.08504  1.0000
  C   C6        1.0  0.32826  0.52199  0.91495  1.0000
  C   C7        1.0  0.70385  0.38127  0.98553  1.0000
  C   C8        1.0  0.29615  0.61873  0.01447  1.0000
  C   C9        1.0  0.64553  0.23225  0.96756  1.0000
  C   C10       1.0  0.35448  0.76774  0.03244  1.0000
  C   C11       1.0  0.78308  0.42772  0.89924  1.0000
  C   C12       1.0  0.21691  0.57227  0.10075  1.0000
  C   C13       1.0  0.82610  0.56862  0.91072  1.0000
  C   C14       1.0  0.17389  0.43137  0.08926  1.0000
  C   C15       1.0  0.58973  0.76192  0.72078  1.0000
  C   C16       1.0  0.41026  0.23810  0.27922  1.0000
  C   C17       1.0  0.48466  0.66998  0.63409  1.0000
  C   C18       1.0  0.51533  0.33004  0.36592  1.0000
  C   C19       1.0  0.47174  0.68155  0.51506  1.0000
  C   C20       1.0  0.52825  0.31847  0.48494  1.0000
  C   C21       1.0  0.56230  0.78790  0.48205  1.0000
  C   C22       1.0  0.43770  0.21210  0.51795  1.0000
  C   C23       1.0  0.66244  0.87721  0.57543  1.0000
  C   C24       1.0  0.33756  0.12279  0.42457  1.0000
  C   C25       1.0  0.75292  0.99024  0.54926  1.0000
  C   C26       1.0  0.24709  0.00976  0.45074  1.0000
  C   C27       1.0  0.74624  0.01092  0.42997  1.0000
  C   C28       1.0  0.25377  0.98908  0.57003  1.0000
  C   C29       1.0  0.84137  0.12346  0.41081  1.0000
  C   C30       1.0  0.15863  0.87655  0.58919  1.0000
  C   C31       1.0  0.93238  0.20748  0.50811  1.0000
  C   C32       1.0  0.06762  0.79252  0.49189  1.0000
  C   C33       1.0  0.93124  0.17912  0.62394  1.0000
  C   C34       1.0  0.06877  0.82088  0.37606  1.0000
  C   C35       1.0  0.64508  0.91892  0.33693  1.0000
  C   C36       1.0  0.35493  0.08108  0.66307  1.0000
  C   C37       1.0  0.55590  0.81226  0.36249  1.0000
  C   C38       1.0  0.44411  0.18774  0.63751  1.0000
  N   N1        1.0  0.67689  0.86240  0.69164  1.0000
  N   N2        1.0  0.32312  0.13760  0.30836  1.0000
  N   N3        1.0  0.84412  0.07258  0.64327  1.0000
  N   N4        1.0  0.15589  0.92742  0.35673  1.0000
  O   O1        1.0  0.89115  0.87173  0.90745  1.0000
  O   O2        1.0  0.10886  0.12826  0.09255  1.0000
  O   O3        1.0  0.98964  0.86276  0.12946  1.0000
  O   O4        1.0  0.01036  0.13723  0.87054  1.0000
  O   O5        1.0  0.70639  0.93858  0.07193  1.0000
  O   O6        1.0  0.29362  0.06142  0.92807  1.0000
  O   O7        1.0  0.58424  0.19503  0.05452  1.0000
  O   O8        1.0  0.41578  0.80496  0.94550  1.0000
  O   O9        1.0  0.65129  0.15147  0.86877  1.0000
  O   O10       1.0  0.34871  0.84851  0.13123  1.0000
