data_image0
_chemical_formula_structural       Cu2P2H26C38N4O10
_chemical_formula_sum              "Cu2 P2 H26 C38 N4 O10"
_cell_length_a       9.53253
_cell_length_b       10.6196
_cell_length_c       10.3415
_cell_angle_alpha    100.47
_cell_angle_beta     103.038
_cell_angle_gamma    114.786

_space_group_name_H-M_alt    "P 1"
_space_group_IT_number       1

loop_
  _space_group_symop_operation_xyz
  'x, y, z'

loop_
  _atom_site_type_symbol
  _atom_site_label
  _atom_site_symmetry_multiplicity
  _atom_site_fract_x
  _atom_site_fract_y
  _atom_site_fract_z
  _atom_site_occupancy
  Cu  Cu1       1.0  0.07473  0.11013  0.66584  1.0000
  Cu  Cu2       1.0  0.92527  0.88987  0.33415  1.0000
  P   P1        1.0  0.26916  0.92560  0.50451  1.0000
  P   P2        1.0  0.73084  0.07440  0.49549  1.0000
  H   H1        1.0  0.73053  0.83082  0.58628  1.0000
  H   H2        1.0  0.26947  0.16918  0.41371  1.0000
  H   H3        1.0  0.66384  0.38684  0.02679  1.0000
  H   H4        1.0  0.33618  0.61316  0.97321  1.0000
  H   H5        1.0  0.81306  0.64258  0.91612  1.0000
  H   H6        1.0  0.18693  0.35743  0.08388  1.0000
  H   H7        1.0  0.10082  0.77573  0.10170  1.0000
  H   H8        1.0  0.89918  0.22427  0.89830  1.0000
  H   H9        1.0  0.60077  0.20474  0.15692  1.0000
  H   H10       1.0  0.39923  0.79526  0.84309  1.0000
  H   H11       1.0  0.38548  0.97566  0.18404  1.0000
  H   H12       1.0  0.61451  0.02434  0.81596  1.0000
  H   H13       1.0  0.62399  0.63519  0.69756  1.0000
  H   H14       1.0  0.37600  0.36480  0.30243  1.0000
  H   H15       1.0  0.43912  0.34818  0.81366  1.0000
  H   H16       1.0  0.56089  0.65181  0.18634  1.0000
  H   H17       1.0  0.53320  0.07358  0.62878  1.0000
  H   H18       1.0  0.46680  0.92641  0.37122  1.0000
  H   H19       1.0  0.05368  0.77039  0.64539  1.0000
  H   H20       1.0  0.94633  0.22962  0.35462  1.0000
  H   H21       1.0  0.40207  0.72221  0.46882  1.0000
  H   H22       1.0  0.59791  0.27778  0.53117  1.0000
  H   H23       1.0  0.02255  0.56054  0.73689  1.0000
  H   H24       1.0  0.97747  0.43946  0.26312  1.0000
  H   H25       1.0  0.35353  0.50097  0.54469  1.0000
  H   H26       1.0  0.64645  0.49902  0.45529  1.0000
  C   C1        1.0  0.06584  0.94509  0.85169  1.0000
  C   C2        1.0  0.93416  0.05492  0.14831  1.0000
  C   C3        1.0  0.23007  0.06273  0.90223  1.0000
  C   C4        1.0  0.76993  0.93727  0.09777  1.0000
  C   C5        1.0  0.80852  0.83104  0.68111  1.0000
  C   C6        1.0  0.19149  0.16897  0.31888  1.0000
  C   C7        1.0  0.01914  0.83914  0.92157  1.0000
  C   C8        1.0  0.98085  0.16086  0.07843  1.0000
  C   C9        1.0  0.34691  0.07262  0.02093  1.0000
  C   C10       1.0  0.65309  0.92738  0.97907  1.0000
  C   C11       1.0  0.54157  0.29291  0.99318  1.0000
  C   C12       1.0  0.45844  0.70709  0.00682  1.0000
  C   C13       1.0  0.85498  0.72510  0.86404  1.0000
  C   C14       1.0  0.14502  0.27490  0.13596  1.0000
  C   C15       1.0  0.13844  0.85337  0.04405  1.0000
  C   C16       1.0  0.86155  0.14663  0.95596  1.0000
  C   C17       1.0  0.50661  0.19228  0.06559  1.0000
  C   C18       1.0  0.49339  0.80773  0.93441  1.0000
  C   C19       1.0  0.29630  0.96507  0.09045  1.0000
  C   C20       1.0  0.70369  0.03493  0.90955  1.0000
  C   C21       1.0  0.75120  0.72117  0.74390  1.0000
  C   C22       1.0  0.24880  0.27883  0.25609  1.0000
  C   C23       1.0  0.41744  0.27347  0.87547  1.0000
  C   C24       1.0  0.58257  0.72653  0.12454  1.0000
  C   C25       1.0  0.23476  0.76426  0.55723  1.0000
  C   C26       1.0  0.76523  0.23574  0.44276  1.0000
  C   C27       1.0  0.12579  0.71606  0.63039  1.0000
  C   C28       1.0  0.87421  0.28394  0.36961  1.0000
  C   C29       1.0  0.31942  0.68745  0.52821  1.0000
  C   C30       1.0  0.68057  0.31255  0.47179  1.0000
  C   C31       1.0  0.19000  0.52139  0.64980  1.0000
  C   C32       1.0  0.81001  0.47861  0.35020  1.0000
  C   C33       1.0  0.10603  0.59785  0.67896  1.0000
  C   C34       1.0  0.89397  0.40215  0.32105  1.0000
  C   C35       1.0  0.29454  0.56547  0.57202  1.0000
  C   C36       1.0  0.70546  0.43453  0.42798  1.0000
  C   C37       1.0  0.15838  0.38972  0.69731  1.0000
  C   C38       1.0  0.84162  0.61028  0.30269  1.0000
  N   N1        1.0  0.26612  0.16161  0.83190  1.0000
  N   N2        1.0  0.73388  0.83838  0.16810  1.0000
  N   N3        1.0  0.96156  0.94083  0.73496  1.0000
  N   N4        1.0  0.03844  0.05917  0.26504  1.0000
  O   O1        1.0  0.12147  0.95237  0.49724  1.0000
  O   O2        1.0  0.87853  0.04763  0.50276  1.0000
  O   O3        1.0  0.41663  0.05844  0.63024  1.0000
  O   O4        1.0  0.58337  0.94156  0.36976  1.0000
  O   O5        1.0  0.30974  0.90844  0.37110  1.0000
  O   O6        1.0  0.69026  0.09155  0.62889  1.0000
  O   O7        1.0  0.18790  0.29458  0.62643  1.0000
  O   O8        1.0  0.81209  0.70542  0.37357  1.0000
  O   O9        1.0  0.10351  0.37522  0.79594  1.0000
  O   O10       1.0  0.89651  0.62479  0.20407  1.0000
