data_image0
_chemical_formula_structural       K2H2C12N8O16
_chemical_formula_sum              "K2 H2 C12 N8 O16"
_cell_length_a       7.32298
_cell_length_b       8.31481
_cell_length_c       9.16489
_cell_angle_alpha    67.4041
_cell_angle_beta     68.0771
_cell_angle_gamma    72.2087

_space_group_name_H-M_alt    "P 1"
_space_group_IT_number       1

loop_
  _space_group_symop_operation_xyz
  'x, y, z'

loop_
  _atom_site_type_symbol
  _atom_site_label
  _atom_site_symmetry_multiplicity
  _atom_site_fract_x
  _atom_site_fract_y
  _atom_site_fract_z
  _atom_site_occupancy
  K   K1        1.0  0.94956  0.75237  0.47164  1.0000
  K   K2        1.0  0.05045  0.24763  0.52836  1.0000
  H   H1        1.0  0.01505  0.10808  0.10259  1.0000
  H   H2        1.0  0.98495  0.89193  0.89741  1.0000
  C   C1        1.0  0.82815  0.38907  0.03182  1.0000
  C   C2        1.0  0.17184  0.61094  0.96818  1.0000
  C   C3        1.0  0.79606  0.26457  0.19559  1.0000
  C   C4        1.0  0.20394  0.73543  0.80441  1.0000
  C   C5        1.0  0.63119  0.30447  0.32834  1.0000
  C   C6        1.0  0.36881  0.69553  0.67166  1.0000
  C   C7        1.0  0.48416  0.46859  0.31167  1.0000
  C   C8        1.0  0.51584  0.53141  0.68834  1.0000
  C   C9        1.0  0.53721  0.59435  0.14535  1.0000
  C   C10       1.0  0.46279  0.40564  0.85465  1.0000
  C   C11       1.0  0.69740  0.55894  0.00760  1.0000
  C   C12       1.0  0.30260  0.44106  0.99240  1.0000
  N   N1        1.0  0.43168  0.75595  0.09486  1.0000
  N   N2        1.0  0.56831  0.24406  0.90514  1.0000
  N   N3        1.0  0.69708  0.69564  0.87076  1.0000
  N   N4        1.0  0.30292  0.30436  0.12924  1.0000
  N   N5        1.0  0.97534  0.34283  0.89903  1.0000
  N   N6        1.0  0.02466  0.65717  0.10097  1.0000
  N   N7        1.0  0.60380  0.17248  0.48732  1.0000
  N   N8        1.0  0.39621  0.82751  0.51268  1.0000
  O   O1        1.0  0.28057  0.84886  0.15594  1.0000
  O   O2        1.0  0.71944  0.15114  0.84406  1.0000
  O   O3        1.0  0.54038  0.82515  0.91059  1.0000
  O   O4        1.0  0.45962  0.17485  0.08941  1.0000
  O   O5        1.0  0.91552  0.10793  0.21919  1.0000
  O   O6        1.0  0.08448  0.89207  0.78081  1.0000
  O   O7        1.0  0.32973  0.50604  0.42061  1.0000
  O   O8        1.0  0.67027  0.49396  0.57939  1.0000
  O   O9        1.0  0.09239  0.18959  0.92257  1.0000
  O   O10       1.0  0.90761  0.81041  0.07743  1.0000
  O   O11       1.0  0.99422  0.44958  0.75591  1.0000
  O   O12       1.0  0.00578  0.55042  0.24409  1.0000
  O   O13       1.0  0.43078  0.15131  0.57418  1.0000
  O   O14       1.0  0.56922  0.84869  0.42582  1.0000
  O   O15       1.0  0.75556  0.08420  0.53389  1.0000
  O   O16       1.0  0.24444  0.91580  0.46611  1.0000
