data_image0
_chemical_formula_structural       Cu6H18C26S6N12Cl6
_chemical_formula_sum              "Cu6 H18 C26 S6 N12 Cl6"
_cell_length_a       8.2424
_cell_length_b       10.8634
_cell_length_c       12.4435
_cell_angle_alpha    72.6121
_cell_angle_beta     87.5846
_cell_angle_gamma    90.3386

_space_group_name_H-M_alt    "P 1"
_space_group_IT_number       1

loop_
  _space_group_symop_operation_xyz
  'x, y, z'

loop_
  _atom_site_type_symbol
  _atom_site_label
  _atom_site_symmetry_multiplicity
  _atom_site_fract_x
  _atom_site_fract_y
  _atom_site_fract_z
  _atom_site_occupancy
  Cu  Cu1       1.0  0.70240  0.13510  0.16996  1.0000
  Cu  Cu2       1.0  0.29760  0.86490  0.83004  1.0000
  Cu  Cu3       1.0  0.46901  0.64733  0.47800  1.0000
  Cu  Cu4       1.0  0.53099  0.35267  0.52200  1.0000
  Cu  Cu5       1.0  0.08810  0.36171  0.02825  1.0000
  Cu  Cu6       1.0  0.91191  0.63829  0.97175  1.0000
  H   H1        1.0  0.91480  0.92658  0.10969  1.0000
  H   H2        1.0  0.08520  0.07343  0.89031  1.0000
  H   H3        1.0  0.94248  0.68486  0.19592  1.0000
  H   H4        1.0  0.05752  0.31515  0.80408  1.0000
  H   H5        1.0  0.74375  0.57353  0.35823  1.0000
  H   H6        1.0  0.25625  0.42647  0.64177  1.0000
  H   H7        1.0  0.78459  0.35168  0.94739  1.0000
  H   H8        1.0  0.21541  0.64832  0.05261  1.0000
  H   H9        1.0  0.62072  0.50761  0.80262  1.0000
  H   H10       1.0  0.37929  0.49238  0.19738  1.0000
  H   H11       1.0  0.31323  0.50333  0.84245  1.0000
  H   H12       1.0  0.68678  0.49667  0.15755  1.0000
  H   H13       1.0  0.04067  0.16839  0.27915  1.0000
  H   H14       1.0  0.95932  0.83161  0.72086  1.0000
  H   H15       1.0  0.12225  0.27071  0.42887  1.0000
  H   H16       1.0  0.87775  0.72929  0.57113  1.0000
  H   H17       1.0  0.89464  0.35760  0.52821  1.0000
  H   H18       1.0  0.10535  0.64241  0.47179  1.0000
  C   C1        1.0  0.48414  0.10923  0.26293  1.0000
  C   C2        1.0  0.51587  0.89077  0.73706  1.0000
  C   C3        1.0  0.61495  0.86955  0.30040  1.0000
  C   C4        1.0  0.38505  0.13046  0.69960  1.0000
  C   C5        1.0  0.83389  0.87061  0.17878  1.0000
  C   C6        1.0  0.16611  0.12939  0.82122  1.0000
  C   C7        1.0  0.84982  0.73843  0.22683  1.0000
  C   C8        1.0  0.15018  0.26156  0.77317  1.0000
  C   C9        1.0  0.74023  0.67663  0.31452  1.0000
  C   C10       1.0  0.25977  0.32337  0.68548  1.0000
  C   C11       1.0  0.41802  0.26507  0.05789  1.0000
  C   C12       1.0  0.58198  0.73492  0.94211  1.0000
  C   C13       1.0  0.65259  0.35244  0.95558  1.0000
  C   C14       1.0  0.34742  0.64756  0.04443  1.0000
  C   C15       1.0  0.56172  0.43974  0.87680  1.0000
  C   C16       1.0  0.43829  0.56026  0.12320  1.0000
  C   C17       1.0  0.39494  0.43635  0.89694  1.0000
  C   C18       1.0  0.60507  0.56365  0.10306  1.0000
  C   C19       1.0  0.68232  0.23595  0.36618  1.0000
  C   C20       1.0  0.31767  0.76406  0.63382  1.0000
  C   C21       1.0  0.95113  0.20236  0.33023  1.0000
  C   C22       1.0  0.04887  0.79764  0.66977  1.0000
  C   C23       1.0  0.99540  0.25847  0.41221  1.0000
  C   C24       1.0  0.00459  0.74154  0.58780  1.0000
  C   C25       1.0  0.87211  0.30678  0.46656  1.0000
  C   C26       1.0  0.12789  0.69323  0.53343  1.0000
  S   S1        1.0  0.46139  0.94713  0.35427  1.0000
  S   S2        1.0  0.53861  0.05288  0.64573  1.0000
  S   S3        1.0  0.32049  0.14590  0.16878  1.0000
  S   S4        1.0  0.67951  0.85410  0.83122  1.0000
  S   S5        1.0  0.47685  0.22295  0.34300  1.0000
  S   S6        1.0  0.52315  0.77705  0.65700  1.0000
  N   N1        1.0  0.71786  0.93686  0.21598  1.0000
  N   N2        1.0  0.28214  0.06315  0.78402  1.0000
  N   N3        1.0  0.58142  0.26469  0.04576  1.0000
  N   N4        1.0  0.41858  0.73531  0.95424  1.0000
  N   N5        1.0  0.79486  0.19148  0.30678  1.0000
  N   N6        1.0  0.20514  0.80852  0.69322  1.0000
  N   N7        1.0  0.62189  0.74127  0.35137  1.0000
  N   N8        1.0  0.37811  0.25874  0.64864  1.0000
  N   N9        1.0  0.32187  0.35051  0.98860  1.0000
  N   N10       1.0  0.67813  0.64948  0.01139  1.0000
  N   N11       1.0  0.71421  0.29499  0.44488  1.0000
  N   N12       1.0  0.28578  0.70501  0.55512  1.0000
  Cl  Cl1       1.0  0.95012  0.16929  0.06049  1.0000
  Cl  Cl2       1.0  0.04988  0.83070  0.93951  1.0000
  Cl  Cl3       1.0  0.33526  0.48965  0.40941  1.0000
  Cl  Cl4       1.0  0.66473  0.51035  0.59059  1.0000
  Cl  Cl5       1.0  0.99897  0.47611  0.14617  1.0000
  Cl  Cl6       1.0  0.00104  0.52389  0.85383  1.0000
