data_image0
_chemical_formula_structural       Cd2H64C56N8O8
_chemical_formula_sum              "Cd2 H64 C56 N8 O8"
_cell_length_a       11.3282
_cell_length_b       11.8484
_cell_length_c       12.811
_cell_angle_alpha    86.2818
_cell_angle_beta     66.5503
_cell_angle_gamma    69.942

_space_group_name_H-M_alt    "P 1"
_space_group_IT_number       1

loop_
  _space_group_symop_operation_xyz
  'x, y, z'

loop_
  _atom_site_type_symbol
  _atom_site_label
  _atom_site_symmetry_multiplicity
  _atom_site_fract_x
  _atom_site_fract_y
  _atom_site_fract_z
  _atom_site_occupancy
  Cd  Cd1       1.0  0.34297  0.78519  0.28758  1.0000
  Cd  Cd2       1.0  0.65703  0.21481  0.71242  1.0000
  H   H1        1.0  0.40815  0.02445  0.21685  1.0000
  H   H2        1.0  0.59185  0.97554  0.78315  1.0000
  H   H3        1.0  0.60078  0.09191  0.08175  1.0000
  H   H4        1.0  0.39921  0.90809  0.91825  1.0000
  H   H5        1.0  0.79673  0.73283  0.91299  1.0000
  H   H6        1.0  0.20326  0.26718  0.08701  1.0000
  H   H7        1.0  0.59897  0.68025  0.05623  1.0000
  H   H8        1.0  0.40102  0.31976  0.94376  1.0000
  H   H9        1.0  0.90966  0.87612  0.84414  1.0000
  H   H10       1.0  0.09034  0.12388  0.15586  1.0000
  H   H11       1.0  0.79606  0.02629  0.85635  1.0000
  H   H12       1.0  0.20394  0.97371  0.14365  1.0000
  H   H13       1.0  0.94919  0.11740  0.85031  1.0000
  H   H14       1.0  0.05081  0.88259  0.14968  1.0000
  H   H15       1.0  0.08110  0.97401  0.83131  1.0000
  H   H16       1.0  0.91891  0.02599  0.16868  1.0000
  H   H17       1.0  0.03146  0.82809  0.97516  1.0000
  H   H18       1.0  0.96855  0.17191  0.02484  1.0000
  H   H19       1.0  0.86866  0.87065  0.09250  1.0000
  H   H20       1.0  0.13135  0.12935  0.90749  1.0000
  H   H21       1.0  0.11173  0.00926  0.63866  1.0000
  H   H22       1.0  0.88827  0.99075  0.36134  1.0000
  H   H23       1.0  0.02111  0.11569  0.56861  1.0000
  H   H24       1.0  0.97889  0.88431  0.43139  1.0000
  H   H25       1.0  0.20631  0.19618  0.48060  1.0000
  H   H26       1.0  0.79370  0.80381  0.51939  1.0000
  H   H27       1.0  0.16374  0.19626  0.62926  1.0000
  H   H28       1.0  0.83628  0.80374  0.37073  1.0000
  H   H29       1.0  0.43182  0.11068  0.35083  1.0000
  H   H30       1.0  0.56819  0.88932  0.64917  1.0000
  H   H31       1.0  0.32327  0.00619  0.69463  1.0000
  H   H32       1.0  0.67674  0.99380  0.30535  1.0000
  H   H33       1.0  0.33743  0.52300  0.01426  1.0000
  H   H34       1.0  0.66257  0.47701  0.98574  1.0000
  H   H35       1.0  0.25923  0.47062  0.14680  1.0000
  H   H36       1.0  0.74077  0.52937  0.85320  1.0000
  H   H37       1.0  0.12401  0.70463  0.05766  1.0000
  H   H38       1.0  0.87599  0.29537  0.94235  1.0000
  H   H39       1.0  0.04458  0.65616  0.19131  1.0000
  H   H40       1.0  0.95542  0.34384  0.80871  1.0000
  H   H41       1.0  0.13439  0.62416  0.88412  1.0000
  H   H42       1.0  0.86559  0.37584  0.11590  1.0000
  H   H43       1.0  0.96547  0.47782  0.20267  1.0000
  H   H44       1.0  0.03453  0.52218  0.79735  1.0000
  H   H45       1.0  0.44111  0.79671  0.48685  1.0000
  H   H46       1.0  0.55887  0.20329  0.51316  1.0000
  H   H47       1.0  0.60352  0.67294  0.57220  1.0000
  H   H48       1.0  0.39647  0.32707  0.42780  1.0000
  H   H49       1.0  0.73699  0.38476  0.31797  1.0000
  H   H50       1.0  0.26300  0.61524  0.68203  1.0000
  H   H51       1.0  0.57230  0.52214  0.23926  1.0000
  H   H52       1.0  0.42770  0.47786  0.76073  1.0000
  H   H53       1.0  0.71701  0.41922  0.58826  1.0000
  H   H54       1.0  0.28299  0.58078  0.41174  1.0000
  H   H55       1.0  0.83886  0.35085  0.45106  1.0000
  H   H56       1.0  0.16113  0.64916  0.54894  1.0000
  H   H57       1.0  0.89550  0.58564  0.36711  1.0000
  H   H58       1.0  0.10450  0.41436  0.63289  1.0000
  H   H59       1.0  0.02356  0.43982  0.34988  1.0000
  H   H60       1.0  0.97644  0.56017  0.65012  1.0000
  H   H61       1.0  0.01521  0.33088  0.52216  1.0000
  H   H62       1.0  0.98480  0.66911  0.47784  1.0000
  H   H63       1.0  0.88275  0.39820  0.65601  1.0000
  H   H64       1.0  0.11725  0.60179  0.34400  1.0000
  C   C1        1.0  0.49739  0.96396  0.14804  1.0000
  C   C2        1.0  0.50261  0.03604  0.85196  1.0000
  C   C3        1.0  0.60303  0.00024  0.07286  1.0000
  C   C4        1.0  0.39697  0.99976  0.92714  1.0000
  C   C5        1.0  0.71367  0.91758  0.98580  1.0000
  C   C6        1.0  0.28632  0.08243  0.01420  1.0000
  C   C7        1.0  0.71205  0.80099  0.97822  1.0000
  C   C8        1.0  0.28794  0.19902  0.02178  1.0000
  C   C9        1.0  0.60351  0.77064  0.05755  1.0000
  C   C10       1.0  0.39649  0.22937  0.94245  1.0000
  C   C11       1.0  0.83191  0.95364  0.90646  1.0000
  C   C12       1.0  0.16809  0.04636  0.09353  1.0000
  C   C13       1.0  0.99501  0.04580  0.89611  1.0000
  C   C14       1.0  0.00499  0.95420  0.10388  1.0000
  C   C15       1.0  0.94816  0.90526  0.03484  1.0000
  C   C16       1.0  0.05185  0.09474  0.96515  1.0000
  C   C17       1.0  0.18792  0.96687  0.45905  1.0000
  C   C18       1.0  0.81208  0.03313  0.54095  1.0000
  C   C19       1.0  0.12411  0.05803  0.56146  1.0000
  C   C20       1.0  0.87589  0.94197  0.43854  1.0000
  C   C21       1.0  0.21106  0.13737  0.54976  1.0000
  C   C22       1.0  0.78895  0.86263  0.45023  1.0000
  C   C23       1.0  0.35947  0.06716  0.52540  1.0000
  C   C24       1.0  0.64054  0.93283  0.47460  1.0000
  C   C25       1.0  0.46187  0.06180  0.41655  1.0000
  C   C26       1.0  0.53813  0.93820  0.58344  1.0000
  C   C27       1.0  0.40021  0.00396  0.60876  1.0000
  C   C28       1.0  0.59980  0.99604  0.39123  1.0000
  C   C29       1.0  0.30815  0.62599  0.15862  1.0000
  C   C30       1.0  0.69186  0.37400  0.84138  1.0000
  C   C31       1.0  0.25879  0.55315  0.10159  1.0000
  C   C32       1.0  0.74121  0.44685  0.89841  1.0000
  C   C33       1.0  0.11673  0.62377  0.10263  1.0000
  C   C34       1.0  0.88327  0.37623  0.89737  1.0000
  C   C35       1.0  0.05887  0.55803  0.04971  1.0000
  C   C36       1.0  0.94112  0.44197  0.95031  1.0000
  C   C37       1.0  0.07587  0.56903  0.93547  1.0000
  C   C38       1.0  0.92412  0.43097  0.06455  1.0000
  C   C39       1.0  0.98158  0.48781  0.11331  1.0000
  C   C40       1.0  0.01841  0.51220  0.88671  1.0000
  C   C41       1.0  0.51005  0.70561  0.45078  1.0000
  C   C42       1.0  0.48994  0.29439  0.54922  1.0000
  C   C43       1.0  0.59917  0.63603  0.49865  1.0000
  C   C44       1.0  0.40083  0.36398  0.50136  1.0000
  C   C45       1.0  0.68331  0.51809  0.45192  1.0000
  C   C46       1.0  0.31668  0.48192  0.54808  1.0000
  C   C47       1.0  0.67397  0.47623  0.35705  1.0000
  C   C48       1.0  0.32602  0.52378  0.64296  1.0000
  C   C49       1.0  0.58340  0.55130  0.31282  1.0000
  C   C50       1.0  0.41659  0.44870  0.68718  1.0000
  C   C51       1.0  0.77906  0.43891  0.50273  1.0000
  C   C52       1.0  0.22094  0.56110  0.49727  1.0000
  C   C53       1.0  0.95806  0.52357  0.40822  1.0000
  C   C54       1.0  0.04194  0.47642  0.59179  1.0000
  C   C55       1.0  0.95034  0.41827  0.57386  1.0000
  C   C56       1.0  0.04966  0.58172  0.42615  1.0000
  N   N1        1.0  0.49835  0.85052  0.14135  1.0000
  N   N2        1.0  0.50164  0.14948  0.85864  1.0000
  N   N3        1.0  0.88994  0.99866  0.97114  1.0000
  N   N4        1.0  0.11007  0.00134  0.02885  1.0000
  N   N5        1.0  0.50208  0.66410  0.35910  1.0000
  N   N6        1.0  0.49792  0.33590  0.64091  1.0000
  N   N7        1.0  0.86716  0.49683  0.51721  1.0000
  N   N8        1.0  0.13284  0.50317  0.48279  1.0000
  O   O1        1.0  0.20413  0.85584  0.47741  1.0000
  O   O2        1.0  0.79587  0.14415  0.52260  1.0000
  O   O3        1.0  0.22754  0.00162  0.35881  1.0000
  O   O4        1.0  0.77246  0.99837  0.64119  1.0000
  O   O5        1.0  0.22161  0.72917  0.21123  1.0000
  O   O6        1.0  0.77840  0.27081  0.78878  1.0000
  O   O7        1.0  0.42838  0.58315  0.15508  1.0000
  O   O8        1.0  0.57164  0.41683  0.84491  1.0000
