data_image0
_chemical_formula_structural       Cd2H32C30N12O12
_chemical_formula_sum              "Cd2 H32 C30 N12 O12"
_cell_length_a       9.73818
_cell_length_b       10.4412
_cell_length_c       11.0247
_cell_angle_alpha    67.5213
_cell_angle_beta     80.3301
_cell_angle_gamma    68.6488

_space_group_name_H-M_alt    "P 1"
_space_group_IT_number       1

loop_
  _space_group_symop_operation_xyz
  'x, y, z'

loop_
  _atom_site_type_symbol
  _atom_site_label
  _atom_site_symmetry_multiplicity
  _atom_site_fract_x
  _atom_site_fract_y
  _atom_site_fract_z
  _atom_site_occupancy
  Cd  Cd1       1.0  0.42732  0.96092  0.30000  1.0000
  Cd  Cd2       1.0  0.57268  0.03907  0.70000  1.0000
  H   H1        1.0  0.68841  0.68431  0.04426  1.0000
  H   H2        1.0  0.31160  0.31568  0.95574  1.0000
  H   H3        1.0  0.72600  0.26049  0.04361  1.0000
  H   H4        1.0  0.27399  0.73951  0.95639  1.0000
  H   H5        1.0  0.41416  0.44782  0.30802  1.0000
  H   H6        1.0  0.58584  0.55218  0.69198  1.0000
  H   H7        1.0  0.06522  0.24620  0.19062  1.0000
  H   H8        1.0  0.93479  0.75381  0.80938  1.0000
  H   H9        1.0  0.36281  0.96895  0.99894  1.0000
  H   H10       1.0  0.63719  0.03105  0.00106  1.0000
  H   H11       1.0  0.24053  0.09152  0.77897  1.0000
  H   H12       1.0  0.75947  0.90848  0.22103  1.0000
  H   H13       1.0  0.12810  0.27778  0.74713  1.0000
  H   H14       1.0  0.87190  0.72222  0.25287  1.0000
  H   H15       1.0  0.90626  0.19089  0.84319  1.0000
  H   H16       1.0  0.09374  0.80911  0.15680  1.0000
  H   H17       1.0  0.02177  0.00868  0.86052  1.0000
  H   H18       1.0  0.97823  0.99132  0.13947  1.0000
  H   H19       1.0  0.86535  0.14244  0.65986  1.0000
  H   H20       1.0  0.13465  0.85756  0.34014  1.0000
  H   H21       1.0  0.96499  0.26758  0.59813  1.0000
  H   H22       1.0  0.03501  0.73242  0.40187  1.0000
  H   H23       1.0  0.19055  0.19806  0.45125  1.0000
  H   H24       1.0  0.80946  0.80195  0.54876  1.0000
  H   H25       1.0  0.25094  0.74820  0.57112  1.0000
  H   H26       1.0  0.74907  0.25180  0.42887  1.0000
  H   H27       1.0  0.90692  0.39429  0.94622  1.0000
  H   H28       1.0  0.09308  0.60571  0.05378  1.0000
  H   H29       1.0  0.55668  0.68820  0.45532  1.0000
  H   H30       1.0  0.44332  0.31179  0.54469  1.0000
  H   H31       1.0  0.58701  0.76595  0.54324  1.0000
  H   H32       1.0  0.41299  0.23405  0.45676  1.0000
  C   C1        1.0  0.48649  0.69632  0.24114  1.0000
  C   C2        1.0  0.51351  0.30368  0.75886  1.0000
  C   C3        1.0  0.54716  0.57647  0.18360  1.0000
  C   C4        1.0  0.45284  0.42353  0.81640  1.0000
  C   C5        1.0  0.65515  0.58719  0.08272  1.0000
  C   C6        1.0  0.34486  0.41281  0.91728  1.0000
  C   C7        1.0  0.72198  0.47388  0.03218  1.0000
  C   C8        1.0  0.27802  0.52612  0.96782  1.0000
  C   C9        1.0  0.67740  0.34951  0.08240  1.0000
  C   C10       1.0  0.32259  0.65048  0.91761  1.0000
  C   C11       1.0  0.56674  0.33965  0.18155  1.0000
  C   C12       1.0  0.43325  0.66035  0.81845  1.0000
  C   C13       1.0  0.50161  0.45301  0.23254  1.0000
  C   C14       1.0  0.49838  0.54699  0.76746  1.0000
  C   C15       1.0  0.51770  0.20824  0.23091  1.0000
  C   C16       1.0  0.48229  0.79177  0.76909  1.0000
  C   C17       1.0  0.11745  0.19481  0.11852  1.0000
  C   C18       1.0  0.88255  0.80520  0.88147  1.0000
  C   C19       1.0  0.27005  0.05241  0.02379  1.0000
  C   C20       1.0  0.72995  0.94759  0.97621  1.0000
  C   C21       1.0  0.13899  0.16372  0.80954  1.0000
  C   C22       1.0  0.86101  0.83628  0.19046  1.0000
  C   C23       1.0  0.00458  0.12504  0.80209  1.0000
  C   C24       1.0  0.99541  0.87496  0.19791  1.0000
  C   C25       1.0  0.97185  0.15497  0.66171  1.0000
  C   C26       1.0  0.02815  0.84503  0.33829  1.0000
  C   C27       1.0  0.17978  0.09019  0.50123  1.0000
  C   C28       1.0  0.82023  0.90982  0.49877  1.0000
  C   C29       1.0  0.20800  0.86218  0.56472  1.0000
  C   C30       1.0  0.79200  0.13782  0.43528  1.0000
  N   N1        1.0  0.24591  0.07983  0.13633  1.0000
  N   N2        1.0  0.75409  0.92017  0.86367  1.0000
  N   N3        1.0  0.06078  0.23827  0.00233  1.0000
  N   N4        1.0  0.93922  0.76173  0.99767  1.0000
  N   N5        1.0  0.15954  0.14683  0.94314  1.0000
  N   N6        1.0  0.84046  0.85317  0.05686  1.0000
  N   N7        1.0  0.25978  0.96858  0.47502  1.0000
  N   N8        1.0  0.74023  0.03142  0.52498  1.0000
  N   N9        1.0  0.08419  0.05731  0.60160  1.0000
  N   N10       1.0  0.91581  0.94269  0.39840  1.0000
  N   N11       1.0  0.10056  0.91175  0.64358  1.0000
  N   N12       1.0  0.89945  0.08825  0.35642  1.0000
  O   O1        1.0  0.82701  0.49094  0.93417  1.0000
  O   O2        1.0  0.17299  0.50906  0.06584  1.0000
  O   O3        1.0  0.42138  0.19511  0.32551  1.0000
  O   O4        1.0  0.57861  0.80490  0.67449  1.0000
  O   O5        1.0  0.57205  0.11026  0.17756  1.0000
  O   O6        1.0  0.42796  0.88974  0.82245  1.0000
  O   O7        1.0  0.40514  0.68011  0.34485  1.0000
  O   O8        1.0  0.59486  0.31990  0.65514  1.0000
  O   O9        1.0  0.52629  0.81061  0.18118  1.0000
  O   O10       1.0  0.47371  0.18939  0.81882  1.0000
  O   O11       1.0  0.60316  0.75813  0.45332  1.0000
  O   O12       1.0  0.39685  0.24186  0.54668  1.0000
