data_image0
_chemical_formula_structural       Cd2H32C30N12O12
_chemical_formula_sum              "Cd2 H32 C30 N12 O12"
_cell_length_a       9.74895
_cell_length_b       10.4324
_cell_length_c       11.0191
_cell_angle_alpha    66.647
_cell_angle_beta     80.3853
_cell_angle_gamma    68.4549

_space_group_name_H-M_alt    "P 1"
_space_group_IT_number       1

loop_
  _space_group_symop_operation_xyz
  'x, y, z'

loop_
  _atom_site_type_symbol
  _atom_site_label
  _atom_site_symmetry_multiplicity
  _atom_site_fract_x
  _atom_site_fract_y
  _atom_site_fract_z
  _atom_site_occupancy
  Cd  Cd1       1.0  0.07611  0.53989  0.69888  1.0000
  Cd  Cd2       1.0  0.92389  0.46011  0.30112  1.0000
  H   H1        1.0  0.09202  0.05250  0.69650  1.0000
  H   H2        1.0  0.90799  0.94749  0.30350  1.0000
  H   H3        1.0  0.81032  0.81543  0.94914  1.0000
  H   H4        1.0  0.18968  0.18457  0.05086  1.0000
  H   H5        1.0  0.77375  0.23614  0.95768  1.0000
  H   H6        1.0  0.22626  0.76386  0.04231  1.0000
  H   H7        1.0  0.43612  0.25276  0.81338  1.0000
  H   H8        1.0  0.56388  0.74725  0.18662  1.0000
  H   H9        1.0  0.13889  0.53182  0.00164  1.0000
  H   H10       1.0  0.86110  0.46818  0.99836  1.0000
  H   H11       1.0  0.36590  0.22099  0.25890  1.0000
  H   H12       1.0  0.63410  0.77901  0.74110  1.0000
  H   H13       1.0  0.26292  0.41179  0.22097  1.0000
  H   H14       1.0  0.73708  0.58821  0.77903  1.0000
  H   H15       1.0  0.59817  0.29177  0.16747  1.0000
  H   H16       1.0  0.40182  0.70824  0.83253  1.0000
  H   H17       1.0  0.49105  0.47882  0.14331  1.0000
  H   H18       1.0  0.50895  0.52119  0.85669  1.0000
  H   H19       1.0  0.53470  0.22030  0.41175  1.0000
  H   H20       1.0  0.46530  0.77970  0.58825  1.0000
  H   H21       1.0  0.63986  0.34080  0.35007  1.0000
  H   H22       1.0  0.36013  0.65920  0.64993  1.0000
  H   H23       1.0  0.25048  0.75050  0.41673  1.0000
  H   H24       1.0  0.74952  0.24951  0.58327  1.0000
  H   H25       1.0  0.31661  0.29480  0.56091  1.0000
  H   H26       1.0  0.68339  0.70520  0.43909  1.0000
  H   H27       1.0  0.59444  0.10159  0.05423  1.0000
  H   H28       1.0  0.40556  0.89841  0.94577  1.0000
  H   H29       1.0  0.93875  0.81644  0.53439  1.0000
  H   H30       1.0  0.06125  0.18356  0.46560  1.0000
  H   H31       1.0  0.91321  0.73112  0.45231  1.0000
  H   H32       1.0  0.08679  0.26888  0.54769  1.0000
  C   C1        1.0  0.93589  0.15895  0.82136  1.0000
  C   C2        1.0  0.06411  0.84104  0.17864  1.0000
  C   C3        1.0  0.00217  0.04684  0.76947  1.0000
  C   C4        1.0  0.99783  0.95315  0.23053  1.0000
  C   C5        1.0  0.95479  0.92410  0.81454  1.0000
  C   C6        1.0  0.04521  0.07590  0.18546  1.0000
  C   C7        1.0  0.84443  0.91243  0.91310  1.0000
  C   C8        1.0  0.15557  0.08757  0.08690  1.0000
  C   C9        1.0  0.77778  0.02355  0.96570  1.0000
  C   C10       1.0  0.22222  0.97645  0.03430  1.0000
  C   C11       1.0  0.82340  0.14790  0.91852  1.0000
  C   C12       1.0  0.17660  0.85210  0.08148  1.0000
  C   C13       1.0  0.98388  0.29164  0.77325  1.0000
  C   C14       1.0  0.01612  0.70836  0.22675  1.0000
  C   C15       1.0  0.01678  0.80542  0.75614  1.0000
  C   C16       1.0  0.98322  0.19457  0.24386  1.0000
  C   C17       1.0  0.38413  0.30447  0.88475  1.0000
  C   C18       1.0  0.61587  0.69554  0.11525  1.0000
  C   C19       1.0  0.23166  0.44782  0.97760  1.0000
  C   C20       1.0  0.76834  0.55218  0.02240  1.0000
  C   C21       1.0  0.36224  0.33394  0.19428  1.0000
  C   C22       1.0  0.63776  0.66607  0.80573  1.0000
  C   C23       1.0  0.50134  0.36319  0.20447  1.0000
  C   C24       1.0  0.49866  0.63681  0.79553  1.0000
  C   C25       1.0  0.53186  0.33256  0.34615  1.0000
  C   C26       1.0  0.46814  0.66744  0.65385  1.0000
  C   C27       1.0  0.29474  0.63422  0.42941  1.0000
  C   C28       1.0  0.70525  0.36578  0.57059  1.0000
  C   C29       1.0  0.32591  0.40341  0.50496  1.0000
  C   C30       1.0  0.67409  0.59659  0.49504  1.0000
  N   N1        1.0  0.25556  0.42048  0.86530  1.0000
  N   N2        1.0  0.74444  0.57952  0.13470  1.0000
  N   N3        1.0  0.44112  0.26012  0.00171  1.0000
  N   N4        1.0  0.55887  0.73989  0.99829  1.0000
  N   N5        1.0  0.34245  0.35220  0.05973  1.0000
  N   N6        1.0  0.65755  0.64780  0.94027  1.0000
  N   N7        1.0  0.42001  0.43388  0.40233  1.0000
  N   N8        1.0  0.57999  0.56612  0.59767  1.0000
  N   N9        1.0  0.40176  0.58120  0.35264  1.0000
  N   N10       1.0  0.59824  0.41880  0.64736  1.0000
  N   N11       1.0  0.24498  0.52841  0.52507  1.0000
  N   N12       1.0  0.75502  0.47159  0.47493  1.0000
  O   O1        1.0  0.92841  0.38897  0.82632  1.0000
  O   O2        1.0  0.07160  0.61103  0.17368  1.0000
  O   O3        1.0  0.08025  0.30695  0.67843  1.0000
  O   O4        1.0  0.91977  0.69304  0.32157  1.0000
  O   O5        1.0  0.10157  0.82189  0.65475  1.0000
  O   O6        1.0  0.89843  0.17810  0.34526  1.0000
  O   O7        1.0  0.97445  0.69150  0.81401  1.0000
  O   O8        1.0  0.02555  0.30850  0.18599  1.0000
  O   O9        1.0  0.67246  0.00397  0.06296  1.0000
  O   O10       1.0  0.32754  0.99603  0.93704  1.0000
  O   O11       1.0  0.89914  0.73983  0.54185  1.0000
  O   O12       1.0  0.10086  0.26017  0.45815  1.0000
