data_image0
_chemical_formula_structural       Ag2P4H56C66S4N2O4
_chemical_formula_sum              "Ag2 P4 H56 C66 S4 N2 O4"
_cell_length_a       11.2221
_cell_length_b       12.9416
_cell_length_c       13.1292
_cell_angle_alpha    114.015
_cell_angle_beta     100.252
_cell_angle_gamma    105.358

_space_group_name_H-M_alt    "P 1"
_space_group_IT_number       1

loop_
  _space_group_symop_operation_xyz
  'x, y, z'

loop_
  _atom_site_type_symbol
  _atom_site_label
  _atom_site_symmetry_multiplicity
  _atom_site_fract_x
  _atom_site_fract_y
  _atom_site_fract_z
  _atom_site_occupancy
  Ag  Ag1       1.0  0.62891  0.81089  0.07281  1.0000
  Ag  Ag2       1.0  0.37108  0.18911  0.92718  1.0000
  P   P1        1.0  0.69585  0.00946  0.08267  1.0000
  P   P2        1.0  0.30414  0.99054  0.91733  1.0000
  P   P3        1.0  0.66947  0.62566  0.99016  1.0000
  P   P4        1.0  0.33053  0.37434  0.00984  1.0000
  H   H1        1.0  0.28302  0.84663  0.31968  1.0000
  H   H2        1.0  0.71697  0.15336  0.68033  1.0000
  H   H3        1.0  0.60036  0.86141  0.65185  1.0000
  H   H4        1.0  0.39966  0.13859  0.34815  1.0000
  H   H5        1.0  0.38633  0.87827  0.66668  1.0000
  H   H6        1.0  0.61368  0.12173  0.33332  1.0000
  H   H7        1.0  0.23094  0.87228  0.50446  1.0000
  H   H8        1.0  0.76907  0.12771  0.49555  1.0000
  H   H9        1.0  0.83243  0.79411  0.23262  1.0000
  H   H10       1.0  0.16758  0.20590  0.76740  1.0000
  H   H11       1.0  0.79030  0.44133  0.96458  1.0000
  H   H12       1.0  0.20971  0.55868  0.03543  1.0000
  H   H13       1.0  0.02034  0.79718  0.36716  1.0000
  H   H14       1.0  0.97968  0.20283  0.63285  1.0000
  H   H15       1.0  0.09231  0.62017  0.30106  1.0000
  H   H16       1.0  0.90770  0.37983  0.69893  1.0000
  H   H17       1.0  0.97663  0.44342  0.10105  1.0000
  H   H18       1.0  0.02338  0.55659  0.89895  1.0000
  H   H19       1.0  0.83582  0.53145  0.58614  1.0000
  H   H20       1.0  0.16417  0.46855  0.41386  1.0000
  H   H21       1.0  0.88879  0.75826  0.95044  1.0000
  H   H22       1.0  0.11120  0.24174  0.04956  1.0000
  H   H23       1.0  0.55680  0.41707  0.74178  1.0000
  H   H24       1.0  0.44320  0.58291  0.25822  1.0000
  H   H25       1.0  0.63333  0.37953  0.57015  1.0000
  H   H26       1.0  0.36667  0.62047  0.42986  1.0000
  H   H27       1.0  0.96364  0.72055  0.77695  1.0000
  H   H28       1.0  0.03633  0.27945  0.22305  1.0000
  H   H29       1.0  0.74185  0.27600  0.23005  1.0000
  H   H30       1.0  0.25816  0.72400  0.76995  1.0000
  H   H31       1.0  0.89386  0.42875  0.42898  1.0000
  H   H32       1.0  0.10615  0.57126  0.57102  1.0000
  H   H33       1.0  0.04687  0.37263  0.54123  1.0000
  H   H34       1.0  0.95313  0.62737  0.45877  1.0000
  H   H35       1.0  0.04455  0.16211  0.45171  1.0000
  H   H36       1.0  0.95545  0.83789  0.54829  1.0000
  H   H37       1.0  0.88770  0.00651  0.25342  1.0000
  H   H38       1.0  0.11230  0.99350  0.74658  1.0000
  H   H39       1.0  0.73661  0.84005  0.88246  1.0000
  H   H40       1.0  0.26337  0.15995  0.11754  1.0000
  H   H41       1.0  0.91020  0.24380  0.89835  1.0000
  H   H42       1.0  0.08981  0.75620  0.10165  1.0000
  H   H43       1.0  0.81805  0.22683  0.05146  1.0000
  H   H44       1.0  0.18195  0.77317  0.94855  1.0000
  H   H45       1.0  0.91451  0.05951  0.73629  1.0000
  H   H46       1.0  0.08550  0.94049  0.26372  1.0000
  H   H47       1.0  0.83128  0.85814  0.73012  1.0000
  H   H48       1.0  0.16871  0.14186  0.26988  1.0000
  H   H49       1.0  0.51469  0.05792  0.13229  1.0000
  H   H50       1.0  0.48531  0.94209  0.86771  1.0000
  H   H51       1.0  0.57866  0.13849  0.05900  1.0000
  H   H52       1.0  0.42133  0.86152  0.94100  1.0000
  H   H53       1.0  0.45075  0.48025  0.87343  1.0000
  H   H54       1.0  0.54925  0.51975  0.12657  1.0000
  H   H55       1.0  0.54913  0.40862  0.91710  1.0000
  H   H56       1.0  0.45085  0.59138  0.08288  1.0000
  C   C1        1.0  0.55709  0.84321  0.47637  1.0000
  C   C2        1.0  0.44292  0.15679  0.52364  1.0000
  C   C3        1.0  0.52410  0.82616  0.28490  1.0000
  C   C4        1.0  0.47589  0.17384  0.71509  1.0000
  C   C5        1.0  0.46959  0.83876  0.38291  1.0000
  C   C6        1.0  0.53041  0.16124  0.61709  1.0000
  C   C7        1.0  0.35052  0.84811  0.39157  1.0000
  C   C8        1.0  0.64948  0.15190  0.60845  1.0000
  C   C9        1.0  0.53042  0.85631  0.57916  1.0000
  C   C10       1.0  0.46959  0.14369  0.42084  1.0000
  C   C11       1.0  0.41058  0.86579  0.58697  1.0000
  C   C12       1.0  0.58943  0.13422  0.41304  1.0000
  C   C13       1.0  0.32182  0.86158  0.49449  1.0000
  C   C14       1.0  0.67820  0.13842  0.50552  1.0000
  C   C15       1.0  0.80004  0.61895  0.08974  1.0000
  C   C16       1.0  0.19996  0.38105  0.91026  1.0000
  C   C17       1.0  0.86529  0.71803  0.20339  1.0000
  C   C18       1.0  0.13471  0.28198  0.79662  1.0000
  C   C19       1.0  0.83993  0.51916  0.05299  1.0000
  C   C20       1.0  0.16007  0.48085  0.94701  1.0000
  C   C21       1.0  0.97011  0.71873  0.27941  1.0000
  C   C22       1.0  0.02990  0.28127  0.72059  1.0000
  C   C23       1.0  0.00992  0.61986  0.24248  1.0000
  C   C24       1.0  0.99009  0.38014  0.75752  1.0000
  C   C25       1.0  0.94429  0.51994  0.12949  1.0000
  C   C26       1.0  0.05572  0.48007  0.87051  1.0000
  C   C27       1.0  0.71813  0.59000  0.85858  1.0000
  C   C28       1.0  0.28187  0.40999  0.14142  1.0000
  C   C29       1.0  0.80302  0.54753  0.66245  1.0000
  C   C30       1.0  0.19698  0.45246  0.33755  1.0000
  C   C31       1.0  0.83258  0.67507  0.86705  1.0000
  C   C32       1.0  0.16741  0.32493  0.13295  1.0000
  C   C33       1.0  0.64638  0.48384  0.75088  1.0000
  C   C34       1.0  0.35362  0.51615  0.24912  1.0000
  C   C35       1.0  0.68922  0.46282  0.65326  1.0000
  C   C36       1.0  0.31077  0.53717  0.34674  1.0000
  C   C37       1.0  0.87487  0.65392  0.76954  1.0000
  C   C38       1.0  0.12512  0.34608  0.23046  1.0000
  C   C39       1.0  0.80571  0.13060  0.22732  1.0000
  C   C40       1.0  0.19429  0.86940  0.77268  1.0000
  C   C41       1.0  0.80774  0.25002  0.27769  1.0000
  C   C42       1.0  0.19226  0.74999  0.72231  1.0000
  C   C43       1.0  0.89389  0.33660  0.39046  1.0000
  C   C44       1.0  0.10611  0.66341  0.60954  1.0000
  C   C45       1.0  0.97938  0.30551  0.45306  1.0000
  C   C46       1.0  0.02063  0.69449  0.54694  1.0000
  C   C47       1.0  0.97823  0.18701  0.40343  1.0000
  C   C48       1.0  0.02177  0.81299  0.59657  1.0000
  C   C49       1.0  0.89088  0.09990  0.29165  1.0000
  C   C50       1.0  0.10912  0.90011  0.70836  1.0000
  C   C51       1.0  0.77055  0.03159  0.97668  1.0000
  C   C52       1.0  0.22945  0.96840  0.02332  1.0000
  C   C53       1.0  0.77487  0.92848  0.88568  1.0000
  C   C54       1.0  0.22512  0.07152  0.11432  1.0000
  C   C55       1.0  0.87279  0.15542  0.89543  1.0000
  C   C56       1.0  0.12721  0.84458  0.10457  1.0000
  C   C57       1.0  0.82042  0.14551  0.98132  1.0000
  C   C58       1.0  0.17957  0.85449  0.01868  1.0000
  C   C59       1.0  0.87638  0.05226  0.80481  1.0000
  C   C60       1.0  0.12362  0.94773  0.19519  1.0000
  C   C61       1.0  0.82800  0.93881  0.80033  1.0000
  C   C62       1.0  0.17199  0.06119  0.19967  1.0000
  C   C63       1.0  0.55194  0.04997  0.05846  1.0000
  C   C64       1.0  0.44807  0.95004  0.94155  1.0000
  C   C65       1.0  0.52526  0.49111  0.94801  1.0000
  C   C66       1.0  0.47473  0.50889  0.05199  1.0000
  S   S1        1.0  0.43829  0.81485  0.15820  1.0000
  S   S2        1.0  0.56170  0.18513  0.84179  1.0000
  S   S3        1.0  0.69698  0.82983  0.43419  1.0000
  S   S4        1.0  0.30301  0.17015  0.56580  1.0000
  N   N1        1.0  0.64345  0.82362  0.30447  1.0000
  N   N2        1.0  0.35654  0.17637  0.69552  1.0000
  O   O1        1.0  0.81345  0.93937  0.50991  1.0000
  O   O2        1.0  0.18656  0.06063  0.49009  1.0000
  O   O3        1.0  0.70743  0.71483  0.41698  1.0000
  O   O4        1.0  0.29257  0.28518  0.58302  1.0000
