data_image0
_chemical_formula_structural       Zn4H12C28N4O16
_chemical_formula_sum              "Zn4 H12 C28 N4 O16"
_cell_length_a       6.56731
_cell_length_b       8.50457
_cell_length_c       12.9414
_cell_angle_alpha    90.0003
_cell_angle_beta     89.9998
_cell_angle_gamma    89.9998

_space_group_name_H-M_alt    "P 1"
_space_group_IT_number       1

loop_
  _space_group_symop_operation_xyz
  'x, y, z'

loop_
  _atom_site_type_symbol
  _atom_site_label
  _atom_site_symmetry_multiplicity
  _atom_site_fract_x
  _atom_site_fract_y
  _atom_site_fract_z
  _atom_site_occupancy
  Zn  Zn1       1.0  0.05784  0.66289  0.74879  1.0000
  Zn  Zn2       1.0  0.94216  0.33711  0.24879  1.0000
  Zn  Zn3       1.0  0.44216  0.16289  0.74879  1.0000
  Zn  Zn4       1.0  0.55784  0.83711  0.24879  1.0000
  H   H1        1.0  0.86223  0.72933  0.54452  1.0000
  H   H2        1.0  0.13777  0.27067  0.04452  1.0000
  H   H3        1.0  0.63776  0.22933  0.54451  1.0000
  H   H4        1.0  0.36223  0.77067  0.04451  1.0000
  H   H5        1.0  0.53500  0.51833  0.45354  1.0000
  H   H6        1.0  0.46499  0.48167  0.95355  1.0000
  H   H7        1.0  0.96499  0.01833  0.45354  1.0000
  H   H8        1.0  0.03501  0.98167  0.95355  1.0000
  H   H9        1.0  0.43364  0.57243  0.63603  1.0000
  H   H10       1.0  0.56635  0.42757  0.13603  1.0000
  H   H11       1.0  0.06635  0.07244  0.63602  1.0000
  H   H12       1.0  0.93364  0.92757  0.13603  1.0000
  C   C1        1.0  0.00875  0.68022  0.52145  1.0000
  C   C2        1.0  0.99125  0.31978  0.02145  1.0000
  C   C3        1.0  0.49124  0.18022  0.52144  1.0000
  C   C4        1.0  0.50875  0.81978  0.02144  1.0000
  C   C5        1.0  0.04959  0.64797  0.41767  1.0000
  C   C6        1.0  0.95041  0.35203  0.91767  1.0000
  C   C7        1.0  0.45040  0.14797  0.41767  1.0000
  C   C8        1.0  0.54960  0.85203  0.91767  1.0000
  C   C9        1.0  0.24140  0.58530  0.39188  1.0000
  C   C10       1.0  0.75860  0.41471  0.89188  1.0000
  C   C11       1.0  0.25859  0.08529  0.39188  1.0000
  C   C12       1.0  0.74141  0.91470  0.89188  1.0000
  C   C13       1.0  0.38390  0.56420  0.47107  1.0000
  C   C14       1.0  0.61609  0.43580  0.97107  1.0000
  C   C15       1.0  0.11609  0.06420  0.47107  1.0000
  C   C16       1.0  0.88391  0.93580  0.97107  1.0000
  C   C17       1.0  0.32896  0.59561  0.57255  1.0000
  C   C18       1.0  0.67104  0.40439  0.07255  1.0000
  C   C19       1.0  0.17104  0.09561  0.57255  1.0000
  C   C20       1.0  0.82895  0.90439  0.07255  1.0000
  C   C21       1.0  0.88956  0.67971  0.33763  1.0000
  C   C22       1.0  0.11043  0.32029  0.83763  1.0000
  C   C23       1.0  0.61043  0.17971  0.33762  1.0000
  C   C24       1.0  0.38957  0.82029  0.83762  1.0000
  C   C25       1.0  0.30440  0.53409  0.28487  1.0000
  C   C26       1.0  0.69560  0.46591  0.78486  1.0000
  C   C27       1.0  0.19560  0.03409  0.28486  1.0000
  C   C28       1.0  0.80441  0.96591  0.78486  1.0000
  N   N1        1.0  0.14271  0.65056  0.59743  1.0000
  N   N2        1.0  0.85729  0.34944  0.09743  1.0000
  N   N3        1.0  0.35729  0.15056  0.59743  1.0000
  N   N4        1.0  0.64271  0.84944  0.09743  1.0000
  O   O1        1.0  0.77084  0.79728  0.35583  1.0000
  O   O2        1.0  0.22916  0.20273  0.85582  1.0000
  O   O3        1.0  0.72916  0.29727  0.35582  1.0000
  O   O4        1.0  0.27085  0.70273  0.85582  1.0000
  O   O5        1.0  0.87921  0.59346  0.25878  1.0000
  O   O6        1.0  0.12078  0.40654  0.75877  1.0000
  O   O7        1.0  0.62078  0.09346  0.25877  1.0000
  O   O8        1.0  0.37922  0.90655  0.75877  1.0000
  O   O9        1.0  0.23632  0.40269  0.25250  1.0000
  O   O10       1.0  0.76368  0.59731  0.75250  1.0000
  O   O11       1.0  0.26368  0.90269  0.25250  1.0000
  O   O12       1.0  0.73633  0.09732  0.75250  1.0000
  O   O13       1.0  0.43506  0.61210  0.23579  1.0000
  O   O14       1.0  0.56495  0.38790  0.73579  1.0000
  O   O15       1.0  0.06494  0.11210  0.23578  1.0000
  O   O16       1.0  0.93506  0.88790  0.73578  1.0000
