data_image0
_chemical_formula_structural       Cd6H24C28N4O24
_chemical_formula_sum              "Cd6 H24 C28 N4 O24"
_cell_length_a       6.70482
_cell_length_b       10.6846
_cell_length_c       13.0929
_cell_angle_alpha    102.522
_cell_angle_beta     90.0215
_cell_angle_gamma    108.277

_space_group_name_H-M_alt    "P 1"
_space_group_IT_number       1

loop_
  _space_group_symop_operation_xyz
  'x, y, z'

loop_
  _atom_site_type_symbol
  _atom_site_label
  _atom_site_symmetry_multiplicity
  _atom_site_fract_x
  _atom_site_fract_y
  _atom_site_fract_z
  _atom_site_occupancy
  Cd  Cd1       1.0  0.33708  0.83808  0.95299  1.0000
  Cd  Cd2       1.0  0.49917  0.16201  0.54698  1.0000
  Cd  Cd3       1.0  0.66292  0.16192  0.04701  1.0000
  Cd  Cd4       1.0  0.50083  0.83798  0.45302  1.0000
  Cd  Cd5       1.0  0.64390  0.00023  0.75006  1.0000
  Cd  Cd6       1.0  0.35610  0.99977  0.24994  1.0000
  H   H1        1.0  0.74601  0.47514  0.83402  1.0000
  H   H2        1.0  0.27148  0.52511  0.66583  1.0000
  H   H3        1.0  0.25400  0.52486  0.16598  1.0000
  H   H4        1.0  0.72851  0.47489  0.33417  1.0000
  H   H5        1.0  0.06238  0.53052  0.91840  1.0000
  H   H6        1.0  0.53225  0.46968  0.58176  1.0000
  H   H7        1.0  0.93763  0.46948  0.08160  1.0000
  H   H8        1.0  0.46775  0.53032  0.41824  1.0000
  H   H9        1.0  0.69429  0.70301  0.87936  1.0000
  H   H10       1.0  0.99214  0.29727  0.62046  1.0000
  H   H11       1.0  0.30572  0.29700  0.12064  1.0000
  H   H12       1.0  0.00786  0.70273  0.37954  1.0000
  H   H13       1.0  0.77460  0.95143  0.92894  1.0000
  H   H14       1.0  0.82317  0.04859  0.57111  1.0000
  H   H15       1.0  0.22540  0.04857  0.07106  1.0000
  H   H16       1.0  0.17683  0.95141  0.42889  1.0000
  H   H17       1.0  0.99211  0.87486  0.81600  1.0000
  H   H18       1.0  0.11759  0.12523  0.68395  1.0000
  H   H19       1.0  0.00788  0.12514  0.18400  1.0000
  H   H20       1.0  0.88241  0.87477  0.31605  1.0000
  H   H21       1.0  0.15724  0.00599  0.88584  1.0000
  H   H22       1.0  0.15156  0.99407  0.61416  1.0000
  H   H23       1.0  0.84276  0.99400  0.11416  1.0000
  H   H24       1.0  0.84844  0.00593  0.38584  1.0000
  C   C1        1.0  0.59129  0.48379  0.85091  1.0000
  C   C2        1.0  0.10804  0.51649  0.64908  1.0000
  C   C3        1.0  0.40872  0.51621  0.14909  1.0000
  C   C4        1.0  0.89195  0.48350  0.35092  1.0000
  C   C5        1.0  0.21035  0.51393  0.89674  1.0000
  C   C6        1.0  0.69687  0.48627  0.60338  1.0000
  C   C7        1.0  0.78965  0.48607  0.10326  1.0000
  C   C8        1.0  0.30312  0.51373  0.39662  1.0000
  C   C9        1.0  0.22462  0.38348  0.87296  1.0000
  C   C10       1.0  0.84149  0.61676  0.62719  1.0000
  C   C11       1.0  0.77538  0.61652  0.12704  1.0000
  C   C12       1.0  0.15851  0.38324  0.37281  1.0000
  C   C13       1.0  0.56329  0.61037  0.87565  1.0000
  C   C14       1.0  0.95360  0.38988  0.62427  1.0000
  C   C15       1.0  0.43672  0.38963  0.12435  1.0000
  C   C16       1.0  0.04639  0.61012  0.37573  1.0000
  C   C17       1.0  0.42074  0.36750  0.85059  1.0000
  C   C18       1.0  0.05367  0.63281  0.64956  1.0000
  C   C19       1.0  0.57926  0.63250  0.14941  1.0000
  C   C20       1.0  0.94632  0.36719  0.35044  1.0000
  C   C21       1.0  0.44949  0.23016  0.83477  1.0000
  C   C22       1.0  0.21985  0.77012  0.66533  1.0000
  C   C23       1.0  0.55051  0.76984  0.16523  1.0000
  C   C24       1.0  0.78014  0.22987  0.33467  1.0000
  C   C25       1.0  0.02923  0.26616  0.87344  1.0000
  C   C26       1.0  0.76322  0.73400  0.62661  1.0000
  C   C27       1.0  0.97078  0.73384  0.12656  1.0000
  C   C28       1.0  0.23677  0.26600  0.37339  1.0000
  N   N1        1.0  0.37514  0.62527  0.89858  1.0000
  N   N2        1.0  0.75045  0.37492  0.60144  1.0000
  N   N3        1.0  0.62487  0.37474  0.10142  1.0000
  N   N4        1.0  0.24955  0.62508  0.39856  1.0000
  O   O1        1.0  0.64934  0.97673  0.91741  1.0000
  O   O2        1.0  0.67263  0.02332  0.58265  1.0000
  O   O3        1.0  0.35067  0.02327  0.08259  1.0000
  O   O4        1.0  0.32737  0.97668  0.41735  1.0000
  O   O5        1.0  0.06459  0.91376  0.88777  1.0000
  O   O6        1.0  0.15103  0.08628  0.61220  1.0000
  O   O7        1.0  0.93540  0.08624  0.11223  1.0000
  O   O8        1.0  0.84897  0.91372  0.38780  1.0000
  O   O9        1.0  0.54899  0.19576  0.75667  1.0000
  O   O10       1.0  0.35396  0.80448  0.74339  1.0000
  O   O11       1.0  0.45102  0.80424  0.24333  1.0000
  O   O12       1.0  0.64603  0.19552  0.25661  1.0000
  O   O13       1.0  0.98981  0.16480  0.79549  1.0000
  O   O14       1.0  0.82499  0.83539  0.70453  1.0000
  O   O15       1.0  0.01019  0.83520  0.20451  1.0000
  O   O16       1.0  0.17501  0.16461  0.29547  1.0000
  O   O17       1.0  0.91895  0.28242  0.95024  1.0000
  O   O18       1.0  0.63672  0.71760  0.54971  1.0000
  O   O19       1.0  0.08106  0.71758  0.04976  1.0000
  O   O20       1.0  0.36327  0.28240  0.45030  1.0000
  O   O21       1.0  0.37717  0.16151  0.90175  1.0000
  O   O22       1.0  0.21605  0.83875  0.59834  1.0000
  O   O23       1.0  0.62283  0.83849  0.09825  1.0000
  O   O24       1.0  0.78394  0.16125  0.40166  1.0000
