data_image0
_chemical_formula_structural       Cd4H32C40O20
_chemical_formula_sum              "Cd4 H32 C40 O20"
_cell_length_a       7.01636
_cell_length_b       10.3655
_cell_length_c       13.1181
_cell_angle_alpha    102.593
_cell_angle_beta     89.9995
_cell_angle_gamma    90.0001

_space_group_name_H-M_alt    "P 1"
_space_group_IT_number       1

loop_
  _space_group_symop_operation_xyz
  'x, y, z'

loop_
  _atom_site_type_symbol
  _atom_site_label
  _atom_site_symmetry_multiplicity
  _atom_site_fract_x
  _atom_site_fract_y
  _atom_site_fract_z
  _atom_site_occupancy
  Cd  Cd1       1.0  0.01592  0.66076  0.60353  1.0000
  Cd  Cd2       1.0  0.51592  0.83924  0.89647  1.0000
  Cd  Cd3       1.0  0.98408  0.33924  0.39647  1.0000
  Cd  Cd4       1.0  0.48408  0.16076  0.10353  1.0000
  H   H1        1.0  0.07503  0.57826  0.93437  1.0000
  H   H2        1.0  0.57503  0.92174  0.56564  1.0000
  H   H3        1.0  0.92496  0.42174  0.06563  1.0000
  H   H4        1.0  0.42497  0.07826  0.43437  1.0000
  H   H5        1.0  0.28656  0.48671  0.88769  1.0000
  H   H6        1.0  0.78656  0.01329  0.61231  1.0000
  H   H7        1.0  0.71344  0.51329  0.11231  1.0000
  H   H8        1.0  0.21345  0.98671  0.38769  1.0000
  H   H9        1.0  0.24497  0.44699  0.03883  1.0000
  H   H10       1.0  0.74497  0.05300  0.46118  1.0000
  H   H11       1.0  0.75503  0.55301  0.96117  1.0000
  H   H12       1.0  0.25503  0.94699  0.53882  1.0000
  H   H13       1.0  0.29610  0.41086  0.21454  1.0000
  H   H14       1.0  0.79610  0.08913  0.28546  1.0000
  H   H15       1.0  0.70390  0.58913  0.78546  1.0000
  H   H16       1.0  0.20390  0.91087  0.71454  1.0000
  H   H17       1.0  0.52983  0.80276  0.31181  1.0000
  H   H18       1.0  0.02983  0.69724  0.18819  1.0000
  H   H19       1.0  0.47017  0.19724  0.68819  1.0000
  H   H20       1.0  0.97017  0.30276  0.81181  1.0000
  H   H21       1.0  0.46759  0.84452  0.13822  1.0000
  H   H22       1.0  0.96759  0.65548  0.36178  1.0000
  H   H23       1.0  0.53241  0.15548  0.86178  1.0000
  H   H24       1.0  0.03241  0.34452  0.63822  1.0000
  H   H25       1.0  0.49942  0.46781  0.37187  1.0000
  H   H26       1.0  0.99941  0.03219  0.12813  1.0000
  H   H27       1.0  0.50058  0.53219  0.62813  1.0000
  H   H28       1.0  0.00059  0.96781  0.87187  1.0000
  H   H29       1.0  0.59553  0.62976  0.41408  1.0000
  H   H30       1.0  0.09553  0.87025  0.08592  1.0000
  H   H31       1.0  0.40446  0.37025  0.58592  1.0000
  H   H32       1.0  0.90446  0.12976  0.91408  1.0000
  C   C1        1.0  0.20396  0.63042  0.80220  1.0000
  C   C2        1.0  0.70395  0.86958  0.69781  1.0000
  C   C3        1.0  0.79604  0.36957  0.19780  1.0000
  C   C4        1.0  0.29605  0.13042  0.30219  1.0000
  C   C5        1.0  0.21998  0.58530  0.90414  1.0000
  C   C6        1.0  0.71997  0.91470  0.59587  1.0000
  C   C7        1.0  0.78002  0.41470  0.09586  1.0000
  C   C8        1.0  0.28003  0.08530  0.40413  1.0000
  C   C9        1.0  0.35568  0.64842  0.07574  1.0000
  C   C10       1.0  0.85568  0.85158  0.42426  1.0000
  C   C11       1.0  0.64432  0.35158  0.92426  1.0000
  C   C12       1.0  0.14432  0.14842  0.57574  1.0000
  C   C13       1.0  0.30515  0.52697  0.09765  1.0000
  C   C14       1.0  0.80515  0.97303  0.40235  1.0000
  C   C15       1.0  0.69485  0.47303  0.90235  1.0000
  C   C16       1.0  0.19486  0.02697  0.59765  1.0000
  C   C17       1.0  0.33809  0.50539  0.19771  1.0000
  C   C18       1.0  0.83810  0.99460  0.30230  1.0000
  C   C19       1.0  0.66190  0.49461  0.80229  1.0000
  C   C20       1.0  0.16191  0.00540  0.69770  1.0000
  C   C21       1.0  0.42250  0.60199  0.27567  1.0000
  C   C22       1.0  0.92249  0.89801  0.22433  1.0000
  C   C23       1.0  0.57750  0.39801  0.72433  1.0000
  C   C24       1.0  0.07751  0.10199  0.77567  1.0000
  C   C25       1.0  0.46700  0.72429  0.25240  1.0000
  C   C26       1.0  0.96701  0.77570  0.24760  1.0000
  C   C27       1.0  0.53300  0.27571  0.74760  1.0000
  C   C28       1.0  0.03300  0.22430  0.75240  1.0000
  C   C29       1.0  0.43444  0.74801  0.15355  1.0000
  C   C30       1.0  0.93444  0.75198  0.34645  1.0000
  C   C31       1.0  0.56556  0.25199  0.84645  1.0000
  C   C32       1.0  0.06557  0.24802  0.65355  1.0000
  C   C33       1.0  0.46916  0.57361  0.38131  1.0000
  C   C34       1.0  0.96916  0.92639  0.11869  1.0000
  C   C35       1.0  0.53083  0.42640  0.61869  1.0000
  C   C36       1.0  0.03084  0.07361  0.88131  1.0000
  C   C37       1.0  0.30781  0.60900  0.45934  1.0000
  C   C38       1.0  0.80781  0.89099  0.04066  1.0000
  C   C39       1.0  0.69218  0.39100  0.54066  1.0000
  C   C40       1.0  0.19219  0.10901  0.95934  1.0000
  O   O1        1.0  0.09236  0.56189  0.73608  1.0000
  O   O2        1.0  0.59236  0.93811  0.76392  1.0000
  O   O3        1.0  0.90764  0.43811  0.26392  1.0000
  O   O4        1.0  0.40764  0.06189  0.23608  1.0000
  O   O5        1.0  0.29648  0.72977  0.78635  1.0000
  O   O6        1.0  0.79648  0.77023  0.71366  1.0000
  O   O7        1.0  0.70352  0.27023  0.21365  1.0000
  O   O8        1.0  0.20352  0.22977  0.28634  1.0000
  O   O9        1.0  0.32955  0.67801  0.97844  1.0000
  O   O10       1.0  0.82954  0.82199  0.52156  1.0000
  O   O11       1.0  0.67045  0.32199  0.02156  1.0000
  O   O12       1.0  0.17046  0.17801  0.47843  1.0000
  O   O13       1.0  0.29504  0.72373  0.51720  1.0000
  O   O14       1.0  0.79504  0.77626  0.98281  1.0000
  O   O15       1.0  0.70496  0.27627  0.48280  1.0000
  O   O16       1.0  0.20496  0.22374  0.01719  1.0000
  O   O17       1.0  0.18363  0.52002  0.46724  1.0000
  O   O18       1.0  0.68363  0.97997  0.03276  1.0000
  O   O19       1.0  0.81637  0.47997  0.53276  1.0000
  O   O20       1.0  0.31637  0.02003  0.96724  1.0000
