data_image0
_chemical_formula_structural       Cd2H32C44N4O10
_chemical_formula_sum              "Cd2 H32 C44 N4 O10"
_cell_length_a       8.80048
_cell_length_b       11.1438
_cell_length_c       12.5876
_cell_angle_alpha    111.392
_cell_angle_beta     109.76
_cell_angle_gamma    94.6166

_space_group_name_H-M_alt    "P 1"
_space_group_IT_number       1

loop_
  _space_group_symop_operation_xyz
  'x, y, z'

loop_
  _atom_site_type_symbol
  _atom_site_label
  _atom_site_symmetry_multiplicity
  _atom_site_fract_x
  _atom_site_fract_y
  _atom_site_fract_z
  _atom_site_occupancy
  Cd  Cd1       1.0  0.11224  0.37693  0.53260  1.0000
  Cd  Cd2       1.0  0.88776  0.62308  0.46740  1.0000
  H   H1        1.0  0.68365  0.23631  0.64214  1.0000
  H   H2        1.0  0.31635  0.76369  0.35785  1.0000
  H   H3        1.0  0.77735  0.17091  0.81952  1.0000
  H   H4        1.0  0.22265  0.82909  0.18048  1.0000
  H   H5        1.0  0.81873  0.57016  0.06949  1.0000
  H   H6        1.0  0.18128  0.42984  0.93051  1.0000
  H   H7        1.0  0.72816  0.63297  0.89391  1.0000
  H   H8        1.0  0.27183  0.36703  0.10609  1.0000
  H   H9        1.0  0.66733  0.41613  0.57059  1.0000
  H   H10       1.0  0.33267  0.58387  0.42941  1.0000
  H   H11       1.0  0.68506  0.58137  0.67449  1.0000
  H   H12       1.0  0.31493  0.41863  0.32551  1.0000
  H   H13       1.0  0.77187  0.44464  0.17812  1.0000
  H   H14       1.0  0.22814  0.55536  0.82188  1.0000
  H   H15       1.0  0.97769  0.50339  0.19530  1.0000
  H   H16       1.0  0.02231  0.49662  0.80470  1.0000
  H   H17       1.0  0.41210  0.38159  0.79064  1.0000
  H   H18       1.0  0.58790  0.61840  0.20935  1.0000
  H   H19       1.0  0.46056  0.25758  0.92479  1.0000
  H   H20       1.0  0.53944  0.74241  0.07520  1.0000
  H   H21       1.0  0.23035  0.07001  0.87525  1.0000
  H   H22       1.0  0.76964  0.92998  0.12474  1.0000
  H   H23       1.0  0.51412  0.92494  0.37788  1.0000
  H   H24       1.0  0.48587  0.07506  0.62212  1.0000
  H   H25       1.0  0.48267  0.07541  0.26790  1.0000
  H   H26       1.0  0.51733  0.92459  0.73210  1.0000
  H   H27       1.0  0.72309  0.26243  0.33829  1.0000
  H   H28       1.0  0.27691  0.73757  0.66171  1.0000
  H   H29       1.0  0.94720  0.92581  0.73379  1.0000
  H   H30       1.0  0.05279  0.07418  0.26621  1.0000
  H   H31       1.0  0.68689  0.87185  0.55181  1.0000
  H   H32       1.0  0.31311  0.12815  0.44818  1.0000
  C   C1        1.0  0.70000  0.43942  0.75532  1.0000
  C   C2        1.0  0.30000  0.56058  0.24469  1.0000
  C   C3        1.0  0.71395  0.30932  0.73639  1.0000
  C   C4        1.0  0.28605  0.69068  0.26361  1.0000
  C   C5        1.0  0.76449  0.27165  0.83453  1.0000
  C   C6        1.0  0.23552  0.72835  0.16548  1.0000
  C   C7        1.0  0.80135  0.36487  0.95579  1.0000
  C   C8        1.0  0.19866  0.63514  0.04422  1.0000
  C   C9        1.0  0.78794  0.49529  0.97640  1.0000
  C   C10       1.0  0.21207  0.50472  0.02361  1.0000
  C   C11       1.0  0.73772  0.53115  0.87670  1.0000
  C   C12       1.0  0.26229  0.46886  0.12330  1.0000
  C   C13       1.0  0.63495  0.47636  0.64699  1.0000
  C   C14       1.0  0.36504  0.52365  0.35300  1.0000
  C   C15       1.0  0.44676  0.45068  0.60288  1.0000
  C   C16       1.0  0.55324  0.54932  0.39712  1.0000
  C   C17       1.0  0.88518  0.41419  0.16993  1.0000
  C   C18       1.0  0.11483  0.58581  0.83007  1.0000
  C   C19       1.0  0.95586  0.35669  0.26377  1.0000
  C   C20       1.0  0.04415  0.64331  0.73623  1.0000
  C   C21       1.0  0.31507  0.30022  0.77198  1.0000
  C   C22       1.0  0.68493  0.69978  0.22801  1.0000
  C   C23       1.0  0.34133  0.23019  0.84721  1.0000
  C   C24       1.0  0.65867  0.76980  0.15279  1.0000
  C   C25       1.0  0.21505  0.12762  0.81996  1.0000
  C   C26       1.0  0.78495  0.87238  0.18004  1.0000
  C   C27       1.0  0.06331  0.09449  0.71712  1.0000
  C   C28       1.0  0.93668  0.90551  0.28288  1.0000
  C   C29       1.0  0.04768  0.17140  0.64683  1.0000
  C   C30       1.0  0.95232  0.82860  0.35317  1.0000
  C   C31       1.0  0.89369  0.14139  0.54133  1.0000
  C   C32       1.0  0.10630  0.85861  0.45867  1.0000
  C   C33       1.0  0.76365  0.03371  0.50905  1.0000
  C   C34       1.0  0.23635  0.96629  0.49095  1.0000
  C   C35       1.0  0.61447  0.00874  0.40675  1.0000
  C   C36       1.0  0.38553  0.99125  0.59325  1.0000
  C   C37       1.0  0.59754  0.09055  0.34530  1.0000
  C   C38       1.0  0.40246  0.90945  0.65470  1.0000
  C   C39       1.0  0.73225  0.19496  0.38361  1.0000
  C   C40       1.0  0.26775  0.80504  0.61639  1.0000
  C   C41       1.0  0.92966  0.98679  0.68158  1.0000
  C   C42       1.0  0.07033  0.01320  0.31841  1.0000
  C   C43       1.0  0.78571  0.95695  0.58055  1.0000
  C   C44       1.0  0.21429  0.04305  0.41945  1.0000
  N   N1        1.0  0.17243  0.27230  0.67573  1.0000
  N   N2        1.0  0.82757  0.72769  0.32427  1.0000
  N   N3        1.0  0.87604  0.21777  0.47724  1.0000
  N   N4        1.0  0.12396  0.78223  0.52276  1.0000
  O   O1        1.0  0.38236  0.53350  0.66372  1.0000
  O   O2        1.0  0.61764  0.46650  0.33628  1.0000
  O   O3        1.0  0.35970  0.34193  0.50945  1.0000
  O   O4        1.0  0.64029  0.65807  0.49055  1.0000
  O   O5        1.0  0.84937  0.31994  0.04693  1.0000
  O   O6        1.0  0.15065  0.68006  0.95307  1.0000
  O   O7        1.0  0.99482  0.44293  0.37784  1.0000
  O   O8        1.0  0.00518  0.55708  0.62216  1.0000
  O   O9        1.0  0.97450  0.24196  0.23384  1.0000
  O   O10       1.0  0.02550  0.75805  0.76617  1.0000
