data_image0
_chemical_formula_structural       K2H68C40N2O2
_chemical_formula_sum              "K2 H68 C40 N2 O2"
_cell_length_a       9.72926
_cell_length_b       11.2436
_cell_length_c       11.563
_cell_angle_alpha    108.385
_cell_angle_beta     102.894
_cell_angle_gamma    113.957

_space_group_name_H-M_alt    "P 1"
_space_group_IT_number       1

loop_
  _space_group_symop_operation_xyz
  'x, y, z'

loop_
  _atom_site_type_symbol
  _atom_site_label
  _atom_site_symmetry_multiplicity
  _atom_site_fract_x
  _atom_site_fract_y
  _atom_site_fract_z
  _atom_site_occupancy
  K   K1        1.0  0.39476  0.14258  0.90675  1.0000
  K   K2        1.0  0.98780  0.23644  0.09283  1.0000
  H   H1        1.0  0.90929  0.26948  0.73303  1.0000
  H   H2        1.0  0.67579  0.53632  0.26688  1.0000
  H   H3        1.0  0.10156  0.40518  0.75293  1.0000
  H   H4        1.0  0.84812  0.65217  0.24695  1.0000
  H   H5        1.0  0.02121  0.44627  0.87182  1.0000
  H   H6        1.0  0.64894  0.57416  0.12798  1.0000
  H   H7        1.0  0.33035  0.37273  0.05451  1.0000
  H   H8        1.0  0.77587  0.31828  0.94562  1.0000
  H   H9        1.0  0.29184  0.51542  0.05837  1.0000
  H   H10       1.0  0.73355  0.45710  0.94173  1.0000
  H   H11       1.0  0.37847  0.45700  0.95094  1.0000
  H   H12       1.0  0.92754  0.50610  0.04926  1.0000
  H   H13       1.0  0.83795  0.62520  0.59262  1.0000
  H   H14       1.0  0.74548  0.03255  0.40731  1.0000
  H   H15       1.0  0.83908  0.52831  0.75811  1.0000
  H   H16       1.0  0.58104  0.77018  0.24182  1.0000
  H   H17       1.0  0.97894  0.70290  0.99976  1.0000
  H   H18       1.0  0.47922  0.70316  0.00014  1.0000
  H   H19       1.0  0.05840  0.01859  0.67677  1.0000
  H   H20       1.0  0.88174  0.34190  0.32337  1.0000
  H   H21       1.0  0.18712  0.86664  0.62090  1.0000
  H   H22       1.0  0.06609  0.24564  0.37922  1.0000
  H   H23       1.0  0.08939  0.88369  0.48256  1.0000
  H   H24       1.0  0.10676  0.40102  0.51762  1.0000
  H   H25       1.0  0.99340  0.71874  0.49513  1.0000
  H   H26       1.0  0.99801  0.22345  0.50495  1.0000
  H   H27       1.0  0.73277  0.73607  0.48097  1.0000
  H   H28       1.0  0.75165  0.25509  0.51906  1.0000
  H   H29       1.0  0.82817  0.89022  0.45321  1.0000
  H   H30       1.0  0.87485  0.43701  0.54685  1.0000
  H   H31       1.0  0.75354  0.90320  0.58186  1.0000
  H   H32       1.0  0.67162  0.32139  0.41818  1.0000
  H   H33       1.0  0.15482  0.10467  0.12990  1.0000
  H   H34       1.0  0.52530  0.97492  0.87012  1.0000
  H   H35       1.0  0.28050  0.90477  0.16818  1.0000
  H   H36       1.0  0.61243  0.73663  0.83200  1.0000
  H   H37       1.0  0.35740  0.08625  0.28848  1.0000
  H   H38       1.0  0.56916  0.79771  0.71159  1.0000
  H   H39       1.0  0.37802  0.05278  0.13482  1.0000
  H   H40       1.0  0.74335  0.91793  0.86526  1.0000
  H   H41       1.0  0.90008  0.93993  0.15198  1.0000
  H   H42       1.0  0.24834  0.78829  0.84819  1.0000
  H   H43       1.0  0.08135  0.03024  0.29973  1.0000
  H   H44       1.0  0.28168  0.73067  0.70032  1.0000
  H   H45       1.0  0.99472  0.84387  0.18891  1.0000
  H   H46       1.0  0.30593  0.65522  0.81123  1.0000
  H   H47       1.0  0.63332  0.10788  0.75109  1.0000
  H   H48       1.0  0.38228  0.35689  0.24879  1.0000
  H   H49       1.0  0.62044  0.03651  0.58596  1.0000
  H   H50       1.0  0.53452  0.45068  0.41386  1.0000
  H   H51       1.0  0.44641  0.95177  0.61996  1.0000
  H   H52       1.0  0.32660  0.33171  0.37989  1.0000
  H   H53       1.0  0.60311  0.26102  0.63962  1.0000
  H   H54       1.0  0.46297  0.62127  0.36020  1.0000
  H   H55       1.0  0.41639  0.10501  0.50872  1.0000
  H   H56       1.0  0.40751  0.59616  0.49124  1.0000
  H   H57       1.0  0.23927  0.24533  0.70614  1.0000
  H   H58       1.0  0.03274  0.53877  0.29362  1.0000
  H   H59       1.0  0.24748  0.19150  0.54675  1.0000
  H   H60       1.0  0.20009  0.64428  0.45311  1.0000
  H   H61       1.0  0.51796  0.47549  0.80109  1.0000
  H   H62       1.0  0.21707  0.67403  0.19896  1.0000
  H   H63       1.0  0.36717  0.46348  0.67119  1.0000
  H   H64       1.0  0.19619  0.79207  0.32881  1.0000
  H   H65       1.0  0.51967  0.42709  0.63990  1.0000
  H   H66       1.0  0.37970  0.78654  0.36023  1.0000
  H   H67       1.0  0.92100  0.08718  0.77443  1.0000
  H   H68       1.0  0.64625  0.31266  0.22560  1.0000
  C   C1        1.0  0.04526  0.15990  0.85558  1.0000
  C   C2        1.0  0.68939  0.30428  0.14445  1.0000
  C   C3        1.0  0.11755  0.30511  0.88503  1.0000
  C   C4        1.0  0.73229  0.42002  0.11502  1.0000
  C   C5        1.0  0.03322  0.35843  0.80723  1.0000
  C   C6        1.0  0.72557  0.55108  0.19271  1.0000
  C   C7        1.0  0.28689  0.41708  0.99224  1.0000
  C   C8        1.0  0.79464  0.42489  0.00792  1.0000
  C   C9        1.0  0.03720  0.95246  0.87615  1.0000
  C   C10       1.0  0.66104  0.07633  0.12384  1.0000
  C   C11       1.0  0.96714  0.85084  0.73732  1.0000
  C   C12       1.0  0.72987  0.11351  0.26266  1.0000
  C   C13       1.0  0.89322  0.70082  0.69872  1.0000
  C   C14       1.0  0.69467  0.00205  0.30118  1.0000
  C   C15       1.0  0.89410  0.64545  0.79071  1.0000
  C   C16       1.0  0.60357  0.85470  0.20921  1.0000
  C   C17       1.0  0.97320  0.74421  0.92622  1.0000
  C   C18       1.0  0.54714  0.81797  0.07371  1.0000
  C   C19       1.0  0.04367  0.89434  0.97040  1.0000
  C   C20       1.0  0.57339  0.92400  0.02962  1.0000
  C   C21       1.0  0.98156  0.89882  0.62897  1.0000
  C   C22       1.0  0.85260  0.26988  0.37113  1.0000
  C   C23       1.0  0.06780  0.83843  0.55267  1.0000
  C   C24       1.0  0.01499  0.28568  0.44748  1.0000
  C   C25       1.0  0.81469  0.85545  0.53077  1.0000
  C   C26       1.0  0.78380  0.32466  0.46925  1.0000
  C   C27       1.0  0.12815  0.99598  0.11935  1.0000
  C   C28       1.0  0.50898  0.87672  0.88066  1.0000
  C   C29       1.0  0.29484  0.01081  0.18102  1.0000
  C   C30       1.0  0.61399  0.82978  0.81903  1.0000
  C   C31       1.0  0.01991  0.95026  0.19356  1.0000
  C   C32       1.0  0.32648  0.75693  0.80650  1.0000
  C   C33       1.0  0.55180  0.05754  0.64549  1.0000
  C   C34       1.0  0.40632  0.41206  0.35439  1.0000
  C   C35       1.0  0.49615  0.15633  0.61575  1.0000
  C   C36       1.0  0.38015  0.54044  0.38420  1.0000
  C   C37       1.0  0.32344  0.25423  0.65527  1.0000
  C   C38       1.0  0.16773  0.59850  0.34463  1.0000
  C   C39       1.0  0.43932  0.41355  0.69383  1.0000
  C   C40       1.0  0.24543  0.71930  0.30619  1.0000
  N   N1        1.0  0.10691  0.10233  0.92605  1.0000
  N   N2        1.0  0.68070  0.17631  0.07397  1.0000
  O   O1        1.0  0.40554  0.18236  0.69295  1.0000
  O   O2        1.0  0.21223  0.48898  0.30710  1.0000
