data_image0
_chemical_formula_structural       Cu2H36C44S4N24
_chemical_formula_sum              "Cu2 H36 C44 S4 N24"
_cell_length_a       9.61179
_cell_length_b       9.61197
_cell_length_c       13.5799
_cell_angle_alpha    94.8275
_cell_angle_beta     94.854
_cell_angle_gamma    100.845

_space_group_name_H-M_alt    "P 1"
_space_group_IT_number       1

loop_
  _space_group_symop_operation_xyz
  'x, y, z'

loop_
  _atom_site_type_symbol
  _atom_site_label
  _atom_site_symmetry_multiplicity
  _atom_site_fract_x
  _atom_site_fract_y
  _atom_site_fract_z
  _atom_site_occupancy
  Cu  Cu1       1.0  1.00000  0.50000  0.00000  1.0000
  Cu  Cu2       1.0  0.50000  0.00000  0.50000  1.0000
  H   H1        1.0  0.27214  0.71099  0.89598  1.0000
  H   H2        1.0  0.28905  0.72797  0.60400  1.0000
  H   H3        1.0  0.72786  0.28902  0.10401  1.0000
  H   H4        1.0  0.71095  0.27202  0.39600  1.0000
  H   H5        1.0  0.52240  0.81298  0.86437  1.0000
  H   H6        1.0  0.18702  0.47769  0.63561  1.0000
  H   H7        1.0  0.47761  0.18702  0.13561  1.0000
  H   H8        1.0  0.81299  0.52230  0.36439  1.0000
  H   H9        1.0  0.70141  0.66215  0.85367  1.0000
  H   H10       1.0  0.33780  0.29862  0.64633  1.0000
  H   H11       1.0  0.29859  0.33784  0.14632  1.0000
  H   H12       1.0  0.66221  0.70138  0.35367  1.0000
  H   H13       1.0  0.64193  0.40194  0.86688  1.0000
  H   H14       1.0  0.59801  0.35806  0.63313  1.0000
  H   H15       1.0  0.35807  0.59806  0.13311  1.0000
  H   H16       1.0  0.40200  0.64195  0.36687  1.0000
  H   H17       1.0  0.32080  0.06691  0.92469  1.0000
  H   H18       1.0  0.93307  0.67922  0.57536  1.0000
  H   H19       1.0  0.67920  0.93310  0.07531  1.0000
  H   H20       1.0  0.06694  0.32079  0.42465  1.0000
  H   H21       1.0  0.49812  0.14644  0.90229  1.0000
  H   H22       1.0  0.85356  0.50191  0.59774  1.0000
  H   H23       1.0  0.50187  0.85357  0.09771  1.0000
  H   H24       1.0  0.14645  0.49810  0.40227  1.0000
  H   H25       1.0  0.12832  0.07752  0.75359  1.0000
  H   H26       1.0  0.92253  0.87162  0.74644  1.0000
  H   H27       1.0  0.87168  0.92248  0.24641  1.0000
  H   H28       1.0  0.07747  0.12838  0.25357  1.0000
  H   H29       1.0  0.17096  0.00504  0.55729  1.0000
  H   H30       1.0  0.99496  0.82883  0.94278  1.0000
  H   H31       1.0  0.82903  0.99495  0.44271  1.0000
  H   H32       1.0  0.00502  0.17116  0.05723  1.0000
  H   H33       1.0  0.56703  0.07911  0.73375  1.0000
  H   H34       1.0  0.92091  0.43290  0.76630  1.0000
  H   H35       1.0  0.43297  0.92088  0.26625  1.0000
  H   H36       1.0  0.07909  0.56710  0.23370  1.0000
  C   C1        1.0  0.31703  0.49765  0.89625  1.0000
  C   C2        1.0  0.50236  0.68301  0.60377  1.0000
  C   C3        1.0  0.68297  0.50235  0.10375  1.0000
  C   C4        1.0  0.49764  0.31699  0.39623  1.0000
  C   C5        1.0  0.35150  0.64465  0.88867  1.0000
  C   C6        1.0  0.35536  0.64856  0.61133  1.0000
  C   C7        1.0  0.64851  0.35535  0.11133  1.0000
  C   C8        1.0  0.64464  0.35144  0.38867  1.0000
  C   C9        1.0  0.49029  0.69961  0.87164  1.0000
  C   C10       1.0  0.30037  0.50975  0.62836  1.0000
  C   C11       1.0  0.50971  0.30039  0.12835  1.0000
  C   C12       1.0  0.69964  0.49024  0.37164  1.0000
  C   C13       1.0  0.59300  0.61237  0.86420  1.0000
  C   C14       1.0  0.38758  0.40703  0.63581  1.0000
  C   C15       1.0  0.40700  0.38763  0.13580  1.0000
  C   C16       1.0  0.61243  0.59297  0.36419  1.0000
  C   C17       1.0  0.56065  0.46679  0.87127  1.0000
  C   C18       1.0  0.53318  0.43935  0.62873  1.0000
  C   C19       1.0  0.43935  0.53321  0.12872  1.0000
  C   C20       1.0  0.46683  0.56065  0.37127  1.0000
  C   C21       1.0  0.41958  0.41086  0.88612  1.0000
  C   C22       1.0  0.58913  0.58043  0.61390  1.0000
  C   C23       1.0  0.58042  0.58914  0.11388  1.0000
  C   C24       1.0  0.41088  0.41958  0.38610  1.0000
  C   C25       1.0  0.38442  0.13959  0.87972  1.0000
  C   C26       1.0  0.86041  0.61554  0.62031  1.0000
  C   C27       1.0  0.61557  0.86041  0.12028  1.0000
  C   C28       1.0  0.13960  0.38446  0.37969  1.0000
  C   C29       1.0  0.22324  0.06254  0.71978  1.0000
  C   C30       1.0  0.93746  0.77669  0.78025  1.0000
  C   C31       1.0  0.77675  0.93746  0.28022  1.0000
  C   C32       1.0  0.06254  0.22331  0.21976  1.0000
  C   C33       1.0  0.24659  0.02857  0.62313  1.0000
  C   C34       1.0  0.97145  0.75329  0.87693  1.0000
  C   C35       1.0  0.75340  0.97143  0.37688  1.0000
  C   C36       1.0  0.02854  0.24670  0.12307  1.0000
  C   C37       1.0  0.45415  0.06816  0.71091  1.0000
  C   C38       1.0  0.93185  0.54576  0.78914  1.0000
  C   C39       1.0  0.54584  0.93183  0.28909  1.0000
  C   C40       1.0  0.06814  0.45424  0.21086  1.0000
  C   C41       1.0  0.81856  0.20807  0.91794  1.0000
  C   C42       1.0  0.79195  0.18145  0.58204  1.0000
  C   C43       1.0  0.18144  0.79192  0.08206  1.0000
  C   C44       1.0  0.20805  0.81855  0.41797  1.0000
  S   S1        1.0  0.75307  0.03916  0.89757  1.0000
  S   S2        1.0  0.96082  0.24692  0.60240  1.0000
  S   S3        1.0  0.24692  0.96083  0.10243  1.0000
  S   S4        1.0  0.03917  0.75307  0.39760  1.0000
  N   N1        1.0  0.19068  0.41209  0.91295  1.0000
  N   N2        1.0  0.58792  0.80936  0.58706  1.0000
  N   N3        1.0  0.80932  0.58792  0.08706  1.0000
  N   N4        1.0  0.41208  0.19064  0.41294  1.0000
  N   N5        1.0  0.20789  0.28122  0.91272  1.0000
  N   N6        1.0  0.71877  0.79211  0.58728  1.0000
  N   N7        1.0  0.79210  0.71878  0.08728  1.0000
  N   N8        1.0  0.28123  0.20789  0.41272  1.0000
  N   N9        1.0  0.34608  0.27698  0.89720  1.0000
  N   N10       1.0  0.72302  0.65392  0.60282  1.0000
  N   N11       1.0  0.65392  0.72302  0.10280  1.0000
  N   N12       1.0  0.27698  0.34609  0.39718  1.0000
  N   N13       1.0  0.35548  0.08681  0.77445  1.0000
  N   N14       1.0  0.91321  0.64446  0.72559  1.0000
  N   N15       1.0  0.64452  0.91319  0.22555  1.0000
  N   N16       1.0  0.08679  0.35554  0.27442  1.0000
  N   N17       1.0  0.39052  0.03231  0.61900  1.0000
  N   N18       1.0  0.96772  0.60936  0.88103  1.0000
  N   N19       1.0  0.60947  0.96768  0.38100  1.0000
  N   N20       1.0  0.03227  0.39064  0.11897  1.0000
  N   N21       1.0  0.86370  0.33266  0.93276  1.0000
  N   N22       1.0  0.66737  0.13630  0.56722  1.0000
  N   N23       1.0  0.13630  0.66733  0.06724  1.0000
  N   N24       1.0  0.33262  0.86371  0.43278  1.0000
