data_image0
_chemical_formula_structural       Cd2H40C40N4O8
_chemical_formula_sum              "Cd2 H40 C40 N4 O8"
_cell_length_a       7.6525
_cell_length_b       9.62615
_cell_length_c       12.7233
_cell_angle_alpha    77.0372
_cell_angle_beta     76.3264
_cell_angle_gamma    89.1016

_space_group_name_H-M_alt    "P 1"
_space_group_IT_number       1

loop_
  _space_group_symop_operation_xyz
  'x, y, z'

loop_
  _atom_site_type_symbol
  _atom_site_label
  _atom_site_symmetry_multiplicity
  _atom_site_fract_x
  _atom_site_fract_y
  _atom_site_fract_z
  _atom_site_occupancy
  Cd  Cd1       1.0  0.67105  0.64725  0.99137  1.0000
  Cd  Cd2       1.0  0.32895  0.35275  0.00863  1.0000
  H   H1        1.0  0.12946  0.90950  0.06965  1.0000
  H   H2        1.0  0.87054  0.09050  0.93035  1.0000
  H   H3        1.0  0.24396  0.76965  0.21521  1.0000
  H   H4        1.0  0.75604  0.23036  0.78479  1.0000
  H   H5        1.0  0.11217  0.53094  0.32668  1.0000
  H   H6        1.0  0.88784  0.46906  0.67332  1.0000
  H   H7        1.0  0.92335  0.55826  0.26902  1.0000
  H   H8        1.0  0.07665  0.44174  0.73098  1.0000
  H   H9        1.0  0.85548  0.62481  0.45276  1.0000
  H   H10       1.0  0.14451  0.37518  0.54724  1.0000
  H   H11       1.0  0.04635  0.74307  0.40856  1.0000
  H   H12       1.0  0.95365  0.25693  0.59144  1.0000
  H   H13       1.0  0.76309  0.87577  0.39068  1.0000
  H   H14       1.0  0.23691  0.12423  0.60932  1.0000
  H   H15       1.0  0.72122  0.76608  0.30435  1.0000
  H   H16       1.0  0.27878  0.23392  0.69565  1.0000
  H   H17       1.0  0.04688  0.97245  0.24819  1.0000
  H   H18       1.0  0.95312  0.02755  0.75182  1.0000
  H   H19       1.0  0.85720  0.99865  0.18951  1.0000
  H   H20       1.0  0.14280  0.00135  0.81049  1.0000
  H   H21       1.0  0.82090  0.34890  0.10241  1.0000
  H   H22       1.0  0.17910  0.65109  0.89759  1.0000
  H   H23       1.0  0.81836  0.18977  0.28341  1.0000
  H   H24       1.0  0.18164  0.81023  0.71659  1.0000
  H   H25       1.0  0.43178  0.46176  0.43731  1.0000
  H   H26       1.0  0.56821  0.53825  0.56269  1.0000
  H   H27       1.0  0.45533  0.61441  0.24769  1.0000
  H   H28       1.0  0.54467  0.38558  0.75230  1.0000
  H   H29       1.0  0.52297  0.25991  0.55701  1.0000
  H   H30       1.0  0.47702  0.74009  0.44299  1.0000
  H   H31       1.0  0.78950  0.06571  0.44292  1.0000
  H   H32       1.0  0.21050  0.93429  0.55708  1.0000
  H   H33       1.0  0.87515  0.85966  0.55165  1.0000
  H   H34       1.0  0.12485  0.14034  0.44834  1.0000
  H   H35       1.0  0.85757  0.69437  0.73706  1.0000
  H   H36       1.0  0.14244  0.30563  0.26294  1.0000
  H   H37       1.0  0.49650  0.94795  0.89819  1.0000
  H   H38       1.0  0.50350  0.05205  0.10181  1.0000
  H   H39       1.0  0.49740  0.12202  0.72488  1.0000
  H   H40       1.0  0.50259  0.87798  0.27512  1.0000
  C   C1        1.0  0.89777  0.78489  0.08044  1.0000
  C   C2        1.0  0.10223  0.21511  0.91956  1.0000
  C   C3        1.0  0.03266  0.83676  0.13680  1.0000
  C   C4        1.0  0.96734  0.16324  0.86320  1.0000
  C   C5        1.0  0.14177  0.71431  0.18899  1.0000
  C   C6        1.0  0.85823  0.28569  0.81101  1.0000
  C   C7        1.0  0.02737  0.61411  0.29253  1.0000
  C   C8        1.0  0.97263  0.38589  0.70747  1.0000
  C   C9        1.0  0.94019  0.69723  0.37930  1.0000
  C   C10       1.0  0.05981  0.30277  0.62070  1.0000
  C   C11       1.0  0.82915  0.81586  0.32900  1.0000
  C   C12       1.0  0.17085  0.18414  0.67100  1.0000
  C   C13       1.0  0.94179  0.91698  0.22530  1.0000
  C   C14       1.0  0.05821  0.08302  0.77471  1.0000
  C   C15       1.0  0.25175  0.63566  0.10509  1.0000
  C   C16       1.0  0.74825  0.36434  0.89491  1.0000
  C   C17       1.0  0.73581  0.37087  0.17829  1.0000
  C   C18       1.0  0.26419  0.62913  0.82171  1.0000
  C   C19       1.0  0.73373  0.28184  0.28098  1.0000
  C   C20       1.0  0.26627  0.71816  0.71902  1.0000
  C   C21       1.0  0.62431  0.31143  0.37834  1.0000
  C   C22       1.0  0.37569  0.68857  0.62166  1.0000
  C   C23       1.0  0.52114  0.43376  0.36522  1.0000
  C   C24       1.0  0.47886  0.56624  0.63478  1.0000
  C   C25       1.0  0.53181  0.51807  0.25977  1.0000
  C   C26       1.0  0.46819  0.48193  0.74022  1.0000
  C   C27       1.0  0.61283  0.22322  0.48913  1.0000
  C   C28       1.0  0.38717  0.77679  0.51087  1.0000
  C   C29       1.0  0.70068  0.10138  0.51182  1.0000
  C   C30       1.0  0.29932  0.89862  0.48818  1.0000
  C   C31       1.0  0.68919  0.00754  0.62035  1.0000
  C   C32       1.0  0.31081  0.99246  0.37965  1.0000
  C   C33       1.0  0.79073  0.88404  0.62673  1.0000
  C   C34       1.0  0.20928  0.11597  0.37327  1.0000
  C   C35       1.0  0.78245  0.79182  0.72896  1.0000
  C   C36       1.0  0.21756  0.20818  0.27104  1.0000
  C   C37       1.0  0.58070  0.93294  0.81976  1.0000
  C   C38       1.0  0.41930  0.06705  0.18024  1.0000
  C   C39       1.0  0.58217  0.03061  0.72090  1.0000
  C   C40       1.0  0.41783  0.96939  0.27910  1.0000
  N   N1        1.0  0.63573  0.48737  0.16758  1.0000
  N   N2        1.0  0.36428  0.51263  0.83242  1.0000
  N   N3        1.0  0.67938  0.81553  0.82415  1.0000
  N   N4        1.0  0.32062  0.18447  0.17585  1.0000
  O   O1        1.0  0.95689  0.70576  0.01227  1.0000
  O   O2        1.0  0.04312  0.29424  0.98773  1.0000
  O   O3        1.0  0.73490  0.82102  0.10189  1.0000
  O   O4        1.0  0.26509  0.17898  0.89811  1.0000
  O   O5        1.0  0.21908  0.50238  0.12107  1.0000
  O   O6        1.0  0.78092  0.49762  0.87893  1.0000
  O   O7        1.0  0.37647  0.70840  0.02905  1.0000
  O   O8        1.0  0.62353  0.29160  0.97095  1.0000
