data_image0
_chemical_formula_structural       Zn2H34C48N6O8
_chemical_formula_sum              "Zn2 H34 C48 N6 O8"
_cell_length_a       5.8144
_cell_length_b       11.3554
_cell_length_c       18.8694
_cell_angle_alpha    79.8403
_cell_angle_beta     81.1356
_cell_angle_gamma    75.1704

_space_group_name_H-M_alt    "P 1"
_space_group_IT_number       1

loop_
  _space_group_symop_operation_xyz
  'x, y, z'

loop_
  _atom_site_type_symbol
  _atom_site_label
  _atom_site_symmetry_multiplicity
  _atom_site_fract_x
  _atom_site_fract_y
  _atom_site_fract_z
  _atom_site_occupancy
  Zn  Zn1       1.0  0.52752  0.77946  0.88530  1.0000
  Zn  Zn2       1.0  0.80754  0.27921  0.38537  1.0000
  H   H1        1.0  0.70568  0.30987  0.53978  1.0000
  H   H2        1.0  0.44489  0.81014  0.03954  1.0000
  H   H3        1.0  0.64987  0.75505  0.72878  1.0000
  H   H4        1.0  0.86603  0.25503  0.22895  1.0000
  H   H5        1.0  0.94584  0.65830  0.02802  1.0000
  H   H6        1.0  0.36941  0.15775  0.52788  1.0000
  H   H7        1.0  0.38662  0.72197  0.60143  1.0000
  H   H8        1.0  0.28912  0.22258  0.10161  1.0000
  H   H9        1.0  0.34612  0.38985  0.23228  1.0000
  H   H10       1.0  0.03041  0.89042  0.73219  1.0000
  H   H11       1.0  0.35612  0.38114  0.62762  1.0000
  H   H12       1.0  0.63530  0.88139  0.12737  1.0000
  H   H13       1.0  0.01372  0.68211  0.64604  1.0000
  H   H14       1.0  0.65783  0.18242  0.14607  1.0000
  H   H15       1.0  0.93446  0.50413  0.44684  1.0000
  H   H16       1.0  0.11364  0.00523  0.94653  1.0000
  H   H17       1.0  0.58659  0.43879  0.11324  1.0000
  H   H18       1.0  0.86111  0.93919  0.61300  1.0000
  H   H19       1.0  0.70441  0.60511  0.14610  1.0000
  H   H20       1.0  0.54506  0.10468  0.64612  1.0000
  H   H21       1.0  0.30400  0.43241  0.36632  1.0000
  H   H22       1.0  0.89658  0.93323  0.86604  1.0000
  H   H23       1.0  0.00465  0.61046  0.91052  1.0000
  H   H24       1.0  0.47502  0.10938  0.41056  1.0000
  H   H25       1.0  0.58434  0.39876  0.75847  1.0000
  H   H26       1.0  0.25942  0.89841  0.25802  1.0000
  H   H27       1.0  0.76084  0.65032  0.52355  1.0000
  H   H28       1.0  0.06448  0.15118  0.02359  1.0000
  H   H29       1.0  0.38847  0.53709  0.83549  1.0000
  H   H30       1.0  0.23968  0.03620  0.33537  1.0000
  H   H31       1.0  0.91567  0.24697  0.72850  1.0000
  H   H32       1.0  0.10976  0.74694  0.22789  1.0000
  H   H33       1.0  0.10751  0.25522  0.65152  1.0000
  H   H34       1.0  0.98642  0.75539  0.15094  1.0000
  C   C1        1.0  0.01113  0.49443  0.19640  1.0000
  C   C2        1.0  0.29763  0.99451  0.69637  1.0000
  C   C3        1.0  0.28160  0.55315  0.06385  1.0000
  C   C4        1.0  0.10200  0.05316  0.56369  1.0000
  C   C5        1.0  0.86522  0.46022  0.26668  1.0000
  C   C6        1.0  0.40704  0.96027  0.76670  1.0000
  C   C7        1.0  0.43236  0.59451  0.99635  1.0000
  C   C8        1.0  0.97761  0.09449  0.49616  1.0000
  C   C9        1.0  0.53085  0.35420  0.52169  1.0000
  C   C10       1.0  0.59327  0.85462  0.02146  1.0000
  C   C11       1.0  0.81742  0.70572  0.75008  1.0000
  C   C12       1.0  0.72666  0.20560  0.25019  1.0000
  C   C13       1.0  0.23628  0.60382  0.73332  1.0000
  C   C14       1.0  0.42669  0.10366  0.23328  1.0000
  C   C15       1.0  0.03238  0.59920  0.07288  1.0000
  C   C16       1.0  0.29646  0.09893  0.57277  1.0000
  C   C17       1.0  0.50919  0.63482  0.61843  1.0000
  C   C18       1.0  0.23708  0.13529  0.11845  1.0000
  C   C19       1.0  0.25953  0.44709  0.18694  1.0000
  C   C20       1.0  0.10573  0.94745  0.68686  1.0000
  C   C21       1.0  0.10829  0.44702  0.54574  1.0000
  C   C22       1.0  0.89865  0.94771  0.04546  1.0000
  C   C23       1.0  0.33328  0.39302  0.57046  1.0000
  C   C24       1.0  0.70322  0.89349  0.07022  1.0000
  C   C25       1.0  0.88924  0.48459  0.59538  1.0000
  C   C26       1.0  0.03054  0.98514  0.09515  1.0000
  C   C27       1.0  0.45974  0.56448  0.68589  1.0000
  C   C28       1.0  0.28995  0.06459  0.18576  1.0000
  C   C29       1.0  0.83805  0.41241  0.66334  1.0000
  C   C30       1.0  0.08648  0.91261  0.16298  1.0000
  C   C31       1.0  0.02212  0.66532  0.70423  1.0000
  C   C32       1.0  0.60822  0.16536  0.20426  1.0000
  C   C33       1.0  0.10194  0.46379  0.47032  1.0000
  C   C34       1.0  0.96329  0.96468  0.97003  1.0000
  C   C35       1.0  0.39323  0.47471  0.12105  1.0000
  C   C36       1.0  0.01081  0.97501  0.62090  1.0000
  C   C37       1.0  0.89800  0.56981  0.13837  1.0000
  C   C38       1.0  0.39426  0.06959  0.63834  1.0000
  C   C39       1.0  0.30753  0.42292  0.42461  1.0000
  C   C40       1.0  0.84436  0.92368  0.92432  1.0000
  C   C41       1.0  0.01596  0.62497  0.85171  1.0000
  C   C42       1.0  0.50779  0.12421  0.35174  1.0000
  C   C43       1.0  0.62434  0.45558  0.70726  1.0000
  C   C44       1.0  0.21336  0.95553  0.20693  1.0000
  C   C45       1.0  0.72047  0.59415  0.57495  1.0000
  C   C46       1.0  0.10989  0.09480  0.07489  1.0000
  C   C47       1.0  0.22819  0.58256  0.80915  1.0000
  C   C48       1.0  0.38059  0.08189  0.30910  1.0000
  N   N1        1.0  0.81385  0.68777  0.82276  1.0000
  N   N2        1.0  0.67569  0.18730  0.32287  1.0000
  N   N3        1.0  0.51924  0.36636  0.44985  1.0000
  N   N4        1.0  0.66433  0.86687  0.94960  1.0000
  N   N5        1.0  0.98715  0.30254  0.68766  1.0000
  N   N6        1.0  0.02324  0.80261  0.18715  1.0000
  O   O1        1.0  0.32142  0.69246  0.95621  1.0000
  O   O2        1.0  0.03066  0.19248  0.45604  1.0000
  O   O3        1.0  0.98782  0.37717  0.31281  1.0000
  O   O4        1.0  0.32152  0.87703  0.81272  1.0000
  O   O5        1.0  0.64707  0.54123  0.98376  1.0000
  O   O6        1.0  0.82891  0.04114  0.48352  1.0000
  O   O7        1.0  0.64551  0.50555  0.27647  1.0000
  O   O8        1.0  0.57127  0.00575  0.77663  1.0000
