data_image0
_chemical_formula_structural       Ag2H18C26N4O4
_chemical_formula_sum              "Ag2 H18 C26 N4 O4"
_cell_length_a       3.83685
_cell_length_b       11.9923
_cell_length_c       12.7375
_cell_angle_alpha    75.4732
_cell_angle_beta     87.5917
_cell_angle_gamma    85.4725

_space_group_name_H-M_alt    "P 1"
_space_group_IT_number       1

loop_
  _space_group_symop_operation_xyz
  'x, y, z'

loop_
  _atom_site_type_symbol
  _atom_site_label
  _atom_site_symmetry_multiplicity
  _atom_site_fract_x
  _atom_site_fract_y
  _atom_site_fract_z
  _atom_site_occupancy
  Ag  Ag1       1.0  0.18157  0.92557  0.59718  1.0000
  Ag  Ag2       1.0  0.81838  0.07441  0.40283  1.0000
  H   H1        1.0  0.58986  0.00038  0.22333  1.0000
  H   H2        1.0  0.41014  0.99963  0.77667  1.0000
  H   H3        1.0  0.17939  0.78544  0.04560  1.0000
  H   H4        1.0  0.82066  0.21457  0.95441  1.0000
  H   H5        1.0  0.07711  0.61218  0.19755  1.0000
  H   H6        1.0  0.92295  0.38783  0.80245  1.0000
  H   H7        1.0  0.73374  0.63553  0.36338  1.0000
  H   H8        1.0  0.26628  0.36446  0.63662  1.0000
  H   H9        1.0  0.96085  0.86882  0.84362  1.0000
  H   H10       1.0  0.03914  0.13117  0.15638  1.0000
  H   H11       1.0  0.71172  0.71236  0.98106  1.0000
  H   H12       1.0  0.28830  0.28764  0.01893  1.0000
  H   H13       1.0  0.56619  0.54054  0.72633  1.0000
  H   H14       1.0  0.43380  0.45945  0.27367  1.0000
  H   H15       1.0  0.84228  0.70380  0.59802  1.0000
  H   H16       1.0  0.15768  0.29620  0.40198  1.0000
  H   H17       1.0  0.37733  0.44733  0.91014  1.0000
  H   H18       1.0  0.62268  0.55267  0.08986  1.0000
  C   C1        1.0  0.64333  0.81889  0.30439  1.0000
  C   C2        1.0  0.35663  0.18112  0.69561  1.0000
  C   C3        1.0  0.69580  0.91481  0.21826  1.0000
  C   C4        1.0  0.30419  0.08519  0.78174  1.0000
  C   C5        1.0  0.88132  0.90277  0.12406  1.0000
  C   C6        1.0  0.11866  0.09724  0.87595  1.0000
  C   C7        1.0  0.02239  0.79286  0.11704  1.0000
  C   C8        1.0  0.97764  0.20715  0.88297  1.0000
  C   C9        1.0  0.96632  0.69737  0.20230  1.0000
  C   C10       1.0  0.03375  0.30264  0.79771  1.0000
  C   C11       1.0  0.77613  0.70951  0.29540  1.0000
  C   C12       1.0  0.22391  0.29049  0.70460  1.0000
  C   C13       1.0  0.45038  0.83109  0.40686  1.0000
  C   C14       1.0  0.54958  0.16891  0.59314  1.0000
  C   C15       1.0  0.87372  0.79424  0.82013  1.0000
  C   C16       1.0  0.12628  0.20575  0.17987  1.0000
  C   C17       1.0  0.73412  0.70533  0.89749  1.0000
  C   C18       1.0  0.26585  0.29467  0.10251  1.0000
  C   C19       1.0  0.62628  0.60857  0.86738  1.0000
  C   C20       1.0  0.37371  0.39143  0.13262  1.0000
  C   C21       1.0  0.65698  0.61032  0.75658  1.0000
  C   C22       1.0  0.34300  0.38968  0.24342  1.0000
  C   C23       1.0  0.80550  0.70183  0.68367  1.0000
  C   C24       1.0  0.19448  0.29816  0.31633  1.0000
  C   C25       1.0  0.49259  0.50979  0.94542  1.0000
  C   C26       1.0  0.50744  0.49020  0.05458  1.0000
  N   N1        1.0  0.92276  0.00613  0.04344  1.0000
  N   N2        1.0  0.07726  0.99387  0.95657  1.0000
  N   N3        1.0  0.91553  0.79256  0.71468  1.0000
  N   N4        1.0  0.08447  0.20743  0.28532  1.0000
  O   O1        1.0  0.41773  0.93484  0.42242  1.0000
  O   O2        1.0  0.58222  0.06517  0.57758  1.0000
  O   O3        1.0  0.33308  0.74444  0.47023  1.0000
  O   O4        1.0  0.66688  0.25556  0.52975  1.0000
