data_image0
_chemical_formula_structural       Pr2H26C18N8O18
_chemical_formula_sum              "Pr2 H26 C18 N8 O18"
_cell_length_a       7.90954
_cell_length_b       9.77514
_cell_length_c       10.449
_cell_angle_alpha    116.927
_cell_angle_beta     107.478
_cell_angle_gamma    95.1921

_space_group_name_H-M_alt    "P 1"
_space_group_IT_number       1

loop_
  _space_group_symop_operation_xyz
  'x, y, z'

loop_
  _atom_site_type_symbol
  _atom_site_label
  _atom_site_symmetry_multiplicity
  _atom_site_fract_x
  _atom_site_fract_y
  _atom_site_fract_z
  _atom_site_occupancy
  Pr  Pr1       1.0  0.28356  0.79537  0.68854  1.0000
  Pr  Pr2       1.0  0.71644  0.20463  0.31146  1.0000
  H   H1        1.0  0.65528  0.90823  0.93672  1.0000
  H   H2        1.0  0.34473  0.09177  0.06328  1.0000
  H   H3        1.0  0.70926  0.96360  0.82852  1.0000
  H   H4        1.0  0.29074  0.03640  0.17149  1.0000
  H   H5        1.0  0.35162  0.87569  0.44520  1.0000
  H   H6        1.0  0.64838  0.12431  0.55481  1.0000
  H   H7        1.0  0.53616  0.84153  0.53171  1.0000
  H   H8        1.0  0.46384  0.15847  0.46829  1.0000
  H   H9        1.0  0.04723  0.02766  0.64324  1.0000
  H   H10       1.0  0.95278  0.97234  0.35676  1.0000
  H   H11       1.0  0.91524  0.85578  0.55781  1.0000
  H   H12       1.0  0.08476  0.14422  0.44219  1.0000
  H   H13       1.0  0.03461  0.65074  0.33829  1.0000
  H   H14       1.0  0.96540  0.34926  0.66171  1.0000
  H   H15       1.0  0.04798  0.49940  0.36211  1.0000
  H   H16       1.0  0.95203  0.50060  0.63789  1.0000
  H   H17       1.0  0.88122  0.72427  0.67306  1.0000
  H   H18       1.0  0.11879  0.27573  0.32694  1.0000
  H   H19       1.0  0.00139  0.75104  0.84400  1.0000
  H   H20       1.0  0.99861  0.24896  0.15600  1.0000
  H   H21       1.0  0.67296  0.63407  0.79616  1.0000
  H   H22       1.0  0.32703  0.36592  0.20384  1.0000
  H   H23       1.0  0.32257  0.20221  0.69022  1.0000
  H   H24       1.0  0.67743  0.79779  0.30978  1.0000
  H   H25       1.0  0.80587  0.45092  0.10981  1.0000
  H   H26       1.0  0.19413  0.54908  0.89019  1.0000
  C   C1        1.0  0.36094  0.40643  0.58411  1.0000
  C   C2        1.0  0.63906  0.59357  0.41589  1.0000
  C   C3        1.0  0.76341  0.55599  0.96339  1.0000
  C   C4        1.0  0.23658  0.44402  0.03661  1.0000
  C   C5        1.0  0.92945  0.68718  0.06763  1.0000
  C   C6        1.0  0.07055  0.31282  0.93237  1.0000
  C   C7        1.0  0.48699  0.41704  0.72891  1.0000
  C   C8        1.0  0.51301  0.58295  0.27109  1.0000
  C   C9        1.0  0.64516  0.54399  0.82660  1.0000
  C   C10       1.0  0.35483  0.45600  0.17340  1.0000
  C   C11       1.0  0.44510  0.30172  0.76686  1.0000
  C   C12       1.0  0.55489  0.69828  0.23315  1.0000
  C   C13       1.0  0.71789  0.44247  0.00281  1.0000
  C   C14       1.0  0.28211  0.55753  0.99719  1.0000
  C   C15       1.0  0.55938  0.31600  0.90580  1.0000
  C   C16       1.0  0.44063  0.68400  0.09421  1.0000
  C   C17       1.0  0.51646  0.19899  0.95438  1.0000
  C   C18       1.0  0.48354  0.80101  0.04562  1.0000
  N   N1        1.0  0.16867  0.85067  0.27085  1.0000
  N   N2        1.0  0.83133  0.14933  0.72914  1.0000
  N   N3        1.0  0.02672  0.72603  0.21550  1.0000
  N   N4        1.0  0.97329  0.27396  0.78450  1.0000
  N   N5        1.0  0.00880  0.78641  0.03225  1.0000
  N   N6        1.0  0.99120  0.21359  0.96775  1.0000
  N   N7        1.0  0.15662  0.88651  0.16129  1.0000
  N   N8        1.0  0.84337  0.11349  0.83871  1.0000
  O   O1        1.0  0.28061  0.26589  0.46561  1.0000
  O   O2        1.0  0.71940  0.73411  0.53439  1.0000
  O   O3        1.0  0.62742  0.87666  0.82738  1.0000
  O   O4        1.0  0.37258  0.12335  0.17262  1.0000
  O   O5        1.0  0.42406  0.87518  0.54130  1.0000
  O   O6        1.0  0.57594  0.12482  0.45870  1.0000
  O   O7        1.0  0.04267  0.91511  0.58834  1.0000
  O   O8        1.0  0.95733  0.08489  0.41166  1.0000
  O   O9        1.0  0.34057  0.53311  0.58373  1.0000
  O   O10       1.0  0.65942  0.46688  0.41627  1.0000
  O   O11       1.0  0.05207  0.61380  0.41589  1.0000
  O   O12       1.0  0.94794  0.38620  0.58411  1.0000
  O   O13       1.0  0.99966  0.71623  0.73711  1.0000
  O   O14       1.0  0.00035  0.28378  0.26288  1.0000
  O   O15       1.0  0.63448  0.21804  0.07833  1.0000
  O   O16       1.0  0.36551  0.78196  0.92166  1.0000
  O   O17       1.0  0.36584  0.08803  0.87202  1.0000
  O   O18       1.0  0.63415  0.91197  0.12798  1.0000
