data_image0
_chemical_formula_structural       Cu2H28C22Br4N8Cl2
_chemical_formula_sum              "Cu2 H28 C22 Br4 N8 Cl2"
_cell_length_a       3.99683
_cell_length_b       8.28794
_cell_length_c       21.2701
_cell_angle_alpha    89.9998
_cell_angle_beta     89.9996
_cell_angle_gamma    91.5914

_space_group_name_H-M_alt    "P 1"
_space_group_IT_number       1

loop_
  _space_group_symop_operation_xyz
  'x, y, z'

loop_
  _atom_site_type_symbol
  _atom_site_label
  _atom_site_symmetry_multiplicity
  _atom_site_fract_x
  _atom_site_fract_y
  _atom_site_fract_z
  _atom_site_occupancy
  Cu  Cu1       1.0  0.44356  0.40346  0.25000  1.0000
  Cu  Cu2       1.0  0.55644  0.59654  0.75000  1.0000
  H   H1        1.0  0.73040  0.32865  0.37751  1.0000
  H   H2        1.0  0.26962  0.67135  0.87751  1.0000
  H   H3        1.0  0.26962  0.67135  0.62250  1.0000
  H   H4        1.0  0.73038  0.32865  0.12249  1.0000
  H   H5        1.0  0.65235  0.41310  0.45344  1.0000
  H   H6        1.0  0.34766  0.58690  0.95344  1.0000
  H   H7        1.0  0.34765  0.58691  0.54656  1.0000
  H   H8        1.0  0.65234  0.41309  0.04656  1.0000
  H   H9        1.0  0.03869  0.45357  0.41507  1.0000
  H   H10       1.0  0.96132  0.54642  0.91507  1.0000
  H   H11       1.0  0.96132  0.54643  0.58493  1.0000
  H   H12       1.0  0.03867  0.45358  0.08493  1.0000
  H   H13       1.0  0.11331  0.02407  0.34659  1.0000
  H   H14       1.0  0.88669  0.97593  0.84659  1.0000
  H   H15       1.0  0.88669  0.97593  0.65341  1.0000
  H   H16       1.0  0.11330  0.02406  0.15341  1.0000
  H   H17       1.0  0.50621  0.06899  0.31162  1.0000
  H   H18       1.0  0.49380  0.93102  0.81162  1.0000
  H   H19       1.0  0.49380  0.93101  0.68838  1.0000
  H   H20       1.0  0.50619  0.06898  0.18838  1.0000
  H   H21       1.0  0.47034  0.06095  0.39473  1.0000
  H   H22       1.0  0.52967  0.93905  0.89473  1.0000
  H   H23       1.0  0.52967  0.93905  0.60527  1.0000
  H   H24       1.0  0.47032  0.06095  0.10527  1.0000
  H   H25       1.0  0.08011  0.86733  0.25000  1.0000
  H   H26       1.0  0.91989  0.13266  0.75000  1.0000
  H   H27       1.0  0.96885  0.65453  0.25000  1.0000
  H   H28       1.0  0.03115  0.34547  0.75000  1.0000
  C   C1        1.0  0.76881  0.43541  0.40730  1.0000
  C   C2        1.0  0.23121  0.56460  0.90730  1.0000
  C   C3        1.0  0.23121  0.56460  0.59270  1.0000
  C   C4        1.0  0.76878  0.43541  0.09270  1.0000
  C   C5        1.0  0.62622  0.57846  0.37627  1.0000
  C   C6        1.0  0.37380  0.42154  0.87627  1.0000
  C   C7        1.0  0.37379  0.42155  0.62373  1.0000
  C   C8        1.0  0.62620  0.57846  0.12373  1.0000
  C   C9        1.0  0.62604  0.74038  0.39706  1.0000
  C   C10       1.0  0.37397  0.25962  0.89706  1.0000
  C   C11       1.0  0.37397  0.25963  0.60294  1.0000
  C   C12       1.0  0.62602  0.74038  0.10294  1.0000
  C   C13       1.0  0.46090  0.83104  0.35225  1.0000
  C   C14       1.0  0.53912  0.16895  0.85225  1.0000
  C   C15       1.0  0.53910  0.16896  0.64775  1.0000
  C   C16       1.0  0.46087  0.83105  0.14775  1.0000
  C   C17       1.0  0.38286  0.00457  0.35087  1.0000
  C   C18       1.0  0.61714  0.99543  0.85087  1.0000
  C   C19       1.0  0.61714  0.99543  0.64912  1.0000
  C   C20       1.0  0.38285  0.00457  0.14913  1.0000
  C   C21       1.0  0.17587  0.74485  0.25000  1.0000
  C   C22       1.0  0.82413  0.25515  0.75000  1.0000
  Br  Br1       1.0  0.80876  0.82072  0.47250  1.0000
  Br  Br2       1.0  0.19125  0.17929  0.97250  1.0000
  Br  Br3       1.0  0.19124  0.17929  0.52750  1.0000
  Br  Br4       1.0  0.80875  0.82071  0.02750  1.0000
  N   N1        1.0  0.46534  0.56860  0.32078  1.0000
  N   N2        1.0  0.53468  0.43140  0.82078  1.0000
  N   N3        1.0  0.53467  0.43140  0.67922  1.0000
  N   N4        1.0  0.46532  0.56860  0.17922  1.0000
  N   N5        1.0  0.36921  0.72185  0.30674  1.0000
  N   N6        1.0  0.63079  0.27815  0.80674  1.0000
  N   N7        1.0  0.63080  0.27815  0.69326  1.0000
  N   N8        1.0  0.36920  0.72185  0.19326  1.0000
  Cl  Cl1       1.0  0.93373  0.25545  0.25000  1.0000
  Cl  Cl2       1.0  0.06627  0.74455  0.75000  1.0000
