data_image0
_chemical_formula_structural       Cu2H28C22Br6N8
_chemical_formula_sum              "Cu2 H28 C22 Br6 N8"
_cell_length_a       4.07731
_cell_length_b       8.59098
_cell_length_c       20.9846
_cell_angle_alpha    89.9999
_cell_angle_beta     89.9997
_cell_angle_gamma    92.7179

_space_group_name_H-M_alt    "P 1"
_space_group_IT_number       1

loop_
  _space_group_symop_operation_xyz
  'x, y, z'

loop_
  _atom_site_type_symbol
  _atom_site_label
  _atom_site_symmetry_multiplicity
  _atom_site_fract_x
  _atom_site_fract_y
  _atom_site_fract_z
  _atom_site_occupancy
  Cu  Cu1       1.0  0.03943  0.58513  0.75000  1.0000
  Cu  Cu2       1.0  0.96056  0.41487  0.25000  1.0000
  H   H1        1.0  0.72882  0.65163  0.62327  1.0000
  H   H2        1.0  0.27119  0.34837  0.12327  1.0000
  H   H3        1.0  0.27118  0.34837  0.37672  1.0000
  H   H4        1.0  0.72882  0.65163  0.87673  1.0000
  H   H5        1.0  0.47796  0.52543  0.57426  1.0000
  H   H6        1.0  0.52205  0.47457  0.07426  1.0000
  H   H7        1.0  0.52204  0.47457  0.42574  1.0000
  H   H8        1.0  0.47796  0.52543  0.92574  1.0000
  H   H9        1.0  0.87400  0.58794  0.54770  1.0000
  H   H10       1.0  0.12601  0.41207  0.04770  1.0000
  H   H11       1.0  0.12600  0.41207  0.45230  1.0000
  H   H12       1.0  0.87399  0.58794  0.95230  1.0000
  H   H13       1.0  0.03232  0.95239  0.60302  1.0000
  H   H14       1.0  0.96768  0.04761  0.10302  1.0000
  H   H15       1.0  0.96768  0.04761  0.39698  1.0000
  H   H16       1.0  0.03232  0.95239  0.89698  1.0000
  H   H17       1.0  0.96941  0.94267  0.68661  1.0000
  H   H18       1.0  0.03058  0.05733  0.18661  1.0000
  H   H19       1.0  0.03059  0.05733  0.31339  1.0000
  H   H20       1.0  0.96941  0.94267  0.81339  1.0000
  H   H21       1.0  0.36585  0.98954  0.65610  1.0000
  H   H22       1.0  0.63415  0.01046  0.15610  1.0000
  H   H23       1.0  0.63415  0.01046  0.34390  1.0000
  H   H24       1.0  0.36585  0.98954  0.84390  1.0000
  H   H25       1.0  0.51518  0.34940  0.75000  1.0000
  H   H26       1.0  0.48481  0.65060  0.25000  1.0000
  H   H27       1.0  0.40516  0.14314  0.75000  1.0000
  H   H28       1.0  0.59483  0.85686  0.25000  1.0000
  C   C1        1.0  0.73035  0.55293  0.59015  1.0000
  C   C2        1.0  0.26966  0.44707  0.09015  1.0000
  C   C3        1.0  0.26966  0.44707  0.40985  1.0000
  C   C4        1.0  0.73034  0.55293  0.90985  1.0000
  C   C5        1.0  0.86803  0.41605  0.62184  1.0000
  C   C6        1.0  0.13198  0.58396  0.12184  1.0000
  C   C7        1.0  0.13197  0.58395  0.37815  1.0000
  C   C8        1.0  0.86803  0.41604  0.87816  1.0000
  C   C9        1.0  0.86735  0.25951  0.60108  1.0000
  C   C10       1.0  0.13266  0.74049  0.10108  1.0000
  C   C11       1.0  0.13265  0.74049  0.39892  1.0000
  C   C12       1.0  0.86735  0.25951  0.89892  1.0000
  C   C13       1.0  0.03026  0.17396  0.64656  1.0000
  C   C14       1.0  0.96974  0.82604  0.14656  1.0000
  C   C15       1.0  0.96974  0.82604  0.35344  1.0000
  C   C16       1.0  0.03026  0.17396  0.85345  1.0000
  C   C17       1.0  0.10366  0.00684  0.64852  1.0000
  C   C18       1.0  0.89634  0.99316  0.14853  1.0000
  C   C19       1.0  0.89634  0.99316  0.35147  1.0000
  C   C20       1.0  0.10366  0.00684  0.85148  1.0000
  C   C21       1.0  0.31160  0.26053  0.75000  1.0000
  C   C22       1.0  0.68840  0.73947  0.25000  1.0000
  Br  Br1       1.0  0.55898  0.74558  0.75000  1.0000
  Br  Br2       1.0  0.44102  0.25442  0.25000  1.0000
  Br  Br3       1.0  0.68524  0.17923  0.52493  1.0000
  Br  Br4       1.0  0.31477  0.82078  0.02493  1.0000
  Br  Br5       1.0  0.31476  0.82077  0.47507  1.0000
  Br  Br6       1.0  0.68523  0.17923  0.97507  1.0000
  N   N1        1.0  0.02646  0.42740  0.67804  1.0000
  N   N2        1.0  0.97354  0.57260  0.17804  1.0000
  N   N3        1.0  0.97354  0.57260  0.32196  1.0000
  N   N4        1.0  0.02646  0.42740  0.82196  1.0000
  N   N5        1.0  0.12214  0.28068  0.69238  1.0000
  N   N6        1.0  0.87786  0.71932  0.19238  1.0000
  N   N7        1.0  0.87785  0.71932  0.30762  1.0000
  N   N8        1.0  0.12214  0.28068  0.80763  1.0000
