data_image0
_chemical_formula_structural       Cu2H28C22I2Br4N8
_chemical_formula_sum              "Cu2 H28 C22 I2 Br4 N8"
_cell_length_a       4.26226
_cell_length_b       8.925
_cell_length_c       20.2709
_cell_angle_alpha    89.9998
_cell_angle_beta     89.9998
_cell_angle_gamma    94.3141

_space_group_name_H-M_alt    "P 1"
_space_group_IT_number       1

loop_
  _space_group_symop_operation_xyz
  'x, y, z'

loop_
  _atom_site_type_symbol
  _atom_site_label
  _atom_site_symmetry_multiplicity
  _atom_site_fract_x
  _atom_site_fract_y
  _atom_site_fract_z
  _atom_site_occupancy
  Cu  Cu1       1.0  0.02185  0.58694  0.25000  1.0000
  Cu  Cu2       1.0  0.97815  0.41306  0.75000  1.0000
  H   H1        1.0  0.78332  0.64809  0.38860  1.0000
  H   H2        1.0  0.21668  0.35190  0.88860  1.0000
  H   H3        1.0  0.21667  0.35191  0.61140  1.0000
  H   H4        1.0  0.78332  0.64809  0.11140  1.0000
  H   H5        1.0  0.78915  0.55361  0.46641  1.0000
  H   H6        1.0  0.21085  0.44638  0.96641  1.0000
  H   H7        1.0  0.21085  0.44638  0.53359  1.0000
  H   H8        1.0  0.78915  0.55361  0.03359  1.0000
  H   H9        1.0  0.45840  0.52591  0.41378  1.0000
  H   H10       1.0  0.54159  0.47408  0.91378  1.0000
  H   H11       1.0  0.54159  0.47409  0.58622  1.0000
  H   H12       1.0  0.45840  0.52591  0.08622  1.0000
  H   H13       1.0  0.98725  0.96510  0.31523  1.0000
  H   H14       1.0  0.01276  0.03490  0.81524  1.0000
  H   H15       1.0  0.01275  0.03490  0.68477  1.0000
  H   H16       1.0  0.98725  0.96510  0.18476  1.0000
  H   H17       1.0  0.05635  0.97612  0.40131  1.0000
  H   H18       1.0  0.94365  0.02388  0.90131  1.0000
  H   H19       1.0  0.94364  0.02388  0.59869  1.0000
  H   H20       1.0  0.05635  0.97612  0.09868  1.0000
  H   H21       1.0  0.36882  0.02116  0.34520  1.0000
  H   H22       1.0  0.63118  0.97884  0.84520  1.0000
  H   H23       1.0  0.63117  0.97884  0.65481  1.0000
  H   H24       1.0  0.36883  0.02116  0.15480  1.0000
  H   H25       1.0  0.49052  0.37203  0.25000  1.0000
  H   H26       1.0  0.50949  0.62796  0.75000  1.0000
  H   H27       1.0  0.40092  0.17117  0.25000  1.0000
  H   H28       1.0  0.59908  0.82883  0.75000  1.0000
  C   C1        1.0  0.71624  0.54287  0.41457  1.0000
  C   C2        1.0  0.28376  0.45713  0.91457  1.0000
  C   C3        1.0  0.28376  0.45713  0.58543  1.0000
  C   C4        1.0  0.71624  0.54287  0.08543  1.0000
  C   C5        1.0  0.86072  0.41582  0.38215  1.0000
  C   C6        1.0  0.13928  0.58418  0.88215  1.0000
  C   C7        1.0  0.13928  0.58418  0.61785  1.0000
  C   C8        1.0  0.86072  0.41582  0.11785  1.0000
  C   C9        1.0  0.87044  0.26542  0.40352  1.0000
  C   C10       1.0  0.12955  0.73458  0.90352  1.0000
  C   C11       1.0  0.12955  0.73458  0.59648  1.0000
  C   C12       1.0  0.87045  0.26542  0.09648  1.0000
  C   C13       1.0  0.03496  0.18860  0.35655  1.0000
  C   C14       1.0  0.96505  0.81140  0.85655  1.0000
  C   C15       1.0  0.96505  0.81141  0.64345  1.0000
  C   C16       1.0  0.03496  0.18860  0.14345  1.0000
  C   C17       1.0  0.11678  0.03039  0.35402  1.0000
  C   C18       1.0  0.88322  0.96961  0.85402  1.0000
  C   C19       1.0  0.88321  0.96961  0.64598  1.0000
  C   C20       1.0  0.11679  0.03039  0.14598  1.0000
  C   C21       1.0  0.30149  0.28073  0.25000  1.0000
  C   C22       1.0  0.69852  0.71927  0.75000  1.0000
  I   I1        1.0  0.55210  0.75274  0.25000  1.0000
  I   I2        1.0  0.44791  0.24726  0.75000  1.0000
  Br  Br1       1.0  0.69663  0.18287  0.48179  1.0000
  Br  Br2       1.0  0.30337  0.81712  0.98179  1.0000
  Br  Br3       1.0  0.30335  0.81713  0.51821  1.0000
  Br  Br4       1.0  0.69663  0.18287  0.01821  1.0000
  N   N1        1.0  0.01331  0.43174  0.32417  1.0000
  N   N2        1.0  0.98669  0.56826  0.82417  1.0000
  N   N3        1.0  0.98669  0.56827  0.67583  1.0000
  N   N4        1.0  0.01331  0.43174  0.17583  1.0000
  N   N5        1.0  0.11693  0.29413  0.30944  1.0000
  N   N6        1.0  0.88307  0.70587  0.80944  1.0000
  N   N7        1.0  0.88307  0.70587  0.69056  1.0000
  N   N8        1.0  0.11694  0.29413  0.19056  1.0000
