data_image0
_chemical_formula_structural       Cu4H44C72N4O12
_chemical_formula_sum              "Cu4 H44 C72 N4 O12"
_cell_length_a       7.18727
_cell_length_b       12.1834
_cell_length_c       15.7184
_cell_angle_alpha    89.9962
_cell_angle_beta     89.9946
_cell_angle_gamma    89.999

_space_group_name_H-M_alt    "P 1"
_space_group_IT_number       1

loop_
  _space_group_symop_operation_xyz
  'x, y, z'

loop_
  _atom_site_type_symbol
  _atom_site_label
  _atom_site_symmetry_multiplicity
  _atom_site_fract_x
  _atom_site_fract_y
  _atom_site_fract_z
  _atom_site_occupancy
  Cu  Cu1       1.0  0.96416  0.38269  0.95853  1.0000
  Cu  Cu2       1.0  0.53585  0.61726  0.45851  1.0000
  Cu  Cu3       1.0  0.03588  0.88274  0.54150  1.0000
  Cu  Cu4       1.0  0.46416  0.11731  0.04146  1.0000
  H   H1        1.0  0.90278  0.61328  0.17120  1.0000
  H   H2        1.0  0.59699  0.38662  0.67120  1.0000
  H   H3        1.0  0.09708  0.11337  0.32883  1.0000
  H   H4        1.0  0.40290  0.88671  0.82878  1.0000
  H   H5        1.0  0.96882  0.57661  0.32230  1.0000
  H   H6        1.0  0.53098  0.42333  0.82230  1.0000
  H   H7        1.0  0.03110  0.07668  0.17773  1.0000
  H   H8        1.0  0.46896  0.92341  0.67769  1.0000
  H   H9        1.0  0.14515  0.40724  0.36416  1.0000
  H   H10       1.0  0.35479  0.59277  0.86415  1.0000
  H   H11       1.0  0.85491  0.90726  0.13588  1.0000
  H   H12       1.0  0.64527  0.09278  0.63583  1.0000
  H   H13       1.0  0.24390  0.27556  0.25160  1.0000
  H   H14       1.0  0.25616  0.72445  0.75157  1.0000
  H   H15       1.0  0.75621  0.77556  0.24845  1.0000
  H   H16       1.0  0.74399  0.22445  0.74839  1.0000
  H   H17       1.0  0.08183  0.65578  0.06782  1.0000
  H   H18       1.0  0.41803  0.34416  0.56782  1.0000
  H   H19       1.0  0.91807  0.15583  0.43221  1.0000
  H   H20       1.0  0.58189  0.84421  0.93217  1.0000
  H   H21       1.0  0.80854  0.59518  0.74071  1.0000
  H   H22       1.0  0.69137  0.40481  0.24069  1.0000
  H   H23       1.0  0.19148  0.09521  0.75931  1.0000
  H   H24       1.0  0.30862  0.90483  0.25930  1.0000
  H   H25       1.0  0.84333  0.79667  0.72526  1.0000
  H   H26       1.0  0.65665  0.20331  0.22525  1.0000
  H   H27       1.0  0.15667  0.29670  0.77475  1.0000
  H   H28       1.0  0.34335  0.70332  0.27475  1.0000
  H   H29       1.0  0.09590  0.80667  0.05999  1.0000
  H   H30       1.0  0.40416  0.19324  0.56001  1.0000
  H   H31       1.0  0.90407  0.30673  0.44002  1.0000
  H   H32       1.0  0.59581  0.69332  0.93998  1.0000
  H   H33       1.0  0.11097  0.00409  0.04114  1.0000
  H   H34       1.0  0.38916  0.99583  0.54116  1.0000
  H   H35       1.0  0.88902  0.50414  0.45886  1.0000
  H   H36       1.0  0.61086  0.49590  0.95882  1.0000
  H   H37       1.0  0.03642  0.09110  0.90227  1.0000
  H   H38       1.0  0.46365  0.90886  0.40227  1.0000
  H   H39       1.0  0.96357  0.59114  0.59772  1.0000
  H   H40       1.0  0.53634  0.40889  0.09770  1.0000
  H   H41       1.0  0.93076  0.97226  0.78143  1.0000
  H   H42       1.0  0.56926  0.02774  0.28142  1.0000
  H   H43       1.0  0.06924  0.47228  0.71856  1.0000
  H   H44       1.0  0.43071  0.52773  0.21855  1.0000
  C   C1        1.0  0.20539  0.28835  0.08601  1.0000
  C   C2        1.0  0.29469  0.71166  0.58599  1.0000
  C   C3        1.0  0.79473  0.78835  0.41403  1.0000
  C   C4        1.0  0.70543  0.21165  0.91398  1.0000
  C   C5        1.0  0.13383  0.36999  0.14862  1.0000
  C   C6        1.0  0.36616  0.62998  0.64860  1.0000
  C   C7        1.0  0.86621  0.87002  0.35142  1.0000
  C   C8        1.0  0.63390  0.13000  0.85137  1.0000
  C   C9        1.0  0.04426  0.46867  0.12471  1.0000
  C   C10       1.0  0.45568  0.53128  0.62470  1.0000
  C   C11       1.0  0.95571  0.96871  0.37531  1.0000
  C   C12       1.0  0.54431  0.03133  0.87527  1.0000
  C   C13       1.0  0.98285  0.54084  0.18886  1.0000
  C   C14       1.0  0.51699  0.45909  0.68885  1.0000
  C   C15       1.0  0.01705  0.04090  0.31117  1.0000
  C   C16       1.0  0.48297  0.95916  0.81113  1.0000
  C   C17       1.0  0.01931  0.51953  0.27417  1.0000
  C   C18       1.0  0.48054  0.48043  0.77416  1.0000
  C   C19       1.0  0.98063  0.01958  0.22586  1.0000
  C   C20       1.0  0.51944  0.98049  0.72582  1.0000
  C   C21       1.0  0.11446  0.42420  0.29764  1.0000
  C   C22       1.0  0.38547  0.57578  0.79762  1.0000
  C   C23       1.0  0.88555  0.92423  0.20240  1.0000
  C   C24       1.0  0.61458  0.07581  0.70235  1.0000
  C   C25       1.0  0.16861  0.35008  0.23504  1.0000
  C   C26       1.0  0.33140  0.64991  0.73502  1.0000
  C   C27       1.0  0.83145  0.85011  0.26500  1.0000
  C   C28       1.0  0.66870  0.14993  0.76495  1.0000
  C   C29       1.0  0.03252  0.60149  0.01727  1.0000
  C   C30       1.0  0.46739  0.39845  0.51727  1.0000
  C   C31       1.0  0.96744  0.10154  0.48276  1.0000
  C   C32       1.0  0.53257  0.89850  0.98272  1.0000
  C   C33       1.0  0.98942  0.65141  0.93851  1.0000
  C   C34       1.0  0.51053  0.34853  0.43851  1.0000
  C   C35       1.0  0.01057  0.15146  0.56150  1.0000
  C   C36       1.0  0.48943  0.84858  0.06147  1.0000
  C   C37       1.0  0.92002  0.58886  0.86821  1.0000
  C   C38       1.0  0.57990  0.41110  0.36819  1.0000
  C   C39       1.0  0.08000  0.08890  0.63181  1.0000
  C   C40       1.0  0.42005  0.91114  0.13179  1.0000
  C   C41       1.0  0.86399  0.64503  0.79220  1.0000
  C   C42       1.0  0.63594  0.35495  0.29218  1.0000
  C   C43       1.0  0.13603  0.14507  0.70782  1.0000
  C   C44       1.0  0.36403  0.85497  0.20781  1.0000
  C   C45       1.0  0.88229  0.75605  0.78451  1.0000
  C   C46       1.0  0.61766  0.24394  0.28450  1.0000
  C   C47       1.0  0.11771  0.25608  0.71550  1.0000
  C   C48       1.0  0.38232  0.74395  0.21549  1.0000
  C   C49       1.0  0.95271  0.82184  0.85234  1.0000
  C   C50       1.0  0.54725  0.17814  0.35233  1.0000
  C   C51       1.0  0.04727  0.32186  0.64767  1.0000
  C   C52       1.0  0.45269  0.67816  0.14765  1.0000
  C   C53       1.0  0.00314  0.77038  0.93091  1.0000
  C   C54       1.0  0.49683  0.22958  0.43091  1.0000
  C   C55       1.0  0.99683  0.27042  0.56910  1.0000
  C   C56       1.0  0.50312  0.72962  0.06907  1.0000
  C   C57       1.0  0.05845  0.84019  0.99816  1.0000
  C   C58       1.0  0.44159  0.15975  0.49817  1.0000
  C   C59       1.0  0.94152  0.34024  0.50184  1.0000
  C   C60       1.0  0.55837  0.65980  0.00181  1.0000
  C   C61       1.0  0.06749  0.95307  0.98782  1.0000
  C   C62       1.0  0.43259  0.04687  0.48784  1.0000
  C   C63       1.0  0.93248  0.45311  0.51218  1.0000
  C   C64       1.0  0.56740  0.54692  0.01214  1.0000
  C   C65       1.0  0.02546  0.00232  0.90942  1.0000
  C   C66       1.0  0.47460  0.99763  0.40942  1.0000
  C   C67       1.0  0.97452  0.50236  0.59058  1.0000
  C   C68       1.0  0.52537  0.49767  0.09055  1.0000
  C   C69       1.0  0.96771  0.93673  0.84272  1.0000
  C   C70       1.0  0.53230  0.06324  0.34272  1.0000
  C   C71       1.0  0.03227  0.43676  0.65728  1.0000
  C   C72       1.0  0.46766  0.56326  0.15725  1.0000
  N   N1        1.0  0.01953  0.49688  0.03848  1.0000
  N   N2        1.0  0.48041  0.50306  0.53847  1.0000
  N   N3        1.0  0.98046  0.99693  0.46155  1.0000
  N   N4        1.0  0.51958  0.00312  0.96151  1.0000
  O   O1        1.0  0.12823  0.27471  0.01331  1.0000
  O   O2        1.0  0.37184  0.72526  0.51328  1.0000
  O   O3        1.0  0.87184  0.77475  0.48675  1.0000
  O   O4        1.0  0.62822  0.22529  0.98667  1.0000
  O   O5        1.0  0.34463  0.23169  0.11037  1.0000
  O   O6        1.0  0.15553  0.76837  0.61037  1.0000
  O   O7        1.0  0.65559  0.73163  0.38965  1.0000
  O   O8        1.0  0.84468  0.26830  0.88962  1.0000
  O   O9        1.0  0.90214  0.48254  0.86821  1.0000
  O   O10       1.0  0.59775  0.51742  0.36818  1.0000
  O   O11       1.0  0.09791  0.98258  0.63181  1.0000
  O   O12       1.0  0.40217  0.01746  0.13178  1.0000
