data_image0
_chemical_formula_structural       La2Zn2H32C24N6O24
_chemical_formula_sum              "La2 Zn2 H32 C24 N6 O24"
_cell_length_a       8.56756
_cell_length_b       9.69506
_cell_length_c       12.9171
_cell_angle_alpha    67.9415
_cell_angle_beta     81.1487
_cell_angle_gamma    65.832

_space_group_name_H-M_alt    "P 1"
_space_group_IT_number       1

loop_
  _space_group_symop_operation_xyz
  'x, y, z'

loop_
  _atom_site_type_symbol
  _atom_site_label
  _atom_site_symmetry_multiplicity
  _atom_site_fract_x
  _atom_site_fract_y
  _atom_site_fract_z
  _atom_site_occupancy
  La  La1       1.0  0.25003  0.99303  0.01385  1.0000
  La  La2       1.0  0.74997  0.00697  0.98615  1.0000
  Zn  Zn1       1.0  0.25001  0.83178  0.33646  1.0000
  Zn  Zn2       1.0  0.74999  0.16822  0.66354  1.0000
  H   H1        1.0  0.69758  0.20995  0.19300  1.0000
  H   H2        1.0  0.19747  0.40317  0.80697  1.0000
  H   H3        1.0  0.30242  0.79005  0.80700  1.0000
  H   H4        1.0  0.80253  0.59683  0.19303  1.0000
  H   H5        1.0  0.64433  0.38354  0.07205  1.0000
  H   H6        1.0  0.14419  0.45575  0.92793  1.0000
  H   H7        1.0  0.35568  0.61646  0.92795  1.0000
  H   H8        1.0  0.85581  0.54425  0.07207  1.0000
  H   H9        1.0  0.07900  0.68491  0.49858  1.0000
  H   H10       1.0  0.57906  0.18340  0.50146  1.0000
  H   H11       1.0  0.92100  0.31509  0.50142  1.0000
  H   H12       1.0  0.42094  0.81660  0.49854  1.0000
  H   H13       1.0  0.20762  0.42166  0.43473  1.0000
  H   H14       1.0  0.70772  0.85622  0.56545  1.0000
  H   H15       1.0  0.79237  0.57834  0.56527  1.0000
  H   H16       1.0  0.29228  0.14378  0.43455  1.0000
  H   H17       1.0  0.85466  0.33222  0.25914  1.0000
  H   H18       1.0  0.35475  0.59148  0.74093  1.0000
  H   H19       1.0  0.14534  0.66778  0.74086  1.0000
  H   H20       1.0  0.64525  0.40852  0.25907  1.0000
  H   H21       1.0  0.87335  0.79492  0.37366  1.0000
  H   H22       1.0  0.37342  0.16846  0.62645  1.0000
  H   H23       1.0  0.12665  0.20508  0.62634  1.0000
  H   H24       1.0  0.62658  0.83154  0.37355  1.0000
  H   H25       1.0  0.29566  0.45196  0.53732  1.0000
  H   H26       1.0  0.79572  0.98915  0.46277  1.0000
  H   H27       1.0  0.70434  0.54804  0.46268  1.0000
  H   H28       1.0  0.20428  0.01084  0.53723  1.0000
  H   H29       1.0  0.95875  0.59876  0.36516  1.0000
  H   H30       1.0  0.45873  0.96383  0.63491  1.0000
  H   H31       1.0  0.04125  0.40124  0.63484  1.0000
  H   H32       1.0  0.54127  0.03617  0.36508  1.0000
  C   C1        1.0  0.01523  0.78077  0.22742  1.0000
  C   C2        1.0  0.51532  0.00799  0.77267  1.0000
  C   C3        1.0  0.98477  0.21923  0.77259  1.0000
  C   C4        1.0  0.48468  0.99201  0.22733  1.0000
  C   C5        1.0  0.98844  0.70427  0.35260  1.0000
  C   C6        1.0  0.48847  0.05674  0.64750  1.0000
  C   C7        1.0  0.01156  0.29573  0.64740  1.0000
  C   C8        1.0  0.51153  0.94326  0.35250  1.0000
  C   C9        1.0  0.42373  0.49103  0.38254  1.0000
  C   C10       1.0  0.92381  0.87358  0.61746  1.0000
  C   C11       1.0  0.57627  0.50897  0.61746  1.0000
  C   C12       1.0  0.07619  0.12642  0.38254  1.0000
  C   C13       1.0  0.25776  0.50104  0.44895  1.0000
  C   C14       1.0  0.75782  0.94989  0.55114  1.0000
  C   C15       1.0  0.74224  0.49896  0.55105  1.0000
  C   C16       1.0  0.24218  0.05011  0.44886  1.0000
  C   C17       1.0  0.91022  0.22474  0.08671  1.0000
  C   C18       1.0  0.41015  0.31154  0.91325  1.0000
  C   C19       1.0  0.08978  0.77527  0.91329  1.0000
  C   C20       1.0  0.58985  0.68846  0.08675  1.0000
  C   C21       1.0  0.74149  0.30488  0.13781  1.0000
  C   C22       1.0  0.24140  0.44282  0.86219  1.0000
  C   C23       1.0  0.25851  0.69512  0.86219  1.0000
  C   C24       1.0  0.75860  0.55719  0.13781  1.0000
  N   N1        1.0  0.12801  0.66527  0.42474  1.0000
  N   N2        1.0  0.62805  0.08991  0.57531  1.0000
  N   N3        1.0  0.87199  0.33474  0.57526  1.0000
  N   N4        1.0  0.37195  0.91009  0.42468  1.0000
  N   N5        1.0  0.75001  0.39831  0.20323  1.0000
  N   N6        1.0  0.24999  0.60170  0.79677  1.0000
  O   O1        1.0  0.13519  0.83430  0.19863  1.0000
  O   O2        1.0  0.63522  0.03285  0.80139  1.0000
  O   O3        1.0  0.86481  0.16571  0.80137  1.0000
  O   O4        1.0  0.36478  0.96715  0.19861  1.0000
  O   O5        1.0  0.91194  0.79018  0.16339  1.0000
  O   O6        1.0  0.41213  0.95318  0.83674  1.0000
  O   O7        1.0  0.08806  0.20982  0.83661  1.0000
  O   O8        1.0  0.58787  0.04682  0.16326  1.0000
  O   O9        1.0  0.46239  0.61452  0.34527  1.0000
  O   O10       1.0  0.96243  0.95982  0.65470  1.0000
  O   O11       1.0  0.53761  0.38548  0.65473  1.0000
  O   O12       1.0  0.03758  0.04018  0.34530  1.0000
  O   O13       1.0  0.51728  0.35588  0.37250  1.0000
  O   O14       1.0  0.01739  0.72839  0.62752  1.0000
  O   O15       1.0  0.48272  0.64412  0.62750  1.0000
  O   O16       1.0  0.98261  0.27161  0.37248  1.0000
  O   O17       1.0  0.04216  0.25084  0.08644  1.0000
  O   O18       1.0  0.54201  0.33745  0.91360  1.0000
  O   O19       1.0  0.95784  0.74916  0.91356  1.0000
  O   O20       1.0  0.45799  0.66256  0.08640  1.0000
  O   O21       1.0  0.90837  0.12403  0.04490  1.0000
  O   O22       1.0  0.40832  0.16899  0.95495  1.0000
  O   O23       1.0  0.09162  0.87597  0.95510  1.0000
  O   O24       1.0  0.59168  0.83101  0.04505  1.0000
