data_image0
_chemical_formula_structural       Cd2H28C34N4O10
_chemical_formula_sum              "Cd2 H28 C34 N4 O10"
_cell_length_a       7.05023
_cell_length_b       7.00989
_cell_length_c       16.6801
_cell_angle_alpha    98.6255
_cell_angle_beta     91.4569
_cell_angle_gamma    109.698

_space_group_name_H-M_alt    "P 1"
_space_group_IT_number       1

loop_
  _space_group_symop_operation_xyz
  'x, y, z'

loop_
  _atom_site_type_symbol
  _atom_site_label
  _atom_site_symmetry_multiplicity
  _atom_site_fract_x
  _atom_site_fract_y
  _atom_site_fract_z
  _atom_site_occupancy
  Cd  Cd1       1.0  0.30724  0.64919  0.02937  1.0000
  Cd  Cd2       1.0  0.69275  0.35081  0.97064  1.0000
  H   H1        1.0  0.11225  0.06108  0.61376  1.0000
  H   H2        1.0  0.88773  0.93892  0.38624  1.0000
  H   H3        1.0  0.22298  0.50603  0.57909  1.0000
  H   H4        1.0  0.77703  0.49398  0.42091  1.0000
  H   H5        1.0  0.16118  0.25220  0.52296  1.0000
  H   H6        1.0  0.83881  0.74780  0.47704  1.0000
  H   H7        1.0  0.95061  0.08592  0.74289  1.0000
  H   H8        1.0  0.04938  0.91407  0.25711  1.0000
  H   H9        1.0  0.12683  0.70669  0.39379  1.0000
  H   H10       1.0  0.87317  0.29333  0.60621  1.0000
  H   H11       1.0  0.19671  0.77810  0.49985  1.0000
  H   H12       1.0  0.80329  0.22191  0.50015  1.0000
  H   H13       1.0  0.97887  0.50997  0.15511  1.0000
  H   H14       1.0  0.02113  0.49003  0.84489  1.0000
  H   H15       1.0  0.57703  0.91253  0.73497  1.0000
  H   H16       1.0  0.42297  0.08748  0.26503  1.0000
  H   H17       1.0  0.43358  0.97875  0.61034  1.0000
  H   H18       1.0  0.56642  0.02124  0.38966  1.0000
  H   H19       1.0  0.94190  0.42223  0.29394  1.0000
  H   H20       1.0  0.05810  0.57778  0.70605  1.0000
  H   H21       1.0  0.57135  0.47839  0.30591  1.0000
  H   H22       1.0  0.42864  0.52161  0.69409  1.0000
  H   H23       1.0  0.58153  0.56238  0.16487  1.0000
  H   H24       1.0  0.41847  0.43761  0.83513  1.0000
  H   H25       1.0  0.89968  0.98665  0.87701  1.0000
  H   H26       1.0  0.10032  0.01334  0.12300  1.0000
  H   H27       1.0  0.08086  0.91078  0.92682  1.0000
  H   H28       1.0  0.91915  0.08922  0.07318  1.0000
  C   C1        1.0  0.18104  0.03612  0.66865  1.0000
  C   C2        1.0  0.81895  0.96387  0.33135  1.0000
  C   C3        1.0  0.12165  0.39166  0.52968  1.0000
  C   C4        1.0  0.87835  0.60835  0.47032  1.0000
  C   C5        1.0  0.08888  0.04857  0.74136  1.0000
  C   C6        1.0  0.91112  0.95143  0.25864  1.0000
  C   C7        1.0  0.09963  0.65408  0.45234  1.0000
  C   C8        1.0  0.90038  0.34593  0.54766  1.0000
  C   C9        1.0  0.10871  0.50893  0.19152  1.0000
  C   C10       1.0  0.89129  0.49107  0.80848  1.0000
  C   C11       1.0  0.16623  0.00649  0.81228  1.0000
  C   C12       1.0  0.83377  0.99350  0.18772  1.0000
  C   C13       1.0  0.43956  0.95072  0.73687  1.0000
  C   C14       1.0  0.56044  0.04928  0.26313  1.0000
  C   C15       1.0  0.25781  0.45245  0.31321  1.0000
  C   C16       1.0  0.74219  0.54754  0.68678  1.0000
  C   C17       1.0  0.24634  0.38442  0.39467  1.0000
  C   C18       1.0  0.75366  0.61558  0.60532  1.0000
  C   C19       1.0  0.42605  0.89486  0.88194  1.0000
  C   C20       1.0  0.57396  0.10514  0.11806  1.0000
  C   C21       1.0  0.35799  0.98832  0.66630  1.0000
  C   C22       1.0  0.64201  0.01168  0.33370  1.0000
  C   C23       1.0  0.34316  0.95523  0.80916  1.0000
  C   C24       1.0  0.65684  0.04477  0.19084  1.0000
  C   C25       1.0  0.08949  0.46076  0.26954  1.0000
  C   C26       1.0  0.91051  0.53925  0.73045  1.0000
  C   C27       1.0  0.43795  0.48821  0.27512  1.0000
  C   C28       1.0  0.56204  0.51179  0.72488  1.0000
  C   C29       1.0  0.44507  0.53492  0.19694  1.0000
  C   C30       1.0  0.55493  0.46507  0.80306  1.0000
  C   C31       1.0  0.15036  0.23313  0.94182  1.0000
  C   C32       1.0  0.84965  0.76687  0.05819  1.0000
  C   C33       1.0  0.06221  0.02112  0.88958  1.0000
  C   C34       1.0  0.93779  0.97887  0.11043  1.0000
  N   N1        1.0  0.15530  0.47167  0.45342  1.0000
  N   N2        1.0  0.84471  0.52834  0.54658  1.0000
  N   N3        1.0  0.28374  0.54698  0.15613  1.0000
  N   N4        1.0  0.71626  0.45301  0.84386  1.0000
  O   O1        1.0  0.31449  0.24711  0.40566  1.0000
  O   O2        1.0  0.68550  0.75289  0.59434  1.0000
  O   O3        1.0  0.59997  0.00289  0.91501  1.0000
  O   O4        1.0  0.40003  0.99711  0.08500  1.0000
  O   O5        1.0  0.03177  0.32294  0.97156  1.0000
  O   O6        1.0  0.96823  0.67705  0.02844  1.0000
  O   O7        1.0  0.34096  0.32079  0.95502  1.0000
  O   O8        1.0  0.65904  0.67921  0.04498  1.0000
  O   O9        1.0  0.31081  0.72966  0.90324  1.0000
  O   O10       1.0  0.68919  0.27034  0.09676  1.0000
