data_image0
_chemical_formula_structural       Sm4H48C56N8O32
_chemical_formula_sum              "Sm4 H48 C56 N8 O32"
_cell_length_a       11.0964
_cell_length_b       11.1904
_cell_length_c       16.113
_cell_angle_alpha    73.9857
_cell_angle_beta     82.9862
_cell_angle_gamma    74.3372

_space_group_name_H-M_alt    "P 1"
_space_group_IT_number       1

loop_
  _space_group_symop_operation_xyz
  'x, y, z'

loop_
  _atom_site_type_symbol
  _atom_site_label
  _atom_site_symmetry_multiplicity
  _atom_site_fract_x
  _atom_site_fract_y
  _atom_site_fract_z
  _atom_site_occupancy
  Sm  Sm1       1.0  0.59911  0.84132  0.38280  1.0000
  Sm  Sm2       1.0  0.40089  0.15868  0.61721  1.0000
  Sm  Sm3       1.0  0.79587  0.99789  0.13176  1.0000
  Sm  Sm4       1.0  0.20412  0.00212  0.86824  1.0000
  H   H1        1.0  0.65729  0.96029  0.93742  1.0000
  H   H2        1.0  0.34271  0.03971  0.06258  1.0000
  H   H3        1.0  0.21639  0.82736  0.57449  1.0000
  H   H4        1.0  0.78361  0.17264  0.42551  1.0000
  H   H5        1.0  0.16950  0.83734  0.31004  1.0000
  H   H6        1.0  0.83050  0.16266  0.68996  1.0000
  H   H7        1.0  0.70418  0.38082  0.78275  1.0000
  H   H8        1.0  0.29582  0.61919  0.21726  1.0000
  H   H9        1.0  0.53874  0.43657  0.79503  1.0000
  H   H10       1.0  0.46126  0.56344  0.20497  1.0000
  H   H11       1.0  0.60482  0.28674  0.76863  1.0000
  H   H12       1.0  0.39518  0.71326  0.23137  1.0000
  H   H13       1.0  0.71744  0.81616  0.56723  1.0000
  H   H14       1.0  0.28256  0.18384  0.43277  1.0000
  H   H15       1.0  0.56947  0.85831  0.56821  1.0000
  H   H16       1.0  0.43053  0.14169  0.43179  1.0000
  H   H17       1.0  0.59700  0.13197  0.35218  1.0000
  H   H18       1.0  0.40300  0.86803  0.64782  1.0000
  H   H19       1.0  0.60768  0.06474  0.45314  1.0000
  H   H20       1.0  0.39232  0.93527  0.54686  1.0000
  H   H21       1.0  0.63958  0.56338  0.51611  1.0000
  H   H22       1.0  0.36043  0.43662  0.48389  1.0000
  H   H23       1.0  0.63790  0.57092  0.41617  1.0000
  H   H24       1.0  0.36210  0.42908  0.58383  1.0000
  H   H25       1.0  0.85317  0.85605  0.49145  1.0000
  H   H26       1.0  0.14683  0.14393  0.50855  1.0000
  H   H27       1.0  0.86307  0.27934  0.09507  1.0000
  H   H28       1.0  0.13694  0.72067  0.90493  1.0000
  H   H29       1.0  0.66310  0.46610  0.28933  1.0000
  H   H30       1.0  0.33691  0.53390  0.71067  1.0000
  H   H31       1.0  0.63417  0.89525  0.68951  1.0000
  H   H32       1.0  0.36582  0.10475  0.31048  1.0000
  H   H33       1.0  0.88798  0.66020  0.08714  1.0000
  H   H34       1.0  0.11203  0.33981  0.91286  1.0000
  H   H35       1.0  0.99420  0.86594  0.77914  1.0000
  H   H36       1.0  0.00580  0.13405  0.22086  1.0000
  H   H37       1.0  0.86565  0.21825  0.83716  1.0000
  H   H38       1.0  0.13435  0.78174  0.16284  1.0000
  H   H39       1.0  0.92272  0.19783  0.94030  1.0000
  H   H40       1.0  0.07728  0.80216  0.05971  1.0000
  H   H41       1.0  0.85517  0.35419  0.87726  1.0000
  H   H42       1.0  0.14484  0.64580  0.12274  1.0000
  H   H43       1.0  0.43280  0.36730  0.93408  1.0000
  H   H44       1.0  0.56720  0.63270  0.06591  1.0000
  H   H45       1.0  0.51212  0.22338  0.00913  1.0000
  H   H46       1.0  0.48787  0.77662  0.99087  1.0000
  H   H47       1.0  0.46094  0.21442  0.91102  1.0000
  H   H48       1.0  0.53906  0.78558  0.08898  1.0000
  C   C1        1.0  0.70736  0.24578  0.24024  1.0000
  C   C2        1.0  0.29265  0.75422  0.75976  1.0000
  C   C3        1.0  0.75824  0.36040  0.19747  1.0000
  C   C4        1.0  0.24177  0.63961  0.80253  1.0000
  C   C5        1.0  0.90925  0.91970  0.93453  1.0000
  C   C6        1.0  0.09075  0.08030  0.06547  1.0000
  C   C7        1.0  0.49079  0.97776  0.82029  1.0000
  C   C8        1.0  0.50921  0.02224  0.17971  1.0000
  C   C9        1.0  0.63071  0.93385  0.81379  1.0000
  C   C10       1.0  0.36929  0.06615  0.18620  1.0000
  C   C11       1.0  0.70285  0.93558  0.87840  1.0000
  C   C12       1.0  0.29715  0.06443  0.12160  1.0000
  C   C13       1.0  0.83396  0.91013  0.86601  1.0000
  C   C14       1.0  0.16603  0.08987  0.13399  1.0000
  C   C15       1.0  0.34010  0.83531  0.41575  1.0000
  C   C16       1.0  0.65990  0.16468  0.58425  1.0000
  C   C17       1.0  0.20736  0.82930  0.44014  1.0000
  C   C18       1.0  0.79265  0.17070  0.55985  1.0000
  C   C19       1.0  0.15743  0.82978  0.52434  1.0000
  C   C20       1.0  0.84257  0.17022  0.47566  1.0000
  C   C21       1.0  0.13064  0.83409  0.37582  1.0000
  C   C22       1.0  0.86935  0.16590  0.62417  1.0000
  C   C23       1.0  0.61755  0.35079  0.80607  1.0000
  C   C24       1.0  0.38245  0.64921  0.19393  1.0000
  C   C25       1.0  0.77351  0.57456  0.19284  1.0000
  C   C26       1.0  0.22649  0.42544  0.80717  1.0000
  C   C27       1.0  0.73632  0.69104  0.22762  1.0000
  C   C28       1.0  0.26368  0.30896  0.77238  1.0000
  C   C29       1.0  0.95343  0.84314  0.47902  1.0000
  C   C30       1.0  0.04657  0.15685  0.52098  1.0000
  C   C31       1.0  0.83779  0.36132  0.12318  1.0000
  C   C32       1.0  0.16221  0.63868  0.87682  1.0000
  C   C33       1.0  0.72655  0.46693  0.23220  1.0000
  C   C34       1.0  0.27345  0.53307  0.76781  1.0000
  C   C35       1.0  0.00273  0.84263  0.39530  1.0000
  C   C36       1.0  0.99727  0.15736  0.60470  1.0000
  C   C37       1.0  0.82092  0.87150  0.72700  1.0000
  C   C38       1.0  0.17908  0.12850  0.27299  1.0000
  C   C39       1.0  0.91317  0.85995  0.32760  1.0000
  C   C40       1.0  0.08683  0.14004  0.67240  1.0000
  C   C41       1.0  0.02973  0.83515  0.54441  1.0000
  C   C42       1.0  0.97027  0.16484  0.45559  1.0000
  C   C43       1.0  0.69025  0.89812  0.73951  1.0000
  C   C44       1.0  0.30975  0.10189  0.26049  1.0000
  C   C45       1.0  0.88691  0.46775  0.08485  1.0000
  C   C46       1.0  0.11310  0.53226  0.91515  1.0000
  C   C47       1.0  0.85354  0.57553  0.11891  1.0000
  C   C48       1.0  0.14647  0.42447  0.88110  1.0000
  C   C49       1.0  0.89315  0.88046  0.79004  1.0000
  C   C50       1.0  0.10685  0.11954  0.20996  1.0000
  C   C51       1.0  0.84908  0.25366  0.89570  1.0000
  C   C52       1.0  0.15092  0.74633  0.10430  1.0000
  C   C53       1.0  0.72511  0.24166  0.94239  1.0000
  C   C54       1.0  0.27489  0.75834  0.05761  1.0000
  C   C55       1.0  0.49910  0.27271  0.94099  1.0000
  C   C56       1.0  0.50089  0.72730  0.05901  1.0000
  N   N1        1.0  0.96779  0.45881  0.01073  1.0000
  N   N2        1.0  0.03222  0.54119  0.98927  1.0000
  N   N3        1.0  0.98418  0.84480  0.62894  1.0000
  N   N4        1.0  0.01583  0.15519  0.37106  1.0000
  N   N5        1.0  0.86912  0.84684  0.64594  1.0000
  N   N6        1.0  0.13088  0.15316  0.35406  1.0000
  N   N7        1.0  0.61983  0.28814  0.89832  1.0000
  N   N8        1.0  0.38017  0.71186  0.10168  1.0000
  O   O1        1.0  0.75011  0.14512  0.21283  1.0000
  O   O2        1.0  0.24989  0.85489  0.78717  1.0000
  O   O3        1.0  0.85434  0.91977  0.00868  1.0000
  O   O4        1.0  0.14566  0.08022  0.99132  1.0000
  O   O5        1.0  0.02175  0.92589  0.91534  1.0000
  O   O6        1.0  0.97825  0.07412  0.08466  1.0000
  O   O7        1.0  0.43424  0.01459  0.74926  1.0000
  O   O8        1.0  0.56575  0.98542  0.25074  1.0000
  O   O9        1.0  0.43174  0.97776  0.89241  1.0000
  O   O10       1.0  0.56826  0.02224  0.10759  1.0000
  O   O11       1.0  0.39457  0.88245  0.46096  1.0000
  O   O12       1.0  0.60543  0.11755  0.53904  1.0000
  O   O13       1.0  0.39760  0.79882  0.35071  1.0000
  O   O14       1.0  0.60240  0.20117  0.64929  1.0000
  O   O15       1.0  0.94660  0.89274  0.24849  1.0000
  O   O16       1.0  0.05339  0.10726  0.75151  1.0000
  O   O17       1.0  0.64566  0.81065  0.53961  1.0000
  O   O18       1.0  0.35433  0.18935  0.46039  1.0000
  O   O19       1.0  0.57402  0.05644  0.40087  1.0000
  O   O20       1.0  0.42598  0.94356  0.59913  1.0000
  O   O21       1.0  0.67038  0.68477  0.29896  1.0000
  O   O22       1.0  0.32961  0.31524  0.70103  1.0000
  O   O23       1.0  0.60081  0.61336  0.46231  1.0000
  O   O24       1.0  0.39920  0.38664  0.53769  1.0000
  O   O25       1.0  0.77182  0.78911  0.18389  1.0000
  O   O26       1.0  0.22818  0.21090  0.81611  1.0000
  O   O27       1.0  0.62610  0.25478  0.30218  1.0000
  O   O28       1.0  0.37391  0.74522  0.69782  1.0000
  O   O29       1.0  0.80499  0.84289  0.35636  1.0000
  O   O30       1.0  0.19501  0.15710  0.64364  1.0000
  O   O31       1.0  0.72042  0.18933  0.02259  1.0000
  O   O32       1.0  0.27958  0.81067  0.97741  1.0000
