data_image0
_chemical_formula_structural       Zn4H28C20N12Cl8
_chemical_formula_sum              "Zn4 H28 C20 N12 Cl8"
_cell_length_a       6.31871
_cell_length_b       9.25779
_cell_length_c       13.8064
_cell_angle_alpha    93.1809
_cell_angle_beta     90
_cell_angle_gamma    90.0001

_space_group_name_H-M_alt    "P 1"
_space_group_IT_number       1

loop_
  _space_group_symop_operation_xyz
  'x, y, z'

loop_
  _atom_site_type_symbol
  _atom_site_label
  _atom_site_symmetry_multiplicity
  _atom_site_fract_x
  _atom_site_fract_y
  _atom_site_fract_z
  _atom_site_occupancy
  Zn  Zn1       1.0  0.31640  0.02214  0.66652  1.0000
  Zn  Zn2       1.0  0.18360  0.52214  0.16652  1.0000
  Zn  Zn3       1.0  0.68360  0.97786  0.33348  1.0000
  Zn  Zn4       1.0  0.81640  0.47786  0.83348  1.0000
  H   H1        1.0  0.18877  0.39231  0.62773  1.0000
  H   H2        1.0  0.31123  0.89231  0.12774  1.0000
  H   H3        1.0  0.81122  0.60769  0.37227  1.0000
  H   H4        1.0  0.68878  0.10769  0.87226  1.0000
  H   H5        1.0  0.22536  0.54492  0.48241  1.0000
  H   H6        1.0  0.27465  0.04491  0.98242  1.0000
  H   H7        1.0  0.77464  0.45508  0.51758  1.0000
  H   H8        1.0  0.72537  0.95509  0.01758  1.0000
  H   H9        1.0  0.24445  0.81266  0.51055  1.0000
  H   H10       1.0  0.25555  0.31266  0.01055  1.0000
  H   H11       1.0  0.75555  0.18734  0.48945  1.0000
  H   H12       1.0  0.74445  0.68734  0.98945  1.0000
  H   H13       1.0  0.19108  0.91142  0.83258  1.0000
  H   H14       1.0  0.30892  0.41141  0.33258  1.0000
  H   H15       1.0  0.80892  0.08859  0.16742  1.0000
  H   H16       1.0  0.69108  0.58858  0.66742  1.0000
  H   H17       1.0  0.18662  0.74943  0.89070  1.0000
  H   H18       1.0  0.31338  0.24943  0.39070  1.0000
  H   H19       1.0  0.81338  0.25057  0.10930  1.0000
  H   H20       1.0  0.68662  0.75057  0.60930  1.0000
  H   H21       1.0  0.21743  0.53212  0.87440  1.0000
  H   H22       1.0  0.28257  0.03212  0.37441  1.0000
  H   H23       1.0  0.78257  0.46788  0.12559  1.0000
  H   H24       1.0  0.71743  0.96788  0.62559  1.0000
  H   H25       1.0  0.19481  0.38750  0.79786  1.0000
  H   H26       1.0  0.30518  0.88750  0.29786  1.0000
  H   H27       1.0  0.80518  0.61250  0.20214  1.0000
  H   H28       1.0  0.69482  0.11249  0.70214  1.0000
  C   C1        1.0  0.20664  0.73016  0.74010  1.0000
  C   C2        1.0  0.29336  0.23015  0.24010  1.0000
  C   C3        1.0  0.79335  0.26985  0.25990  1.0000
  C   C4        1.0  0.70664  0.76984  0.75990  1.0000
  C   C5        1.0  0.18974  0.57683  0.72870  1.0000
  C   C6        1.0  0.31025  0.07682  0.22870  1.0000
  C   C7        1.0  0.81026  0.42317  0.27130  1.0000
  C   C8        1.0  0.68974  0.92317  0.77130  1.0000
  C   C9        1.0  0.19959  0.50993  0.63667  1.0000
  C   C10       1.0  0.30040  0.00992  0.13668  1.0000
  C   C11       1.0  0.80040  0.49007  0.36333  1.0000
  C   C12       1.0  0.69960  0.99007  0.86332  1.0000
  C   C13       1.0  0.22005  0.59356  0.55579  1.0000
  C   C14       1.0  0.27995  0.09355  0.05579  1.0000
  C   C15       1.0  0.77995  0.40644  0.44421  1.0000
  C   C16       1.0  0.72005  0.90644  0.94421  1.0000
  C   C17       1.0  0.23145  0.74184  0.57065  1.0000
  C   C18       1.0  0.26855  0.24184  0.07065  1.0000
  C   C19       1.0  0.76855  0.25816  0.42935  1.0000
  C   C20       1.0  0.73145  0.75816  0.92935  1.0000
  N   N1        1.0  0.22883  0.80916  0.66043  1.0000
  N   N2        1.0  0.27116  0.30916  0.16043  1.0000
  N   N3        1.0  0.77116  0.19084  0.33957  1.0000
  N   N4        1.0  0.72883  0.69084  0.83957  1.0000
  N   N5        1.0  0.20465  0.80127  0.82825  1.0000
  N   N6        1.0  0.29535  0.30127  0.32825  1.0000
  N   N7        1.0  0.79535  0.19873  0.17175  1.0000
  N   N8        1.0  0.70465  0.69873  0.67175  1.0000
  N   N9        1.0  0.14664  0.49359  0.81073  1.0000
  N   N10       1.0  0.35336  0.99359  0.31073  1.0000
  N   N11       1.0  0.85336  0.50641  0.18927  1.0000
  N   N12       1.0  0.64664  0.00641  0.68927  1.0000
  Cl  Cl1       1.0  0.18656  0.14458  0.79946  1.0000
  Cl  Cl2       1.0  0.31344  0.64458  0.29946  1.0000
  Cl  Cl3       1.0  0.81344  0.85542  0.20054  1.0000
  Cl  Cl4       1.0  0.68655  0.35542  0.70054  1.0000
  Cl  Cl5       1.0  0.23866  0.12902  0.52947  1.0000
  Cl  Cl6       1.0  0.26134  0.62901  0.02947  1.0000
  Cl  Cl7       1.0  0.76134  0.87098  0.47053  1.0000
  Cl  Cl8       1.0  0.73867  0.37098  0.97053  1.0000
