data_image0
_chemical_formula_structural       Ba4H24C16O24
_chemical_formula_sum              "Ba4 H24 C16 O24"
_cell_length_a       7.1624
_cell_length_b       9.95461
_cell_length_c       10.0474
_cell_angle_alpha    90
_cell_angle_beta     90.0006
_cell_angle_gamma    90.0001

_space_group_name_H-M_alt    "P 1"
_space_group_IT_number       1

loop_
  _space_group_symop_operation_xyz
  'x, y, z'

loop_
  _atom_site_type_symbol
  _atom_site_label
  _atom_site_symmetry_multiplicity
  _atom_site_fract_x
  _atom_site_fract_y
  _atom_site_fract_z
  _atom_site_occupancy
  Ba  Ba1       1.0  0.24929  0.11787  0.11074  1.0000
  Ba  Ba2       1.0  0.75071  0.88213  0.61073  1.0000
  Ba  Ba3       1.0  0.74929  0.38213  0.11073  1.0000
  Ba  Ba4       1.0  0.25071  0.61787  0.61074  1.0000
  H   H1        1.0  0.62510  0.82392  0.23228  1.0000
  H   H2        1.0  0.37490  0.17609  0.73229  1.0000
  H   H3        1.0  0.12509  0.67608  0.23227  1.0000
  H   H4        1.0  0.87490  0.32391  0.73228  1.0000
  H   H5        1.0  0.45697  0.69250  0.22816  1.0000
  H   H6        1.0  0.54304  0.30751  0.72816  1.0000
  H   H7        1.0  0.95696  0.80750  0.22816  1.0000
  H   H8        1.0  0.04304  0.19249  0.72816  1.0000
  H   H9        1.0  0.45806  0.69198  0.99487  1.0000
  H   H10       1.0  0.54192  0.30802  0.49488  1.0000
  H   H11       1.0  0.95807  0.80803  0.99488  1.0000
  H   H12       1.0  0.04194  0.19197  0.49488  1.0000
  H   H13       1.0  0.62620  0.82353  0.99095  1.0000
  H   H14       1.0  0.37378  0.17647  0.49094  1.0000
  H   H15       1.0  0.12620  0.67647  0.99095  1.0000
  H   H16       1.0  0.87381  0.32353  0.49095  1.0000
  H   H17       1.0  0.30473  0.46401  0.03393  1.0000
  H   H18       1.0  0.69526  0.53599  0.53393  1.0000
  H   H19       1.0  0.80474  0.03599  0.03392  1.0000
  H   H20       1.0  0.19527  0.96401  0.53393  1.0000
  H   H21       1.0  0.30775  0.46452  0.19494  1.0000
  H   H22       1.0  0.69225  0.53549  0.69494  1.0000
  H   H23       1.0  0.80775  0.03549  0.19494  1.0000
  H   H24       1.0  0.19225  0.96452  0.69495  1.0000
  C   C1        1.0  0.38685  0.86108  0.35321  1.0000
  C   C2        1.0  0.61316  0.13892  0.85321  1.0000
  C   C3        1.0  0.88684  0.63891  0.35321  1.0000
  C   C4        1.0  0.11316  0.36109  0.85321  1.0000
  C   C5        1.0  0.47405  0.80253  0.22838  1.0000
  C   C6        1.0  0.52594  0.19746  0.72839  1.0000
  C   C7        1.0  0.97405  0.69746  0.22839  1.0000
  C   C8        1.0  0.02595  0.30253  0.72839  1.0000
  C   C9        1.0  0.47515  0.80205  0.99433  1.0000
  C   C10       1.0  0.52484  0.19796  0.49432  1.0000
  C   C11       1.0  0.97515  0.69796  0.99433  1.0000
  C   C12       1.0  0.02485  0.30204  0.49433  1.0000
  C   C13       1.0  0.38893  0.85978  0.86875  1.0000
  C   C14       1.0  0.61105  0.14023  0.36875  1.0000
  C   C15       1.0  0.88893  0.64023  0.86875  1.0000
  C   C16       1.0  0.11106  0.35977  0.36875  1.0000
  O   O1        1.0  0.27392  0.95843  0.34610  1.0000
  O   O2        1.0  0.72610  0.04159  0.84610  1.0000
  O   O3        1.0  0.77391  0.54157  0.34610  1.0000
  O   O4        1.0  0.22610  0.45842  0.84610  1.0000
  O   O5        1.0  0.43947  0.80496  0.46128  1.0000
  O   O6        1.0  0.56053  0.19503  0.96129  1.0000
  O   O7        1.0  0.93947  0.69503  0.46128  1.0000
  O   O8        1.0  0.06052  0.30497  0.96129  1.0000
  O   O9        1.0  0.39471  0.85982  0.11105  1.0000
  O   O10       1.0  0.60527  0.14018  0.61105  1.0000
  O   O11       1.0  0.89471  0.64018  0.11105  1.0000
  O   O12       1.0  0.10530  0.35981  0.61105  1.0000
  O   O13       1.0  0.44248  0.80313  0.76131  1.0000
  O   O14       1.0  0.55752  0.19688  0.26132  1.0000
  O   O15       1.0  0.94249  0.69688  0.76131  1.0000
  O   O16       1.0  0.05752  0.30312  0.26132  1.0000
  O   O17       1.0  0.27561  0.95711  0.87494  1.0000
  O   O18       1.0  0.72440  0.04290  0.37493  1.0000
  O   O19       1.0  0.77561  0.54290  0.87492  1.0000
  O   O20       1.0  0.22442  0.45710  0.37493  1.0000
  O   O21       1.0  0.38481  0.47339  0.11348  1.0000
  O   O22       1.0  0.61519  0.52660  0.61348  1.0000
  O   O23       1.0  0.88481  0.02661  0.11348  1.0000
  O   O24       1.0  0.11519  0.97340  0.61348  1.0000
