data_image0
_chemical_formula_structural       Zn2H24C40N12O8
_chemical_formula_sum              "Zn2 H24 C40 N12 O8"
_cell_length_a       9.202
_cell_length_b       10.1924
_cell_length_c       12.6437
_cell_angle_alpha    90.7814
_cell_angle_beta     88.1914
_cell_angle_gamma    76.0593

_space_group_name_H-M_alt    "P 1"
_space_group_IT_number       1

loop_
  _space_group_symop_operation_xyz
  'x, y, z'

loop_
  _atom_site_type_symbol
  _atom_site_label
  _atom_site_symmetry_multiplicity
  _atom_site_fract_x
  _atom_site_fract_y
  _atom_site_fract_z
  _atom_site_occupancy
  Zn  Zn1       1.0  0.14347  0.62302  0.53222  1.0000
  Zn  Zn2       1.0  0.85652  0.37698  0.46777  1.0000
  H   H1        1.0  0.10328  0.09087  0.55276  1.0000
  H   H2        1.0  0.89673  0.90912  0.44723  1.0000
  H   H3        1.0  0.14984  0.46851  0.73874  1.0000
  H   H4        1.0  0.85015  0.53149  0.26126  1.0000
  H   H5        1.0  0.58506  0.43393  0.26078  1.0000
  H   H6        1.0  0.41494  0.56607  0.73923  1.0000
  H   H7        1.0  0.11786  0.78237  0.32977  1.0000
  H   H8        1.0  0.88214  0.21763  0.67022  1.0000
  H   H9        1.0  0.47343  0.26353  0.62311  1.0000
  H   H10       1.0  0.52657  0.73648  0.37689  1.0000
  H   H11       1.0  0.26629  0.79266  0.15982  1.0000
  H   H12       1.0  0.73371  0.20733  0.84018  1.0000
  H   H13       1.0  0.85752  0.80832  0.62878  1.0000
  H   H14       1.0  0.14248  0.19168  0.37123  1.0000
  H   H15       1.0  0.62773  0.03513  0.66690  1.0000
  H   H16       1.0  0.37228  0.96488  0.33310  1.0000
  H   H17       1.0  0.51641  0.83319  0.64862  1.0000
  H   H18       1.0  0.48360  0.16681  0.35137  1.0000
  H   H19       1.0  0.42666  0.44090  0.42304  1.0000
  H   H20       1.0  0.57334  0.55909  0.57696  1.0000
  H   H21       1.0  0.97966  0.45582  0.89541  1.0000
  H   H22       1.0  0.02033  0.54419  0.10459  1.0000
  H   H23       1.0  0.67478  0.81281  0.78286  1.0000
  H   H24       1.0  0.32522  0.18720  0.21714  1.0000
  C   C1        1.0  0.24423  0.82844  0.58256  1.0000
  C   C2        1.0  0.75577  0.17155  0.41744  1.0000
  C   C3        1.0  0.21729  0.07955  0.57933  1.0000
  C   C4        1.0  0.78271  0.92044  0.42067  1.0000
  C   C5        1.0  0.04287  0.54181  0.75119  1.0000
  C   C6        1.0  0.95713  0.45819  0.24881  1.0000
  C   C7        1.0  0.18562  0.33068  0.56570  1.0000
  C   C8        1.0  0.81438  0.66932  0.43429  1.0000
  C   C9        1.0  0.48266  0.51339  0.27111  1.0000
  C   C10       1.0  0.51734  0.48661  0.72889  1.0000
  C   C11       1.0  0.43833  0.61453  0.19670  1.0000
  C   C12       1.0  0.56167  0.38547  0.80330  1.0000
  C   C13       1.0  0.22226  0.70812  0.30989  1.0000
  C   C14       1.0  0.77774  0.29187  0.69011  1.0000
  C   C15       1.0  0.30427  0.95064  0.60065  1.0000
  C   C16       1.0  0.69573  0.04936  0.39935  1.0000
  C   C17       1.0  0.42678  0.17522  0.61948  1.0000
  C   C18       1.0  0.57321  0.82478  0.38052  1.0000
  C   C19       1.0  0.81290  0.63300  0.85022  1.0000
  C   C20       1.0  0.18710  0.36700  0.14978  1.0000
  C   C21       1.0  0.30421  0.71326  0.21644  1.0000
  C   C22       1.0  0.69578  0.28673  0.78356  1.0000
  C   C23       1.0  0.87922  0.73236  0.68998  1.0000
  C   C24       1.0  0.12078  0.26765  0.31002  1.0000
  C   C25       1.0  0.51224  0.04712  0.64335  1.0000
  C   C26       1.0  0.48777  0.95289  0.35665  1.0000
  C   C27       1.0  0.27845  0.19233  0.58873  1.0000
  C   C28       1.0  0.72156  0.80767  0.41127  1.0000
  C   C29       1.0  0.53325  0.61802  0.10144  1.0000
  C   C30       1.0  0.46675  0.38198  0.89856  1.0000
  C   C31       1.0  0.45127  0.93508  0.63378  1.0000
  C   C32       1.0  0.54873  0.06492  0.36622  1.0000
  C   C33       1.0  0.39403  0.51667  0.36281  1.0000
  C   C34       1.0  0.60597  0.48333  0.63719  1.0000
  C   C35       1.0  0.94896  0.53548  0.83811  1.0000
  C   C36       1.0  0.05104  0.46452  0.16189  1.0000
  C   C37       1.0  0.70883  0.62715  0.93988  1.0000
  C   C38       1.0  0.29116  0.37285  0.06013  1.0000
  C   C39       1.0  0.77886  0.73479  0.77501  1.0000
  C   C40       1.0  0.22114  0.26522  0.22499  1.0000
  N   N1        1.0  0.00808  0.63666  0.67738  1.0000
  N   N2        1.0  0.99191  0.36334  0.32263  1.0000
  N   N3        1.0  0.26679  0.61219  0.38227  1.0000
  N   N4        1.0  0.73320  0.38780  0.61772  1.0000
  N   N5        1.0  0.74552  0.51935  0.00345  1.0000
  N   N6        1.0  0.25448  0.48065  0.99655  1.0000
  N   N7        1.0  0.65609  0.51463  0.08580  1.0000
  N   N8        1.0  0.34391  0.48537  0.91420  1.0000
  N   N9        1.0  0.49176  0.72173  0.03417  1.0000
  N   N10       1.0  0.50824  0.27827  0.96584  1.0000
  N   N11       1.0  0.58138  0.72630  0.95171  1.0000
  N   N12       1.0  0.41861  0.27371  0.04829  1.0000
  O   O1        1.0  0.25412  0.42589  0.55818  1.0000
  O   O2        1.0  0.74588  0.57411  0.44182  1.0000
  O   O3        1.0  0.04551  0.34676  0.55899  1.0000
  O   O4        1.0  0.95448  0.65323  0.44101  1.0000
  O   O5        1.0  0.11695  0.84280  0.54050  1.0000
  O   O6        1.0  0.88307  0.15719  0.45950  1.0000
  O   O7        1.0  0.32282  0.71211  0.60610  1.0000
  O   O8        1.0  0.67719  0.28788  0.39390  1.0000
