data_image0
_chemical_formula_structural       CdH36C36Br2N4O5
_chemical_formula_sum              "Cd1 H36 C36 Br2 N4 O5"
_cell_length_a       5.79317
_cell_length_b       13.2881
_cell_length_c       12.2594
_cell_angle_alpha    111.644
_cell_angle_beta     93.565
_cell_angle_gamma    89.2831

_space_group_name_H-M_alt    "P 1"
_space_group_IT_number       1

loop_
  _space_group_symop_operation_xyz
  'x, y, z'

loop_
  _atom_site_type_symbol
  _atom_site_label
  _atom_site_symmetry_multiplicity
  _atom_site_fract_x
  _atom_site_fract_y
  _atom_site_fract_z
  _atom_site_occupancy
  Cd  Cd1       1.0  0.81422  0.40874  0.44215  1.0000
  H   H1        1.0  0.39142  0.45103  0.25160  1.0000
  H   H2        1.0  0.27432  0.38809  0.64123  1.0000
  H   H3        1.0  0.58475  0.62023  0.64536  1.0000
  H   H4        1.0  0.04758  0.19668  0.23081  1.0000
  H   H5        1.0  0.61240  0.34748  0.73087  1.0000
  H   H6        1.0  0.57040  0.36317  0.87894  1.0000
  H   H7        1.0  0.75470  0.45320  0.84921  1.0000
  H   H8        1.0  0.13238  0.70796  0.00829  1.0000
  H   H9        1.0  0.60016  0.05981  0.66167  1.0000
  H   H10       1.0  0.46189  0.12135  0.88318  1.0000
  H   H11       1.0  0.45908  0.66812  0.10368  1.0000
  H   H12       1.0  0.69065  0.60258  0.01535  1.0000
  H   H13       1.0  0.50684  0.52746  0.06607  1.0000
  H   H14       1.0  0.79853  0.05558  0.48896  1.0000
  H   H15       1.0  0.49136  0.18593  0.55881  1.0000
  H   H16       1.0  0.91346  0.91857  0.57714  1.0000
  H   H17       1.0  0.07979  0.51079  0.16150  1.0000
  H   H18       1.0  0.88590  0.40296  0.08224  1.0000
  H   H19       1.0  0.05068  0.46317  0.00566  1.0000
  H   H20       1.0  0.36448  0.69024  0.42759  1.0000
  H   H21       1.0  0.68542  0.68634  0.26450  1.0000
  H   H22       1.0  0.57256  0.97282  0.95735  1.0000
  H   H23       1.0  0.74807  0.95460  0.07211  1.0000
  H   H24       1.0  0.53449  0.76481  0.84301  1.0000
  H   H25       1.0  0.69071  0.75155  0.96480  1.0000
  H   H26       1.0  0.86276  0.86980  0.81146  1.0000
  H   H27       1.0  0.03159  0.84997  0.92668  1.0000
  H   H28       1.0  0.90740  0.06932  0.91279  1.0000
  H   H29       1.0  0.07434  0.05422  0.03122  1.0000
  H   H30       1.0  0.48216  0.83887  0.36468  1.0000
  H   H31       1.0  0.80785  0.82762  0.18926  1.0000
  H   H32       1.0  0.11882  0.16825  0.79878  1.0000
  H   H33       1.0  0.10808  0.30950  0.83134  1.0000
  H   H34       1.0  0.91528  0.25024  0.89613  1.0000
  H   H35       1.0  0.33378  0.47396  0.44496  1.0000
  H   H36       1.0  0.34315  0.35385  0.44309  1.0000
  C   C1        1.0  0.58484  0.30543  0.16488  1.0000
  C   C2        1.0  0.05314  0.52415  0.72329  1.0000
  C   C3        1.0  0.40637  0.37909  0.17240  1.0000
  C   C4        1.0  0.24098  0.45653  0.72081  1.0000
  C   C5        1.0  0.74039  0.60169  0.68809  1.0000
  C   C6        1.0  0.60509  0.21393  0.06035  1.0000
  C   C7        1.0  0.38958  0.47961  0.82114  1.0000
  C   C8        1.0  0.89205  0.21922  0.19113  1.0000
  C   C9        1.0  0.24797  0.35923  0.07596  1.0000
  C   C10       1.0  0.59172  0.40707  0.81956  1.0000
  C   C11       1.0  0.16203  0.63884  0.92812  1.0000
  C   C12       1.0  0.34988  0.57089  0.92504  1.0000
  C   C13       1.0  0.26690  0.26549  0.97162  1.0000
  C   C14       1.0  0.13562  0.13057  0.52079  1.0000
  C   C15       1.0  0.42576  0.05789  0.62218  1.0000
  C   C16       1.0  0.06697  0.21450  0.46978  1.0000
  C   C17       1.0  0.44696  0.19237  0.96347  1.0000
  C   C18       1.0  0.50940  0.59392  0.03296  1.0000
  C   C19       1.0  0.97411  0.05540  0.52626  1.0000
  C   C20       1.0  0.36306  0.12975  0.56654  1.0000
  C   C21       1.0  0.26151  0.98357  0.62581  1.0000
  C   C22       1.0  0.03653  0.97976  0.57679  1.0000
  C   C23       1.0  0.05655  0.43811  0.08174  1.0000
  C   C24       1.0  0.01531  0.61423  0.82681  1.0000
  C   C25       1.0  0.24016  0.72253  0.37886  1.0000
  C   C26       1.0  0.85964  0.72040  0.28515  1.0000
  C   C27       1.0  0.01393  0.68114  0.35213  1.0000
  C   C28       1.0  0.75230  0.96214  0.98572  1.0000
  C   C29       1.0  0.71023  0.75983  0.87981  1.0000
  C   C30       1.0  0.85301  0.86074  0.89680  1.0000
  C   C31       1.0  0.89638  0.06170  0.99872  1.0000
  C   C32       1.0  0.93279  0.59306  0.39045  1.0000
  C   C33       1.0  0.30899  0.80389  0.34091  1.0000
  C   C34       1.0  0.15406  0.83945  0.27151  1.0000
  C   C35       1.0  0.92829  0.79868  0.24284  1.0000
  C   C36       1.0  0.09379  0.24669  0.86921  1.0000
  Br  Br1       1.0  0.34905  0.88274  0.69856  1.0000
  Br  Br2       1.0  0.25788  0.94492  0.21303  1.0000
  N   N1        1.0  0.76659  0.30539  0.24486  1.0000
  N   N2        1.0  0.87808  0.51925  0.63849  1.0000
  N   N3        1.0  0.81388  0.66167  0.80149  1.0000
  N   N4        1.0  0.80379  0.16141  0.07990  1.0000
  O   O1        1.0  0.86786  0.25644  0.49246  1.0000
  O   O2        1.0  0.21298  0.23886  0.41020  1.0000
  O   O3        1.0  0.08487  0.52765  0.40595  1.0000
  O   O4        1.0  0.71952  0.58487  0.40225  1.0000
  O   O5        1.0  0.42908  0.42468  0.47229  1.0000
