data_image0
_chemical_formula_structural       Zn2H40C44S2N8O14
_chemical_formula_sum              "Zn2 H40 C44 S2 N8 O14"
_cell_length_a       10.2909
_cell_length_b       11.3231
_cell_length_c       11.7292
_cell_angle_alpha    65.8139
_cell_angle_beta     81.1234
_cell_angle_gamma    76.8746

_space_group_name_H-M_alt    "P 1"
_space_group_IT_number       1

loop_
  _space_group_symop_operation_xyz
  'x, y, z'

loop_
  _atom_site_type_symbol
  _atom_site_label
  _atom_site_symmetry_multiplicity
  _atom_site_fract_x
  _atom_site_fract_y
  _atom_site_fract_z
  _atom_site_occupancy
  Zn  Zn1       1.0  0.29037  0.20063  0.74158  1.0000
  Zn  Zn2       1.0  0.70963  0.79937  0.25842  1.0000
  H   H1        1.0  0.47360  0.02939  0.70688  1.0000
  H   H2        1.0  0.52640  0.97060  0.29313  1.0000
  H   H3        1.0  0.35507  0.96160  0.69600  1.0000
  H   H4        1.0  0.64493  0.03840  0.30400  1.0000
  H   H5        1.0  0.11091  0.39641  0.85353  1.0000
  H   H6        1.0  0.88908  0.60360  0.14648  1.0000
  H   H7        1.0  0.36610  0.69163  0.50336  1.0000
  H   H8        1.0  0.63389  0.30837  0.49665  1.0000
  H   H9        1.0  0.46318  0.15519  0.50843  1.0000
  H   H10       1.0  0.53683  0.84481  0.49158  1.0000
  H   H11       1.0  0.46263  0.25935  0.27758  1.0000
  H   H12       1.0  0.53738  0.74064  0.72243  1.0000
  H   H13       1.0  0.10214  0.38808  0.55382  1.0000
  H   H14       1.0  0.89786  0.61192  0.44618  1.0000
  H   H15       1.0  0.09094  0.51224  0.31996  1.0000
  H   H16       1.0  0.90907  0.48775  0.68004  1.0000
  H   H17       1.0  0.83526  0.13402  0.08604  1.0000
  H   H18       1.0  0.16473  0.86598  0.91396  1.0000
  H   H19       1.0  0.40170  0.44711  0.55905  1.0000
  H   H20       1.0  0.59829  0.55289  0.44095  1.0000
  H   H21       1.0  0.05776  0.63629  0.80842  1.0000
  H   H22       1.0  0.94223  0.36372  0.19159  1.0000
  H   H23       1.0  0.14290  0.06050  0.60818  1.0000
  H   H24       1.0  0.85709  0.93951  0.39182  1.0000
  H   H25       1.0  0.96849  0.06096  0.63958  1.0000
  H   H26       1.0  0.03150  0.93904  0.36042  1.0000
  H   H27       1.0  0.49704  0.47552  0.21770  1.0000
  H   H28       1.0  0.50296  0.52448  0.78230  1.0000
  H   H29       1.0  0.51739  0.61765  0.08164  1.0000
  H   H30       1.0  0.48261  0.38235  0.91836  1.0000
  H   H31       1.0  0.87720  0.88137  0.61887  1.0000
  H   H32       1.0  0.12279  0.11864  0.38113  1.0000
  H   H33       1.0  0.99290  0.76640  0.56824  1.0000
  H   H34       1.0  0.00709  0.23360  0.43176  1.0000
  H   H35       1.0  0.59479  0.12625  0.03625  1.0000
  H   H36       1.0  0.40521  0.87375  0.96374  1.0000
  H   H37       1.0  0.38672  0.66988  0.89459  1.0000
  H   H38       1.0  0.61328  0.33012  0.10541  1.0000
  H   H39       1.0  0.28401  0.55543  0.91166  1.0000
  H   H40       1.0  0.71599  0.44457  0.08835  1.0000
  C   C1        1.0  0.04144  0.17894  0.88214  1.0000
  C   C2        1.0  0.95856  0.82106  0.11786  1.0000
  C   C3        1.0  0.16343  0.46523  0.77542  1.0000
  C   C4        1.0  0.83657  0.53477  0.22459  1.0000
  C   C5        1.0  0.56044  0.16578  0.78069  1.0000
  C   C6        1.0  0.43957  0.83422  0.21930  1.0000
  C   C7        1.0  0.30885  0.62833  0.58193  1.0000
  C   C8        1.0  0.69115  0.37166  0.41807  1.0000
  C   C9        1.0  0.38046  0.23227  0.46388  1.0000
  C   C10       1.0  0.61955  0.76773  0.53613  1.0000
  C   C11       1.0  0.21004  0.68230  0.65232  1.0000
  C   C12       1.0  0.78995  0.31770  0.34769  1.0000
  C   C13       1.0  0.38067  0.29332  0.33397  1.0000
  C   C14       1.0  0.61934  0.70667  0.66604  1.0000
  C   C15       1.0  0.19681  0.82467  0.62879  1.0000
  C   C16       1.0  0.80319  0.17533  0.37120  1.0000
  C   C17       1.0  0.67315  0.16836  0.84309  1.0000
  C   C18       1.0  0.32686  0.83165  0.15690  1.0000
  C   C19       1.0  0.26871  0.46840  0.14085  1.0000
  C   C20       1.0  0.73130  0.53159  0.85915  1.0000
  C   C21       1.0  0.18030  0.36515  0.48794  1.0000
  C   C22       1.0  0.81971  0.63485  0.51206  1.0000
  C   C23       1.0  0.17415  0.43290  0.35940  1.0000
  C   C24       1.0  0.82585  0.56709  0.64060  1.0000
  C   C25       1.0  0.80670  0.15118  0.99425  1.0000
  C   C26       1.0  0.19330  0.84882  0.00574  1.0000
  C   C27       1.0  0.32769  0.49386  0.61235  1.0000
  C   C28       1.0  0.67230  0.50614  0.38765  1.0000
  C   C29       1.0  0.13542  0.59970  0.75019  1.0000
  C   C30       1.0  0.86457  0.40030  0.24982  1.0000
  C   C31       1.0  0.05635  0.04191  0.57890  1.0000
  C   C32       1.0  0.94365  0.95810  0.42110  1.0000
  C   C33       1.0  0.89758  0.17340  0.89094  1.0000
  C   C34       1.0  0.10242  0.82660  0.10906  1.0000
  C   C35       1.0  0.27791  0.39858  0.27997  1.0000
  C   C36       1.0  0.72210  0.60141  0.72003  1.0000
  C   C37       1.0  0.50295  0.51489  0.11537  1.0000
  C   C38       1.0  0.49705  0.48511  0.88463  1.0000
  C   C39       1.0  0.96782  0.86920  0.55805  1.0000
  C   C40       1.0  0.03218  0.13080  0.44195  1.0000
  C   C41       1.0  0.67865  0.14829  0.96715  1.0000
  C   C42       1.0  0.32135  0.85172  0.03284  1.0000
  C   C43       1.0  0.37918  0.56484  0.93441  1.0000
  C   C44       1.0  0.62082  0.43516  0.06560  1.0000
  S   S1        1.0  0.82518  0.19021  0.76099  1.0000
  S   S2        1.0  0.17483  0.80980  0.23901  1.0000
  N   N1        1.0  0.25697  0.41351  0.70690  1.0000
  N   N2        1.0  0.74303  0.58649  0.29310  1.0000
  N   N3        1.0  0.28327  0.26837  0.54013  1.0000
  N   N4        1.0  0.71673  0.73163  0.45988  1.0000
  N   N5        1.0  0.07758  0.90390  0.59682  1.0000
  N   N6        1.0  0.92242  0.09610  0.40318  1.0000
  N   N7        1.0  0.37846  0.51415  0.07040  1.0000
  N   N8        1.0  0.62154  0.48585  0.92960  1.0000
  O   O1        1.0  0.10209  0.18493  0.77318  1.0000
  O   O2        1.0  0.89791  0.81506  0.22681  1.0000
  O   O3        1.0  0.44390  0.17948  0.83727  1.0000
  O   O4        1.0  0.55611  0.82054  0.16271  1.0000
  O   O5        1.0  0.38668  0.00241  0.74418  1.0000
  O   O6        1.0  0.61332  0.99760  0.25582  1.0000
  O   O7        1.0  0.09458  0.17933  0.97010  1.0000
  O   O8        1.0  0.90543  0.82067  0.02990  1.0000
  O   O9        1.0  0.58327  0.15052  0.67728  1.0000
  O   O10       1.0  0.41674  0.84947  0.32271  1.0000
  O   O11       1.0  0.16266  0.47867  0.09645  1.0000
  O   O12       1.0  0.83735  0.52129  0.90355  1.0000
  O   O13       1.0  0.29665  0.86181  0.64329  1.0000
  O   O14       1.0  0.70335  0.13820  0.35670  1.0000
