data_image0
_chemical_formula_structural       Cd2H28C28N4O16
_chemical_formula_sum              "Cd2 H28 C28 N4 O16"
_cell_length_a       10.0179
_cell_length_b       10.0075
_cell_length_c       11.0598
_cell_angle_alpha    73.0203
_cell_angle_beta     85.7564
_cell_angle_gamma    65.6185

_space_group_name_H-M_alt    "P 1"
_space_group_IT_number       1

loop_
  _space_group_symop_operation_xyz
  'x, y, z'

loop_
  _atom_site_type_symbol
  _atom_site_label
  _atom_site_symmetry_multiplicity
  _atom_site_fract_x
  _atom_site_fract_y
  _atom_site_fract_z
  _atom_site_occupancy
  Cd  Cd1       1.0  0.16484  0.18556  0.02755  1.0000
  Cd  Cd2       1.0  0.83515  0.81445  0.97245  1.0000
  H   H1        1.0  0.10642  0.43113  0.14520  1.0000
  H   H2        1.0  0.89358  0.56887  0.85481  1.0000
  H   H3        1.0  0.23098  0.27174  0.21711  1.0000
  H   H4        1.0  0.76902  0.72827  0.78290  1.0000
  H   H5        1.0  0.34462  0.95975  0.90833  1.0000
  H   H6        1.0  0.65537  0.04025  0.09167  1.0000
  H   H7        1.0  0.18926  0.95343  0.92090  1.0000
  H   H8        1.0  0.81073  0.04658  0.07911  1.0000
  H   H9        1.0  0.18659  0.38062  0.67546  1.0000
  H   H10       1.0  0.81341  0.61937  0.32453  1.0000
  H   H11       1.0  0.17350  0.29349  0.55943  1.0000
  H   H12       1.0  0.82650  0.70650  0.44058  1.0000
  H   H13       1.0  0.07843  0.47378  0.33684  1.0000
  H   H14       1.0  0.92157  0.52621  0.66315  1.0000
  H   H15       1.0  0.04263  0.66954  0.30718  1.0000
  H   H16       1.0  0.95738  0.33044  0.69283  1.0000
  H   H17       1.0  0.98591  0.86675  0.42204  1.0000
  H   H18       1.0  0.01409  0.13325  0.57796  1.0000
  H   H19       1.0  0.98514  0.09537  0.25183  1.0000
  H   H20       1.0  0.01486  0.90464  0.74817  1.0000
  H   H21       1.0  0.42820  0.87569  0.20230  1.0000
  H   H22       1.0  0.57181  0.12431  0.79770  1.0000
  H   H23       1.0  0.44989  0.63687  0.37249  1.0000
  H   H24       1.0  0.55012  0.36313  0.62750  1.0000
  H   H25       1.0  0.37732  0.57779  0.77632  1.0000
  H   H26       1.0  0.62268  0.42222  0.22367  1.0000
  H   H27       1.0  0.64209  0.59748  0.76830  1.0000
  H   H28       1.0  0.35791  0.40252  0.23171  1.0000
  C   C1        1.0  0.12317  0.39755  0.59142  1.0000
  C   C2        1.0  0.87683  0.60244  0.40857  1.0000
  C   C3        1.0  0.03631  0.57042  0.37796  1.0000
  C   C4        1.0  0.96370  0.42958  0.62203  1.0000
  C   C5        1.0  0.22611  0.58636  0.50376  1.0000
  C   C6        1.0  0.77392  0.41361  0.49624  1.0000
  C   C7        1.0  0.21704  0.73032  0.40563  1.0000
  C   C8        1.0  0.78297  0.26967  0.59437  1.0000
  C   C9        1.0  0.08649  0.86319  0.37523  1.0000
  C   C10       1.0  0.91352  0.13681  0.62478  1.0000
  C   C11       1.0  0.08518  0.99110  0.28124  1.0000
  C   C12       1.0  0.91482  0.00890  0.71877  1.0000
  C   C13       1.0  0.33302  0.86763  0.25320  1.0000
  C   C14       1.0  0.66698  0.13237  0.74680  1.0000
  C   C15       1.0  0.34437  0.73537  0.34740  1.0000
  C   C16       1.0  0.65564  0.26463  0.65260  1.0000
  C   C17       1.0  0.49402  0.36183  0.92269  1.0000
  C   C18       1.0  0.50597  0.63818  0.07730  1.0000
  C   C19       1.0  0.47650  0.49805  0.83387  1.0000
  C   C20       1.0  0.52349  0.50197  0.16612  1.0000
  C   C21       1.0  0.61477  0.50677  0.82939  1.0000
  C   C22       1.0  0.38521  0.49324  0.17061  1.0000
  C   C23       1.0  0.70893  0.37548  0.91582  1.0000
  C   C24       1.0  0.29105  0.62454  0.08418  1.0000
  C   C25       1.0  0.39915  0.27958  0.97081  1.0000
  C   C26       1.0  0.60084  0.72043  0.02919  1.0000
  C   C27       1.0  0.86433  0.30706  0.95748  1.0000
  C   C28       1.0  0.13566  0.69294  0.04252  1.0000
  N   N1        1.0  0.20508  0.99149  0.21785  1.0000
  N   N2        1.0  0.79492  0.00852  0.78216  1.0000
  N   N3        1.0  0.12767  0.52871  0.49172  1.0000
  N   N4        1.0  0.87234  0.47129  0.50828  1.0000
  O   O1        1.0  0.27050  0.34139  0.91748  1.0000
  O   O2        1.0  0.72949  0.65862  0.08252  1.0000
  O   O3        1.0  0.44921  0.15492  0.06031  1.0000
  O   O4        1.0  0.55079  0.84508  0.93968  1.0000
  O   O5        1.0  0.63490  0.28795  0.97286  1.0000
  O   O6        1.0  0.36509  0.71206  0.02714  1.0000
  O   O7        1.0  0.94179  0.38446  0.91777  1.0000
  O   O8        1.0  0.05820  0.61554  0.08223  1.0000
  O   O9        1.0  0.91832  0.17058  0.03051  1.0000
  O   O10       1.0  0.08167  0.82943  0.96949  1.0000
  O   O11       1.0  0.31994  0.52735  0.59300  1.0000
  O   O12       1.0  0.68008  0.47262  0.40699  1.0000
  O   O13       1.0  0.12794  0.32016  0.18832  1.0000
  O   O14       1.0  0.87206  0.67984  0.81168  1.0000
  O   O15       1.0  0.23753  0.02567  0.89571  1.0000
  O   O16       1.0  0.76247  0.97433  0.10429  1.0000
