data_image0
_chemical_formula_structural       Ni2H44C44N8O18
_chemical_formula_sum              "Ni2 H44 C44 N8 O18"
_cell_length_a       10.4283
_cell_length_b       10.5491
_cell_length_c       12.053
_cell_angle_alpha    90
_cell_angle_beta     112.886
_cell_angle_gamma    89.9996

_space_group_name_H-M_alt    "P 1"
_space_group_IT_number       1

loop_
  _space_group_symop_operation_xyz
  'x, y, z'

loop_
  _atom_site_type_symbol
  _atom_site_label
  _atom_site_symmetry_multiplicity
  _atom_site_fract_x
  _atom_site_fract_y
  _atom_site_fract_z
  _atom_site_occupancy
  Ni  Ni1       1.0  0.26329  0.13877  0.48998  1.0000
  Ni  Ni2       1.0  0.73672  0.63877  0.51002  1.0000
  H   H1        1.0  0.06281  0.30150  0.28589  1.0000
  H   H2        1.0  0.93719  0.80148  0.71410  1.0000
  H   H3        1.0  0.08913  0.30382  0.16503  1.0000
  H   H4        1.0  0.91086  0.80381  0.83495  1.0000
  H   H5        1.0  0.41000  0.89458  0.65304  1.0000
  H   H6        1.0  0.59000  0.39459  0.34696  1.0000
  H   H7        1.0  0.27742  0.88951  0.68002  1.0000
  H   H8        1.0  0.72258  0.38952  0.31998  1.0000
  H   H9        1.0  0.26235  0.96888  0.10264  1.0000
  H   H10       1.0  0.73764  0.46888  0.89735  1.0000
  H   H11       1.0  0.95722  0.98489  0.61546  1.0000
  H   H12       1.0  0.04278  0.48490  0.38452  1.0000
  H   H13       1.0  0.70728  0.99100  0.63554  1.0000
  H   H14       1.0  0.29272  0.49101  0.36446  1.0000
  H   H15       1.0  0.41416  0.37188  0.54942  1.0000
  H   H16       1.0  0.58583  0.87187  0.45058  1.0000
  H   H17       1.0  0.20198  0.14275  0.69999  1.0000
  H   H18       1.0  0.79803  0.64275  0.30000  1.0000
  H   H19       1.0  0.26219  0.28343  0.88073  1.0000
  H   H20       1.0  0.73782  0.78345  0.11928  1.0000
  H   H21       1.0  0.48263  0.52277  0.72304  1.0000
  H   H22       1.0  0.51736  0.02276  0.27697  1.0000
  H   H23       1.0  0.17294  0.52233  0.80780  1.0000
  H   H24       1.0  0.82706  0.02234  0.19220  1.0000
  H   H25       1.0  0.20051  0.68526  0.84596  1.0000
  H   H26       1.0  0.79950  0.18527  0.15404  1.0000
  H   H27       1.0  0.00719  0.60846  0.89683  1.0000
  H   H28       1.0  0.99281  0.10845  0.10316  1.0000
  H   H29       1.0  0.10982  0.48005  0.98279  1.0000
  H   H30       1.0  0.89017  0.98005  0.01721  1.0000
  H   H31       1.0  0.50832  0.59837  0.13029  1.0000
  H   H32       1.0  0.49168  0.09838  0.86972  1.0000
  H   H33       1.0  0.41770  0.73651  0.05009  1.0000
  H   H34       1.0  0.58229  0.23652  0.94990  1.0000
  H   H35       1.0  0.34331  0.69681  0.21641  1.0000
  H   H36       1.0  0.65669  0.19680  0.78359  1.0000
  H   H37       1.0  0.30955  0.53432  0.17612  1.0000
  H   H38       1.0  0.69044  0.03432  0.82388  1.0000
  H   H39       1.0  0.31148  0.12883  0.26859  1.0000
  H   H40       1.0  0.68851  0.62882  0.73140  1.0000
  H   H41       1.0  0.11144  0.91234  0.43926  1.0000
  H   H42       1.0  0.88856  0.41234  0.56074  1.0000
  H   H43       1.0  0.04233  0.74881  0.27622  1.0000
  H   H44       1.0  0.95768  0.24882  0.72379  1.0000
  C   C1        1.0  0.22577  0.95246  0.17491  1.0000
  C   C2        1.0  0.77423  0.45246  0.82509  1.0000
  C   C3        1.0  0.97288  0.18445  0.44172  1.0000
  C   C4        1.0  0.02711  0.68447  0.55827  1.0000
  C   C5        1.0  0.86779  0.14039  0.48681  1.0000
  C   C6        1.0  0.13221  0.64041  0.51318  1.0000
  C   C7        1.0  0.87150  0.04886  0.56970  1.0000
  C   C8        1.0  0.12851  0.54887  0.43029  1.0000
  C   C9        1.0  0.74094  0.05323  0.58050  1.0000
  C   C10       1.0  0.25906  0.55323  0.41950  1.0000
  C   C11       1.0  0.66493  0.14740  0.50366  1.0000
  C   C12       1.0  0.33508  0.64741  0.49634  1.0000
  C   C13       1.0  0.52156  0.19578  0.46964  1.0000
  C   C14       1.0  0.47844  0.69578  0.53038  1.0000
  C   C15       1.0  0.38283  0.35701  0.62461  1.0000
  C   C16       1.0  0.61717  0.85700  0.37539  1.0000
  C   C17       1.0  0.26209  0.22911  0.70899  1.0000
  C   C18       1.0  0.73791  0.72913  0.29101  1.0000
  C   C19       1.0  0.29647  0.30800  0.80867  1.0000
  C   C20       1.0  0.70353  0.80802  0.19133  1.0000
  C   C21       1.0  0.42051  0.43963  0.72147  1.0000
  C   C22       1.0  0.57949  0.93963  0.27853  1.0000
  C   C23       1.0  0.37918  0.41495  0.81646  1.0000
  C   C24       1.0  0.62082  0.91497  0.18354  1.0000
  C   C25       1.0  0.44003  0.49375  0.92883  1.0000
  C   C26       1.0  0.55998  0.99376  0.07119  1.0000
  C   C27       1.0  0.20717  0.58895  0.88342  1.0000
  C   C28       1.0  0.79283  0.08896  0.11658  1.0000
  C   C29       1.0  0.11300  0.57827  0.95299  1.0000
  C   C30       1.0  0.88700  0.07827  0.04702  1.0000
  C   C31       1.0  0.40636  0.63719  0.07341  1.0000
  C   C32       1.0  0.59364  0.13719  0.92659  1.0000
  C   C33       1.0  0.30859  0.63058  0.14041  1.0000
  C   C34       1.0  0.69142  0.13058  0.85960  1.0000
  C   C35       1.0  0.08874  0.75770  0.07027  1.0000
  C   C36       1.0  0.91125  0.25770  0.92972  1.0000
  C   C37       1.0  0.14689  0.84554  0.17618  1.0000
  C   C38       1.0  0.85311  0.34553  0.82382  1.0000
  C   C39       1.0  0.25659  0.04068  0.26767  1.0000
  C   C40       1.0  0.74341  0.54067  0.73233  1.0000
  C   C41       1.0  0.14114  0.92047  0.36249  1.0000
  C   C42       1.0  0.85887  0.42046  0.63751  1.0000
  C   C43       1.0  0.10378  0.83049  0.27165  1.0000
  C   C44       1.0  0.89623  0.33050  0.72836  1.0000
  N   N1        1.0  0.30531  0.25294  0.61893  1.0000
  N   N2        1.0  0.69470  0.75294  0.38108  1.0000
  N   N3        1.0  0.35133  0.56190  0.96294  1.0000
  N   N4        1.0  0.64867  0.06190  0.03707  1.0000
  N   N5        1.0  0.16620  0.66060  0.05872  1.0000
  N   N6        1.0  0.83381  0.16060  0.94129  1.0000
  N   N7        1.0  0.21579  0.02427  0.36012  1.0000
  N   N8        1.0  0.78421  0.52426  0.63988  1.0000
  O   O1        1.0  0.08663  0.11849  0.49010  1.0000
  O   O2        1.0  0.91338  0.61848  0.50990  1.0000
  O   O3        1.0  0.94824  0.27404  0.36817  1.0000
  O   O4        1.0  0.05174  0.77405  0.63181  1.0000
  O   O5        1.0  0.74168  0.20113  0.44568  1.0000
  O   O6        1.0  0.25832  0.70113  0.55432  1.0000
  O   O7        1.0  0.47954  0.29097  0.40363  1.0000
  O   O8        1.0  0.52047  0.79096  0.59638  1.0000
  O   O9        1.0  0.13219  0.32162  0.25167  1.0000
  O   O10       1.0  0.86780  0.82160  0.74832  1.0000
  O   O11       1.0  0.45143  0.12614  0.51570  1.0000
  O   O12       1.0  0.54857  0.62614  0.48431  1.0000
  O   O13       1.0  0.35282  0.94664  0.68441  1.0000
  O   O14       1.0  0.64718  0.44665  0.31560  1.0000
  O   O15       1.0  0.56842  0.49045  0.98558  1.0000
  O   O16       1.0  0.43157  0.99047  0.01442  1.0000
  O   O17       1.0  0.96671  0.77942  0.99768  1.0000
  O   O18       1.0  0.03328  0.27942  0.00232  1.0000
