data_image0
_chemical_formula_structural       Cd2H40C44S2N8O14
_chemical_formula_sum              "Cd2 H40 C44 S2 N8 O14"
_cell_length_a       10.671
_cell_length_b       10.593
_cell_length_c       11.6728
_cell_angle_alpha    78.4783
_cell_angle_beta     72.8993
_cell_angle_gamma    82.0591

_space_group_name_H-M_alt    "P 1"
_space_group_IT_number       1

loop_
  _space_group_symop_operation_xyz
  'x, y, z'

loop_
  _atom_site_type_symbol
  _atom_site_label
  _atom_site_symmetry_multiplicity
  _atom_site_fract_x
  _atom_site_fract_y
  _atom_site_fract_z
  _atom_site_occupancy
  Cd  Cd1       1.0  0.27654  0.23915  0.73042  1.0000
  Cd  Cd2       1.0  0.72343  0.76086  0.26959  1.0000
  H   H1        1.0  0.43793  0.27717  0.50221  1.0000
  H   H2        1.0  0.56208  0.72281  0.49782  1.0000
  H   H3        1.0  0.33938  0.20606  0.46258  1.0000
  H   H4        1.0  0.66061  0.79396  0.53743  1.0000
  H   H5        1.0  0.09315  0.04112  0.90174  1.0000
  H   H6        1.0  0.90684  0.95888  0.09828  1.0000
  H   H7        1.0  0.44227  0.96660  0.64423  1.0000
  H   H8        1.0  0.55773  0.03342  0.35577  1.0000
  H   H9        1.0  0.46106  0.73413  0.74059  1.0000
  H   H10       1.0  0.53893  0.26589  0.25941  1.0000
  H   H11       1.0  0.09924  0.81268  0.01445  1.0000
  H   H12       1.0  0.90074  0.18732  0.98556  1.0000
  H   H13       1.0  0.29522  0.39459  0.06234  1.0000
  H   H14       1.0  0.70478  0.60540  0.93763  1.0000
  H   H15       1.0  0.37556  0.43642  0.16201  1.0000
  H   H16       1.0  0.62444  0.56358  0.83798  1.0000
  H   H17       1.0  0.49177  0.64221  0.08862  1.0000
  H   H18       1.0  0.50824  0.35779  0.91135  1.0000
  H   H19       1.0  0.48306  0.73602  0.94700  1.0000
  H   H20       1.0  0.51694  0.26398  0.05298  1.0000
  H   H21       1.0  0.35991  0.03313  0.16551  1.0000
  H   H22       1.0  0.64010  0.96688  0.83448  1.0000
  H   H23       1.0  0.01343  0.30555  0.19511  1.0000
  H   H24       1.0  0.98655  0.69445  0.80491  1.0000
  H   H25       1.0  0.06577  0.34496  0.97037  1.0000
  H   H26       1.0  0.93421  0.65503  0.02965  1.0000
  H   H27       1.0  0.39844  0.08667  0.93806  1.0000
  H   H28       1.0  0.60155  0.91333  0.06194  1.0000
  H   H29       1.0  0.90843  0.54046  0.57068  1.0000
  H   H30       1.0  0.09156  0.45953  0.42926  1.0000
  H   H31       1.0  0.67039  0.52108  0.55252  1.0000
  H   H32       1.0  0.32963  0.47886  0.44743  1.0000
  H   H33       1.0  0.99632  0.03534  0.28745  1.0000
  H   H34       1.0  0.00371  0.96465  0.71257  1.0000
  H   H35       1.0  0.87425  0.10100  0.40658  1.0000
  H   H36       1.0  0.12579  0.89899  0.59343  1.0000
  H   H37       1.0  0.13153  0.13530  0.55664  1.0000
  H   H38       1.0  0.86848  0.86469  0.44338  1.0000
  H   H39       1.0  0.95851  0.15876  0.57600  1.0000
  H   H40       1.0  0.04153  0.84123  0.42401  1.0000
  C   C1        1.0  0.17246  0.96898  0.87048  1.0000
  C   C2        1.0  0.82753  0.03102  0.12954  1.0000
  C   C3        1.0  0.36747  0.92793  0.72517  1.0000
  C   C4        1.0  0.63251  0.07209  0.27483  1.0000
  C   C5        1.0  0.37729  0.79848  0.77964  1.0000
  C   C6        1.0  0.62270  0.20153  0.22036  1.0000
  C   C7        1.0  0.28072  0.75533  0.88583  1.0000
  C   C8        1.0  0.71927  0.24469  0.11418  1.0000
  C   C9        1.0  0.17538  0.84251  0.93106  1.0000
  C   C10       1.0  0.82461  0.15749  0.06896  1.0000
  C   C11       1.0  0.27801  0.61866  0.95246  1.0000
  C   C12       1.0  0.72198  0.38134  0.04754  1.0000
  C   C13       1.0  0.38141  0.43671  0.06612  1.0000
  C   C14       1.0  0.61859  0.56329  0.93387  1.0000
  C   C15       1.0  0.49131  0.63711  0.99550  1.0000
  C   C16       1.0  0.50869  0.36289  0.00448  1.0000
  C   C17       1.0  0.17269  0.15391  0.33086  1.0000
  C   C18       1.0  0.82729  0.84613  0.66914  1.0000
  C   C19       1.0  0.29291  0.10274  0.12503  1.0000
  C   C20       1.0  0.70707  0.89726  0.87499  1.0000
  C   C21       1.0  0.18382  0.16617  0.19811  1.0000
  C   C22       1.0  0.81616  0.83385  0.80191  1.0000
  C   C23       1.0  0.09903  0.25267  0.14277  1.0000
  C   C24       1.0  0.90097  0.74735  0.85725  1.0000
  C   C25       1.0  0.12846  0.27605  0.01611  1.0000
  C   C26       1.0  0.87154  0.72395  0.98391  1.0000
  C   C27       1.0  0.31401  0.13102  0.99980  1.0000
  C   C28       1.0  0.68598  0.86896  0.00022  1.0000
  C   C29       1.0  0.66585  0.34091  0.68057  1.0000
  C   C30       1.0  0.33417  0.65907  0.31940  1.0000
  C   C31       1.0  0.88884  0.35770  0.69676  1.0000
  C   C32       1.0  0.11115  0.64232  0.30321  1.0000
  C   C33       1.0  0.84762  0.46203  0.61999  1.0000
  C   C34       1.0  0.15238  0.53796  0.37997  1.0000
  C   C35       1.0  0.72014  0.45247  0.61088  1.0000
  C   C36       1.0  0.27987  0.54751  0.38908  1.0000
  C   C37       1.0  0.01807  0.31981  0.72204  1.0000
  C   C38       1.0  0.98192  0.68021  0.27795  1.0000
  C   C39       1.0  0.53600  0.29446  0.69660  1.0000
  C   C40       1.0  0.46400  0.70552  0.30339  1.0000
  C   C41       1.0  0.96805  0.04046  0.38458  1.0000
  C   C42       1.0  0.03199  0.95951  0.61543  1.0000
  C   C43       1.0  0.04817  0.09622  0.54338  1.0000
  C   C44       1.0  0.95186  0.90376  0.45664  1.0000
  S   S1        1.0  0.77097  0.24824  0.75749  1.0000
  S   S2        1.0  0.22904  0.75175  0.24251  1.0000
  N   N1        1.0  0.26725  0.01197  0.77042  1.0000
  N   N2        1.0  0.73274  0.98804  0.22960  1.0000
  N   N3        1.0  0.37843  0.56973  0.00213  1.0000
  N   N4        1.0  0.62157  0.43027  0.99786  1.0000
  N   N5        1.0  0.23456  0.21730  0.94595  1.0000
  N   N6        1.0  0.76543  0.78269  0.05406  1.0000
  N   N7        1.0  0.06914  0.09857  0.41366  1.0000
  N   N8        1.0  0.93088  0.90143  0.58636  1.0000
  O   O1        1.0  0.18220  0.55827  0.96275  1.0000
  O   O2        1.0  0.81778  0.44173  0.03727  1.0000
  O   O3        1.0  0.26083  0.19922  0.35728  1.0000
  O   O4        1.0  0.73918  0.80080  0.64272  1.0000
  O   O5        1.0  0.11573  0.38634  0.66462  1.0000
  O   O6        1.0  0.88427  0.61367  0.33537  1.0000
  O   O7        1.0  0.02704  0.21541  0.79683  1.0000
  O   O8        1.0  0.97294  0.78461  0.20318  1.0000
  O   O9        1.0  0.45049  0.37278  0.65469  1.0000
  O   O10       1.0  0.54951  0.62720  0.34531  1.0000
  O   O11       1.0  0.51500  0.18026  0.75314  1.0000
  O   O12       1.0  0.48500  0.81972  0.24688  1.0000
  O   O13       1.0  0.39164  0.19903  0.52166  1.0000
  O   O14       1.0  0.60834  0.80096  0.47835  1.0000
