data_image0
_chemical_formula_structural       Cd2H24C28S4N12O12
_chemical_formula_sum              "Cd2 H24 C28 S4 N12 O12"
_cell_length_a       5.54688
_cell_length_b       12.5455
_cell_length_c       13.7167
_cell_angle_alpha    99.8109
_cell_angle_beta     89.9982
_cell_angle_gamma    90.0002

_space_group_name_H-M_alt    "P 1"
_space_group_IT_number       1

loop_
  _space_group_symop_operation_xyz
  'x, y, z'

loop_
  _atom_site_type_symbol
  _atom_site_label
  _atom_site_symmetry_multiplicity
  _atom_site_fract_x
  _atom_site_fract_y
  _atom_site_fract_z
  _atom_site_occupancy
  Cd  Cd1       1.0  0.00000  0.50000  0.49999  1.0000
  Cd  Cd2       1.0  0.50001  0.50000  0.00000  1.0000
  H   H1        1.0  0.54879  0.67546  0.73976  1.0000
  H   H2        1.0  0.95123  0.67548  0.23979  1.0000
  H   H3        1.0  0.45121  0.32454  0.26024  1.0000
  H   H4        1.0  0.04880  0.32452  0.76022  1.0000
  H   H5        1.0  0.44990  0.91530  0.49534  1.0000
  H   H6        1.0  0.05009  0.91532  0.99537  1.0000
  H   H7        1.0  0.55005  0.08470  0.50465  1.0000
  H   H8        1.0  0.94989  0.08469  0.00464  1.0000
  H   H9        1.0  0.78048  0.77537  0.48287  1.0000
  H   H10       1.0  0.71953  0.77539  0.98291  1.0000
  H   H11       1.0  0.21947  0.22462  0.51712  1.0000
  H   H12       1.0  0.28046  0.22462  0.01711  1.0000
  H   H13       1.0  0.97980  0.78154  0.76763  1.0000
  H   H14       1.0  0.52019  0.78157  0.26765  1.0000
  H   H15       1.0  0.02020  0.21845  0.23237  1.0000
  H   H16       1.0  0.47983  0.21843  0.73236  1.0000
  H   H17       1.0  0.15469  0.88898  0.83150  1.0000
  H   H18       1.0  0.34527  0.88901  0.33152  1.0000
  H   H19       1.0  0.84531  0.11102  0.16849  1.0000
  H   H20       1.0  0.65474  0.11100  0.66848  1.0000
  H   H21       1.0  0.23470  0.75175  0.83705  1.0000
  H   H22       1.0  0.26529  0.75177  0.33707  1.0000
  H   H23       1.0  0.76531  0.24826  0.16295  1.0000
  H   H24       1.0  0.73473  0.24824  0.66294  1.0000
  C   C1        1.0  0.51203  0.73085  0.68854  1.0000
  C   C2        1.0  0.98798  0.73087  0.18857  1.0000
  C   C3        1.0  0.48796  0.26915  0.31145  1.0000
  C   C4        1.0  0.01204  0.26913  0.81144  1.0000
  C   C5        1.0  0.32181  0.80389  0.70083  1.0000
  C   C6        1.0  0.17819  0.80391  0.20086  1.0000
  C   C7        1.0  0.67818  0.19611  0.29916  1.0000
  C   C8        1.0  0.82183  0.19609  0.79915  1.0000
  C   C9        1.0  0.30411  0.87253  0.62961  1.0000
  C   C10       1.0  0.19588  0.87255  0.12963  1.0000
  C   C11       1.0  0.69587  0.12746  0.37038  1.0000
  C   C12       1.0  0.80412  0.12745  0.87037  1.0000
  C   C13       1.0  0.46540  0.86307  0.55045  1.0000
  C   C14       1.0  0.03460  0.86309  0.05048  1.0000
  C   C15       1.0  0.53457  0.13692  0.44954  1.0000
  C   C16       1.0  0.96540  0.13691  0.94953  1.0000
  C   C17       1.0  0.64733  0.78776  0.54177  1.0000
  C   C18       1.0  0.85268  0.78777  0.04181  1.0000
  C   C19       1.0  0.35265  0.21224  0.45822  1.0000
  C   C20       1.0  0.14732  0.21223  0.95821  1.0000
  C   C21       1.0  0.16402  0.80644  0.78958  1.0000
  C   C22       1.0  0.33597  0.80647  0.28960  1.0000
  C   C23       1.0  0.83598  0.19356  0.21042  1.0000
  C   C24       1.0  0.66405  0.19354  0.71041  1.0000
  C   C25       1.0  0.49545  0.56531  0.40039  1.0000
  C   C26       1.0  0.00456  0.56532  0.90040  1.0000
  C   C27       1.0  0.50454  0.43468  0.59959  1.0000
  C   C28       1.0  0.99547  0.43468  0.09960  1.0000
  S   S1        1.0  0.74858  0.53632  0.34125  1.0000
  S   S2        1.0  0.75144  0.53634  0.84127  1.0000
  S   S3        1.0  0.25142  0.46366  0.65873  1.0000
  S   S4        1.0  0.24856  0.46366  0.15873  1.0000
  N   N1        1.0  0.67292  0.72376  0.61234  1.0000
  N   N2        1.0  0.82710  0.72377  0.11237  1.0000
  N   N3        1.0  0.32706  0.27624  0.38765  1.0000
  N   N4        1.0  0.17292  0.27623  0.88764  1.0000
  N   N5        1.0  0.12521  0.95815  0.63699  1.0000
  N   N6        1.0  0.37477  0.95817  0.13701  1.0000
  N   N7        1.0  0.87476  0.04185  0.36300  1.0000
  N   N8        1.0  0.62523  0.04183  0.86299  1.0000
  N   N9        1.0  0.31348  0.58913  0.44397  1.0000
  N   N10       1.0  0.18655  0.58914  0.94399  1.0000
  N   N11       1.0  0.68655  0.41087  0.55601  1.0000
  N   N12       1.0  0.81345  0.41087  0.05601  1.0000
  O   O1        1.0  0.85600  0.65890  0.61038  1.0000
  O   O2        1.0  0.64404  0.65890  0.11041  1.0000
  O   O3        1.0  0.14398  0.34110  0.38961  1.0000
  O   O4        1.0  0.35598  0.34109  0.88960  1.0000
  O   O5        1.0  0.16614  0.03554  0.59320  1.0000
  O   O6        1.0  0.33384  0.03557  0.09322  1.0000
  O   O7        1.0  0.83385  0.96445  0.40680  1.0000
  O   O8        1.0  0.66615  0.96444  0.90679  1.0000
  O   O9        1.0  0.93989  0.95013  0.68635  1.0000
  O   O10       1.0  0.56010  0.95016  0.18636  1.0000
  O   O11       1.0  0.06009  0.04986  0.31364  1.0000
  O   O12       1.0  0.43991  0.04984  0.81364  1.0000
