data_image0
_chemical_formula_structural       Zn2H48C56N8O8
_chemical_formula_sum              "Zn2 H48 C56 N8 O8"
_cell_length_a       10.716
_cell_length_b       11.6452
_cell_length_c       13.6162
_cell_angle_alpha    76.2059
_cell_angle_beta     66.8071
_cell_angle_gamma    62.5972

_space_group_name_H-M_alt    "P 1"
_space_group_IT_number       1

loop_
  _space_group_symop_operation_xyz
  'x, y, z'

loop_
  _atom_site_type_symbol
  _atom_site_label
  _atom_site_symmetry_multiplicity
  _atom_site_fract_x
  _atom_site_fract_y
  _atom_site_fract_z
  _atom_site_occupancy
  Zn  Zn1       1.0  0.30884  0.24999  0.74996  1.0000
  Zn  Zn2       1.0  0.69116  0.75001  0.25004  1.0000
  H   H1        1.0  0.10737  0.15746  0.92607  1.0000
  H   H2        1.0  0.19067  0.34269  0.57396  1.0000
  H   H3        1.0  0.89263  0.84254  0.07393  1.0000
  H   H4        1.0  0.80934  0.65731  0.42604  1.0000
  H   H5        1.0  0.91411  0.22348  0.00367  1.0000
  H   H6        1.0  0.14107  0.27669  0.49640  1.0000
  H   H7        1.0  0.08589  0.77652  0.99633  1.0000
  H   H8        1.0  0.85893  0.72331  0.50360  1.0000
  H   H9        1.0  0.04759  0.23056  0.04606  1.0000
  H   H10       1.0  0.32405  0.26959  0.45390  1.0000
  H   H11       1.0  0.95241  0.76944  0.95394  1.0000
  H   H12       1.0  0.67595  0.73041  0.54609  1.0000
  H   H13       1.0  0.19571  0.54189  0.63480  1.0000
  H   H14       1.0  0.37253  0.95816  0.86500  1.0000
  H   H15       1.0  0.80429  0.45811  0.36520  1.0000
  H   H16       1.0  0.62747  0.04184  0.13500  1.0000
  H   H17       1.0  0.04027  0.77907  0.61957  1.0000
  H   H18       1.0  0.43939  0.72095  0.88014  1.0000
  H   H19       1.0  0.95973  0.22093  0.38042  1.0000
  H   H20       1.0  0.56061  0.27905  0.11986  1.0000
  H   H21       1.0  0.79704  0.88248  0.75916  1.0000
  H   H22       1.0  0.43894  0.61757  0.74070  1.0000
  H   H23       1.0  0.20296  0.11752  0.24084  1.0000
  H   H24       1.0  0.56106  0.38243  0.25930  1.0000
  H   H25       1.0  0.70494  0.75250  0.92171  1.0000
  H   H26       1.0  0.37915  0.74759  0.57827  1.0000
  H   H27       1.0  0.29506  0.24750  0.07829  1.0000
  H   H28       1.0  0.62085  0.25241  0.42173  1.0000
  H   H29       1.0  0.71931  0.58284  0.07622  1.0000
  H   H30       1.0  0.37851  0.91726  0.42373  1.0000
  H   H31       1.0  0.28069  0.41716  0.92378  1.0000
  H   H32       1.0  0.62149  0.08274  0.57627  1.0000
  H   H33       1.0  0.78322  0.41380  0.10032  1.0000
  H   H34       1.0  0.29740  0.08629  0.39963  1.0000
  H   H35       1.0  0.21678  0.58620  0.89968  1.0000
  H   H36       1.0  0.70260  0.91371  0.60037  1.0000
  H   H37       1.0  0.75688  0.37413  0.88570  1.0000
  H   H38       1.0  0.01654  0.12599  0.61422  1.0000
  H   H39       1.0  0.24312  0.62587  0.11430  1.0000
  H   H40       1.0  0.98346  0.87401  0.38578  1.0000
  H   H41       1.0  0.45718  0.62241  0.14507  1.0000
  H   H42       1.0  0.22477  0.87753  0.35499  1.0000
  H   H43       1.0  0.54282  0.37759  0.85493  1.0000
  H   H44       1.0  0.77523  0.12247  0.64501  1.0000
  H   H45       1.0  0.66383  0.98145  0.94626  1.0000
  H   H46       1.0  0.59178  0.51869  0.55337  1.0000
  H   H47       1.0  0.33617  0.01855  0.05373  1.0000
  H   H48       1.0  0.40821  0.48131  0.44663  1.0000
  C   C1        1.0  0.01818  0.23670  0.97555  1.0000
  C   C2        1.0  0.23028  0.26346  0.52446  1.0000
  C   C3        1.0  0.98182  0.76330  0.02445  1.0000
  C   C4        1.0  0.76972  0.73654  0.47554  1.0000
  C   C5        1.0  0.00183  0.36301  0.91285  1.0000
  C   C6        1.0  0.27753  0.13712  0.58713  1.0000
  C   C7        1.0  0.99817  0.63699  0.08715  1.0000
  C   C8        1.0  0.72247  0.86288  0.41287  1.0000
  C   C9        1.0  0.03752  0.51415  0.78761  1.0000
  C   C10       1.0  0.33927  0.98591  0.71230  1.0000
  C   C11       1.0  0.96248  0.48585  0.21239  1.0000
  C   C12       1.0  0.66073  0.01409  0.28771  1.0000
  C   C13       1.0  0.08986  0.58708  0.69671  1.0000
  C   C14       1.0  0.37388  0.91297  0.80310  1.0000
  C   C15       1.0  0.91014  0.41292  0.30329  1.0000
  C   C16       1.0  0.62612  0.08703  0.19690  1.0000
  C   C17       1.0  0.00160  0.71948  0.68886  1.0000
  C   C18       1.0  0.41031  0.78056  0.81092  1.0000
  C   C19       1.0  0.99840  0.28052  0.31114  1.0000
  C   C20       1.0  0.58969  0.21944  0.18908  1.0000
  C   C21       1.0  0.86378  0.77865  0.76847  1.0000
  C   C22       1.0  0.41113  0.72139  0.73139  1.0000
  C   C23       1.0  0.13622  0.22134  0.23153  1.0000
  C   C24       1.0  0.58887  0.27861  0.26861  1.0000
  C   C25       1.0  0.81031  0.70693  0.85942  1.0000
  C   C26       1.0  0.37671  0.79315  0.64052  1.0000
  C   C27       1.0  0.18969  0.29307  0.14058  1.0000
  C   C28       1.0  0.62329  0.20685  0.35948  1.0000
  C   C29       1.0  0.89998  0.57472  0.86730  1.0000
  C   C30       1.0  0.34198  0.92538  0.63263  1.0000
  C   C31       1.0  0.10002  0.42528  0.13270  1.0000
  C   C32       1.0  0.65801  0.07462  0.36737  1.0000
  C   C33       1.0  0.75109  0.49395  0.04085  1.0000
  C   C34       1.0  0.28595  0.00614  0.45910  1.0000
  C   C35       1.0  0.24891  0.50605  0.95915  1.0000
  C   C36       1.0  0.71405  0.99386  0.54090  1.0000
  C   C37       1.0  0.62179  0.49886  0.01750  1.0000
  C   C38       1.0  0.13820  0.00119  0.48247  1.0000
  C   C39       1.0  0.37821  0.50114  0.98250  1.0000
  C   C40       1.0  0.86180  0.99881  0.51753  1.0000
  C   C41       1.0  0.64427  0.42964  0.93658  1.0000
  C   C42       1.0  0.01042  0.07041  0.56336  1.0000
  C   C43       1.0  0.35573  0.57036  0.06342  1.0000
  C   C44       1.0  0.98957  0.92959  0.43664  1.0000
  C   C45       1.0  0.47582  0.56991  0.08072  1.0000
  C   C46       1.0  0.12650  0.93006  0.41933  1.0000
  C   C47       1.0  0.52418  0.43009  0.91928  1.0000
  C   C48       1.0  0.87350  0.06994  0.58067  1.0000
  C   C49       1.0  0.49988  0.09781  0.86330  1.0000
  C   C50       1.0  0.46146  0.40213  0.63671  1.0000
  C   C51       1.0  0.50013  0.90219  0.13670  1.0000
  C   C52       1.0  0.53854  0.59787  0.36329  1.0000
  C   C53       1.0  0.54608  0.01838  0.95609  1.0000
  C   C54       1.0  0.52070  0.48167  0.54380  1.0000
  C   C55       1.0  0.45392  0.98162  0.04391  1.0000
  C   C56       1.0  0.47930  0.51833  0.45620  1.0000
  N   N1        1.0  0.09822  0.38236  0.81849  1.0000
  N   N2        1.0  0.29895  0.11773  0.68145  1.0000
  N   N3        1.0  0.90178  0.61764  0.18151  1.0000
  N   N4        1.0  0.70105  0.88227  0.31855  1.0000
  N   N5        1.0  0.88206  0.47685  0.94555  1.0000
  N   N6        1.0  0.30439  0.02326  0.55441  1.0000
  N   N7        1.0  0.11794  0.52315  0.05445  1.0000
  N   N8        1.0  0.69561  0.97674  0.44559  1.0000
  O   O1        1.0  0.35904  0.17277  0.88276  1.0000
  O   O2        1.0  0.41502  0.32713  0.61736  1.0000
  O   O3        1.0  0.64096  0.82723  0.11724  1.0000
  O   O4        1.0  0.58498  0.67287  0.38264  1.0000
  O   O5        1.0  0.59577  0.08357  0.77206  1.0000
  O   O6        1.0  0.45208  0.41638  0.72785  1.0000
  O   O7        1.0  0.40423  0.91643  0.22794  1.0000
  O   O8        1.0  0.54792  0.58362  0.27215  1.0000
