data_image0
_chemical_formula_structural       Zn2H34C40N4O10
_chemical_formula_sum              "Zn2 H34 C40 N4 O10"
_cell_length_a       9.56013
_cell_length_b       10.5499
_cell_length_c       10.9459
_cell_angle_alpha    108.3
_cell_angle_beta     110.55
_cell_angle_gamma    103.293

_space_group_name_H-M_alt    "P 1"
_space_group_IT_number       1

loop_
  _space_group_symop_operation_xyz
  'x, y, z'

loop_
  _atom_site_type_symbol
  _atom_site_label
  _atom_site_symmetry_multiplicity
  _atom_site_fract_x
  _atom_site_fract_y
  _atom_site_fract_z
  _atom_site_occupancy
  Zn  Zn1       1.0  0.40889  0.18010  0.94756  1.0000
  Zn  Zn2       1.0  0.59111  0.81990  0.05244  1.0000
  H   H1        1.0  0.39708  0.91327  0.82105  1.0000
  H   H2        1.0  0.60292  0.08673  0.17895  1.0000
  H   H3        1.0  0.27239  0.41324  0.25618  1.0000
  H   H4        1.0  0.72761  0.58676  0.74382  1.0000
  H   H5        1.0  0.07318  0.44766  0.71520  1.0000
  H   H6        1.0  0.92683  0.55234  0.28480  1.0000
  H   H7        1.0  0.73642  0.52686  0.95203  1.0000
  H   H8        1.0  0.26359  0.47314  0.04797  1.0000
  H   H9        1.0  0.03722  0.28725  0.03659  1.0000
  H   H10       1.0  0.96278  0.71275  0.96341  1.0000
  H   H11       1.0  0.31050  0.91693  0.92540  1.0000
  H   H12       1.0  0.68950  0.08307  0.07461  1.0000
  H   H13       1.0  0.70417  0.38746  0.53099  1.0000
  H   H14       1.0  0.29583  0.61254  0.46901  1.0000
  H   H15       1.0  0.93732  0.31437  0.26160  1.0000
  H   H16       1.0  0.06269  0.68563  0.73840  1.0000
  H   H17       1.0  0.88855  0.13384  0.38541  1.0000
  H   H18       1.0  0.11145  0.86616  0.61459  1.0000
  H   H19       1.0  0.08944  0.19650  0.41540  1.0000
  H   H20       1.0  0.91056  0.80350  0.58460  1.0000
  H   H21       1.0  0.07622  0.03983  0.92634  1.0000
  H   H22       1.0  0.92378  0.96017  0.07366  1.0000
  H   H23       1.0  0.71180  0.07079  0.48179  1.0000
  H   H24       1.0  0.28820  0.92921  0.51821  1.0000
  H   H25       1.0  0.38433  0.43606  0.74113  1.0000
  H   H26       1.0  0.61567  0.56394  0.25886  1.0000
  H   H27       1.0  0.33785  0.29422  0.57568  1.0000
  H   H28       1.0  0.66215  0.70578  0.42432  1.0000
  H   H29       1.0  0.46587  0.30207  0.74507  1.0000
  H   H30       1.0  0.53413  0.69793  0.25493  1.0000
  H   H31       1.0  0.77638  0.93260  0.82352  1.0000
  H   H32       1.0  0.22362  0.06740  0.17648  1.0000
  H   H33       1.0  0.59771  0.94487  0.60632  1.0000
  H   H34       1.0  0.40229  0.05513  0.39368  1.0000
  C   C1        1.0  0.37180  0.45147  0.36318  1.0000
  C   C2        1.0  0.62820  0.54853  0.63682  1.0000
  C   C3        1.0  0.04160  0.47005  0.62042  1.0000
  C   C4        1.0  0.95841  0.52996  0.37958  1.0000
  C   C5        1.0  0.85172  0.51511  0.97268  1.0000
  C   C6        1.0  0.14828  0.48490  0.02733  1.0000
  C   C7        1.0  0.02257  0.38128  0.02115  1.0000
  C   C8        1.0  0.97742  0.61872  0.97885  1.0000
  C   C9        1.0  0.87338  0.39496  0.99349  1.0000
  C   C10       1.0  0.12662  0.60504  0.00651  1.0000
  C   C11       1.0  0.74044  0.28157  0.98822  1.0000
  C   C12       1.0  0.25957  0.71843  0.01178  1.0000
  C   C13       1.0  0.21690  0.23393  0.69262  1.0000
  C   C14       1.0  0.78310  0.76607  0.30738  1.0000
  C   C15       1.0  0.47966  0.27256  0.25379  1.0000
  C   C16       1.0  0.52034  0.72744  0.74621  1.0000
  C   C17       1.0  0.48668  0.38772  0.38081  1.0000
  C   C18       1.0  0.51332  0.61228  0.61919  1.0000
  C   C19       1.0  0.61474  0.43675  0.51867  1.0000
  C   C20       1.0  0.38526  0.56325  0.48133  1.0000
  C   C21       1.0  0.06182  0.11728  0.76199  1.0000
  C   C22       1.0  0.93818  0.88272  0.23801  1.0000
  C   C23       1.0  0.96470  0.39593  0.36633  1.0000
  C   C24       1.0  0.03530  0.60407  0.63367  1.0000
  C   C25       1.0  0.00601  0.36498  0.48636  1.0000
  C   C26       1.0  0.99400  0.63502  0.51364  1.0000
  C   C27       1.0  0.95866  0.12284  0.63625  1.0000
  C   C28       1.0  0.04134  0.87716  0.36375  1.0000
  C   C29       1.0  0.00926  0.21747  0.46390  1.0000
  C   C30       1.0  0.99074  0.78253  0.53610  1.0000
  C   C31       1.0  0.99788  0.04661  0.83046  1.0000
  C   C32       1.0  0.00212  0.95339  0.16954  1.0000
  C   C33       1.0  0.79032  0.06266  0.57679  1.0000
  C   C34       1.0  0.20968  0.93734  0.42321  1.0000
  C   C35       1.0  0.35861  0.32011  0.68727  1.0000
  C   C36       1.0  0.64139  0.67989  0.31273  1.0000
  C   C37       1.0  0.83024  0.98544  0.77110  1.0000
  C   C38       1.0  0.16976  0.01456  0.22890  1.0000
  C   C39       1.0  0.72811  0.99365  0.64703  1.0000
  C   C40       1.0  0.27189  0.00635  0.35297  1.0000
  N   N1        1.0  0.06059  0.19512  0.59439  1.0000
  N   N2        1.0  0.93941  0.80488  0.40561  1.0000
  N   N3        1.0  0.22135  0.18793  0.79439  1.0000
  N   N4        1.0  0.77864  0.81207  0.20561  1.0000
  O   O1        1.0  0.76660  0.17748  0.01057  1.0000
  O   O2        1.0  0.23340  0.82252  0.98943  1.0000
  O   O3        1.0  0.60648  0.30190  0.96137  1.0000
  O   O4        1.0  0.39352  0.69810  0.03863  1.0000
  O   O5        1.0  0.34146  0.96790  0.86874  1.0000
  O   O6        1.0  0.65854  0.03210  0.13126  1.0000
  O   O7        1.0  0.39749  0.26828  0.12906  1.0000
  O   O8        1.0  0.60251  0.73172  0.87094  1.0000
  O   O9        1.0  0.55285  0.19089  0.27658  1.0000
  O   O10       1.0  0.44715  0.80911  0.72343  1.0000
