data_image0
_chemical_formula_structural       Zn2H50C62N10O8
_chemical_formula_sum              "Zn2 H50 C62 N10 O8"
_cell_length_a       10.9956
_cell_length_b       10.9962
_cell_length_c       14.8218
_cell_angle_alpha    91.5344
_cell_angle_beta     112.184
_cell_angle_gamma    117.063

_space_group_name_H-M_alt    "P 1"
_space_group_IT_number       1

loop_
  _space_group_symop_operation_xyz
  'x, y, z'

loop_
  _atom_site_type_symbol
  _atom_site_label
  _atom_site_symmetry_multiplicity
  _atom_site_fract_x
  _atom_site_fract_y
  _atom_site_fract_z
  _atom_site_occupancy
  Zn  Zn1       1.0  0.44016  0.19035  0.24998  1.0000
  Zn  Zn2       1.0  0.55984  0.80965  0.75001  1.0000
  H   H1        1.0  0.43043  0.10911  0.04295  1.0000
  H   H2        1.0  0.56601  0.38787  0.45712  1.0000
  H   H3        1.0  0.56957  0.89087  0.95704  1.0000
  H   H4        1.0  0.43399  0.61213  0.54287  1.0000
  H   H5        1.0  0.30727  0.95355  0.94323  1.0000
  H   H6        1.0  0.51007  0.36433  0.55681  1.0000
  H   H7        1.0  0.69272  0.04643  0.05676  1.0000
  H   H8        1.0  0.48993  0.63567  0.44318  1.0000
  H   H9        1.0  0.41960  0.94918  0.06635  1.0000
  H   H10       1.0  0.38254  0.35345  0.43365  1.0000
  H   H11       1.0  0.58040  0.05080  0.93364  1.0000
  H   H12       1.0  0.61746  0.64656  0.56635  1.0000
  H   H13       1.0  0.13661  0.11748  0.26321  1.0000
  H   H14       1.0  0.35484  0.87408  0.23695  1.0000
  H   H15       1.0  0.86341  0.88252  0.73679  1.0000
  H   H16       1.0  0.64516  0.12592  0.76305  1.0000
  H   H17       1.0  0.86508  0.97235  0.22955  1.0000
  H   H18       1.0  0.24373  0.63619  0.27065  1.0000
  H   H19       1.0  0.13494  0.02766  0.77045  1.0000
  H   H20       1.0  0.75626  0.36381  0.72935  1.0000
  H   H21       1.0  0.68608  0.76216  0.08742  1.0000
  H   H22       1.0  0.17543  0.59907  0.41265  1.0000
  H   H23       1.0  0.31393  0.23785  0.91259  1.0000
  H   H24       1.0  0.82456  0.40093  0.58735  1.0000
  H   H25       1.0  0.76998  0.69463  0.96903  1.0000
  H   H26       1.0  0.22596  0.80119  0.53103  1.0000
  H   H27       1.0  0.23002  0.30537  0.03098  1.0000
  H   H28       1.0  0.77404  0.19882  0.46897  1.0000
  H   H29       1.0  0.09447  0.77564  0.87992  1.0000
  H   H30       1.0  0.39575  0.21482  0.62014  1.0000
  H   H31       1.0  0.90552  0.22434  0.12008  1.0000
  H   H32       1.0  0.60426  0.78519  0.37987  1.0000
  H   H33       1.0  0.90889  0.72302  0.86531  1.0000
  H   H34       1.0  0.35780  0.04388  0.63475  1.0000
  H   H35       1.0  0.09110  0.27698  0.13469  1.0000
  H   H36       1.0  0.64220  0.95612  0.36525  1.0000
  H   H37       1.0  0.25073  0.71757  0.05955  1.0000
  H   H38       1.0  0.15791  0.19140  0.44054  1.0000
  H   H39       1.0  0.74926  0.28242  0.94045  1.0000
  H   H40       1.0  0.84210  0.80861  0.55946  1.0000
  H   H41       1.0  0.76827  0.48628  0.86831  1.0000
  H   H42       1.0  0.11814  0.89993  0.63158  1.0000
  H   H43       1.0  0.23172  0.51371  0.13169  1.0000
  H   H44       1.0  0.88187  0.10008  0.36843  1.0000
  H   H45       1.0  0.94274  0.46769  0.23434  1.0000
  H   H46       1.0  0.73299  0.70857  0.26560  1.0000
  H   H47       1.0  0.05726  0.53231  0.76565  1.0000
  H   H48       1.0  0.26700  0.29143  0.73440  1.0000
  H   H49       1.0  0.94950  0.69980  0.24993  1.0000
  H   H50       1.0  0.05050  0.30020  0.75007  1.0000
  C   C1        1.0  0.35237  0.99544  0.02388  1.0000
  C   C2        1.0  0.47136  0.32877  0.47616  1.0000
  C   C3        1.0  0.64763  0.00455  0.97611  1.0000
  C   C4        1.0  0.52864  0.67123  0.52384  1.0000
  C   C5        1.0  0.22931  0.96846  0.05342  1.0000
  C   C6        1.0  0.41503  0.17623  0.44663  1.0000
  C   C7        1.0  0.77069  0.03153  0.94658  1.0000
  C   C8        1.0  0.58497  0.82378  0.55337  1.0000
  C   C9        1.0  0.10597  0.98530  0.13593  1.0000
  C   C10       1.0  0.34964  0.97047  0.36418  1.0000
  C   C11       1.0  0.89404  0.01469  0.86407  1.0000
  C   C12       1.0  0.65036  0.02953  0.63582  1.0000
  C   C13       1.0  0.05840  0.02422  0.20126  1.0000
  C   C14       1.0  0.32348  0.85770  0.29888  1.0000
  C   C15       1.0  0.94161  0.97578  0.79874  1.0000
  C   C16       1.0  0.67652  0.14230  0.70112  1.0000
  C   C17       1.0  0.90628  0.94207  0.18170  1.0000
  C   C18       1.0  0.26102  0.72513  0.31843  1.0000
  C   C19       1.0  0.09373  0.05794  0.81830  1.0000
  C   C20       1.0  0.73898  0.27487  0.68157  1.0000
  C   C21       1.0  0.80401  0.82375  0.09976  1.0000
  C   C22       1.0  0.22458  0.70469  0.40034  1.0000
  C   C23       1.0  0.19599  0.17625  0.90024  1.0000
  C   C24       1.0  0.77542  0.29532  0.59966  1.0000
  C   C25       1.0  0.84935  0.78432  0.03355  1.0000
  C   C26       1.0  0.25115  0.81614  0.46652  1.0000
  C   C27       1.0  0.15065  0.21568  0.96645  1.0000
  C   C28       1.0  0.74885  0.18387  0.53348  1.0000
  C   C29       1.0  0.00148  0.86784  0.05315  1.0000
  C   C30       1.0  0.31496  0.94870  0.44695  1.0000
  C   C31       1.0  0.99852  0.13216  0.94685  1.0000
  C   C32       1.0  0.68504  0.05130  0.55305  1.0000
  C   C33       1.0  0.02166  0.74411  0.91906  1.0000
  C   C34       1.0  0.32508  0.10285  0.58100  1.0000
  C   C35       1.0  0.97834  0.25588  0.08094  1.0000
  C   C36       1.0  0.67493  0.89715  0.41901  1.0000
  C   C37       1.0  0.01090  0.61634  0.95895  1.0000
  C   C38       1.0  0.15740  0.05211  0.54106  1.0000
  C   C39       1.0  0.98909  0.38365  0.04106  1.0000
  C   C40       1.0  0.84260  0.94790  0.45895  1.0000
  C   C41       1.0  0.14007  0.62207  0.03282  1.0000
  C   C42       1.0  0.08922  0.10742  0.46725  1.0000
  C   C43       1.0  0.85992  0.37792  0.96718  1.0000
  C   C44       1.0  0.91078  0.89259  0.53275  1.0000
  C   C45       1.0  0.87023  0.49296  0.92635  1.0000
  C   C46       1.0  0.06669  0.94388  0.57360  1.0000
  C   C47       1.0  0.12976  0.50703  0.07365  1.0000
  C   C48       1.0  0.93331  0.05613  0.42641  1.0000
  C   C49       1.0  0.71506  0.21211  0.24051  1.0000
  C   C50       1.0  0.47128  0.47460  0.25948  1.0000
  C   C51       1.0  0.28494  0.78789  0.75949  1.0000
  C   C52       1.0  0.52872  0.52539  0.74052  1.0000
  C   C53       1.0  0.73026  0.35761  0.24363  1.0000
  C   C54       1.0  0.61365  0.48678  0.25630  1.0000
  C   C55       1.0  0.26974  0.64239  0.75637  1.0000
  C   C56       1.0  0.38635  0.51322  0.74370  1.0000
  C   C57       1.0  0.85215  0.47672  0.24161  1.0000
  C   C58       1.0  0.73476  0.61069  0.25831  1.0000
  C   C59       1.0  0.14785  0.52329  0.75839  1.0000
  C   C60       1.0  0.26524  0.38931  0.74169  1.0000
  C   C61       1.0  0.85457  0.60483  0.24996  1.0000
  C   C62       1.0  0.14543  0.39517  0.75004  1.0000
  N   N1        1.0  0.24693  0.04499  0.13399  1.0000
  N   N2        1.0  0.41107  0.11333  0.36607  1.0000
  N   N3        1.0  0.75307  0.95500  0.86600  1.0000
  N   N4        1.0  0.58893  0.88667  0.63393  1.0000
  N   N5        1.0  0.08265  0.86145  0.00229  1.0000
  N   N6        1.0  0.35926  0.08069  0.49779  1.0000
  N   N7        1.0  0.91735  0.13855  0.99771  1.0000
  N   N8        1.0  0.64074  0.91932  0.50221  1.0000
  N   N9        1.0  0.61555  0.36576  0.24996  1.0000
  N   N10       1.0  0.38445  0.63424  0.75004  1.0000
  O   O1        1.0  0.59803  0.11825  0.24849  1.0000
  O   O2        1.0  0.36941  0.34955  0.25138  1.0000
  O   O3        1.0  0.40197  0.88175  0.75151  1.0000
  O   O4        1.0  0.63058  0.65045  0.74861  1.0000
  O   O5        1.0  0.81634  0.19659  0.23144  1.0000
  O   O6        1.0  0.46481  0.58493  0.26867  1.0000
  O   O7        1.0  0.18366  0.80342  0.76856  1.0000
  O   O8        1.0  0.53519  0.41507  0.73133  1.0000
