data_image0
_chemical_formula_structural       Ga2P2H8C10N2O8
_chemical_formula_sum              "Ga2 P2 H8 C10 N2 O8"
_cell_length_a       4.99796
_cell_length_b       5.79652
_cell_length_c       11.6114
_cell_angle_alpha    79.3454
_cell_angle_beta     87.8383
_cell_angle_gamma    87.6971

_space_group_name_H-M_alt    "P 1"
_space_group_IT_number       1

loop_
  _space_group_symop_operation_xyz
  'x, y, z'

loop_
  _atom_site_type_symbol
  _atom_site_label
  _atom_site_symmetry_multiplicity
  _atom_site_fract_x
  _atom_site_fract_y
  _atom_site_fract_z
  _atom_site_occupancy
  Ga  Ga1       1.0  0.66748  0.79371  0.89734  1.0000
  Ga  Ga2       1.0  0.33251  0.20628  0.10266  1.0000
  P   P1        1.0  0.14514  0.72320  0.07767  1.0000
  P   P2        1.0  0.85485  0.27680  0.92233  1.0000
  H   H1        1.0  0.28698  0.54932  0.77805  1.0000
  H   H2        1.0  0.71302  0.45068  0.22195  1.0000
  H   H3        1.0  0.96759  0.61802  0.61821  1.0000
  H   H4        1.0  0.03241  0.38198  0.38179  1.0000
  H   H5        1.0  0.57132  0.21938  0.68821  1.0000
  H   H6        1.0  0.42869  0.78062  0.31179  1.0000
  H   H7        1.0  0.27080  0.31995  0.51889  1.0000
  H   H8        1.0  0.72921  0.68005  0.48111  1.0000
  C   C1        1.0  0.28002  0.71564  0.71648  1.0000
  C   C2        1.0  0.71998  0.28437  0.28352  1.0000
  C   C3        1.0  0.10217  0.75711  0.62540  1.0000
  C   C4        1.0  0.89784  0.24289  0.37460  1.0000
  C   C5        1.0  0.09233  0.97561  0.54952  1.0000
  C   C6        1.0  0.90768  0.02440  0.45048  1.0000
  C   C7        1.0  0.26526  0.14539  0.57292  1.0000
  C   C8        1.0  0.73475  0.85461  0.42708  1.0000
  C   C9        1.0  0.43621  0.09207  0.66637  1.0000
  C   C10       1.0  0.56379  0.90793  0.33363  1.0000
  N   N1        1.0  0.44627  0.87970  0.73618  1.0000
  N   N2        1.0  0.55373  0.12031  0.26382  1.0000
  O   O1        1.0  0.85030  0.71541  0.04530  1.0000
  O   O2        1.0  0.14970  0.28459  0.95470  1.0000
  O   O3        1.0  0.32274  0.77550  0.96556  1.0000
  O   O4        1.0  0.67725  0.22449  0.03443  1.0000
  O   O5        1.0  0.17519  0.91350  0.15472  1.0000
  O   O6        1.0  0.82480  0.08650  0.84528  1.0000
  O   O7        1.0  0.22900  0.48599  0.15737  1.0000
  O   O8        1.0  0.77099  0.51401  0.84263  1.0000
