data_image0
_chemical_formula_structural       Ga2As2H8C10N2O8
_chemical_formula_sum              "Ga2 As2 H8 C10 N2 O8"
_cell_length_a       5.12798
_cell_length_b       5.96169
_cell_length_c       11.6377
_cell_angle_alpha    79.7746
_cell_angle_beta     87.9946
_cell_angle_gamma    88.9215

_space_group_name_H-M_alt    "P 1"
_space_group_IT_number       1

loop_
  _space_group_symop_operation_xyz
  'x, y, z'

loop_
  _atom_site_type_symbol
  _atom_site_label
  _atom_site_symmetry_multiplicity
  _atom_site_fract_x
  _atom_site_fract_y
  _atom_site_fract_z
  _atom_site_occupancy
  Ga  Ga1       1.0  0.66531  0.79181  0.89052  1.0000
  Ga  Ga2       1.0  0.33469  0.20819  0.10948  1.0000
  As  As1       1.0  0.14168  0.72397  0.07660  1.0000
  As  As2       1.0  0.85832  0.27603  0.92340  1.0000
  H   H1        1.0  0.29811  0.55141  0.76539  1.0000
  H   H2        1.0  0.70188  0.44859  0.23461  1.0000
  H   H3        1.0  0.26916  0.31073  0.52118  1.0000
  H   H4        1.0  0.73085  0.68928  0.47881  1.0000
  H   H5        1.0  0.97493  0.62240  0.61068  1.0000
  H   H6        1.0  0.02505  0.37762  0.38933  1.0000
  H   H7        1.0  0.57432  0.20760  0.68437  1.0000
  H   H8        1.0  0.42570  0.79240  0.31563  1.0000
  C   C1        1.0  0.28735  0.71539  0.70688  1.0000
  C   C2        1.0  0.71264  0.28462  0.29312  1.0000
  C   C3        1.0  0.10769  0.75831  0.61895  1.0000
  C   C4        1.0  0.89230  0.24170  0.38105  1.0000
  C   C5        1.0  0.09395  0.97416  0.54760  1.0000
  C   C6        1.0  0.90606  0.02585  0.45240  1.0000
  C   C7        1.0  0.26627  0.13879  0.57192  1.0000
  C   C8        1.0  0.73373  0.86121  0.42807  1.0000
  C   C9        1.0  0.43980  0.08388  0.66196  1.0000
  C   C10       1.0  0.56021  0.91612  0.33804  1.0000
  N   N1        1.0  0.45265  0.87487  0.72762  1.0000
  N   N2        1.0  0.54735  0.12514  0.27238  1.0000
  O   O1        1.0  0.82299  0.69560  0.04293  1.0000
  O   O2        1.0  0.17701  0.30438  0.95706  1.0000
  O   O3        1.0  0.32164  0.80113  0.95024  1.0000
  O   O4        1.0  0.67835  0.19884  0.04976  1.0000
  O   O5        1.0  0.16075  0.93093  0.16253  1.0000
  O   O6        1.0  0.83925  0.06906  0.83747  1.0000
  O   O7        1.0  0.24228  0.47901  0.16762  1.0000
  O   O8        1.0  0.75772  0.52098  0.83238  1.0000
