data_image0
_chemical_formula_structural       Ca2H20C8O16
_chemical_formula_sum              "Ca2 H20 C8 O16"
_cell_length_a       6.68044
_cell_length_b       8.13772
_cell_length_c       8.21687
_cell_angle_alpha    90.0001
_cell_angle_beta     89.9999
_cell_angle_gamma    113.658

_space_group_name_H-M_alt    "P 1"
_space_group_IT_number       1

loop_
  _space_group_symop_operation_xyz
  'x, y, z'

loop_
  _atom_site_type_symbol
  _atom_site_label
  _atom_site_symmetry_multiplicity
  _atom_site_fract_x
  _atom_site_fract_y
  _atom_site_fract_z
  _atom_site_occupancy
  Ca  Ca1       1.0  0.10706  0.82213  0.31038  1.0000
  Ca  Ca2       1.0  0.89294  0.17787  0.81039  1.0000
  H   H1        1.0  0.64171  0.38369  0.56087  1.0000
  H   H2        1.0  0.35828  0.61630  0.06086  1.0000
  H   H3        1.0  0.96697  0.58962  0.61169  1.0000
  H   H4        1.0  0.03303  0.41038  0.11169  1.0000
  H   H5        1.0  0.46798  0.59654  0.55877  1.0000
  H   H6        1.0  0.53202  0.40346  0.05878  1.0000
  H   H7        1.0  0.36642  0.44502  0.39920  1.0000
  H   H8        1.0  0.63359  0.55499  0.89921  1.0000
  H   H9        1.0  0.33665  0.19519  0.30051  1.0000
  H   H10       1.0  0.66335  0.80481  0.80051  1.0000
  H   H11       1.0  0.14486  0.19905  0.19106  1.0000
  H   H12       1.0  0.85514  0.80095  0.69106  1.0000
  H   H13       1.0  0.28424  0.89650  0.96007  1.0000
  H   H14       1.0  0.71576  0.10350  0.46007  1.0000
  H   H15       1.0  0.03301  0.85561  0.94029  1.0000
  H   H16       1.0  0.96699  0.14439  0.44029  1.0000
  H   H17       1.0  0.33184  0.88269  0.62755  1.0000
  H   H18       1.0  0.66816  0.11730  0.12755  1.0000
  H   H19       1.0  0.27963  0.05651  0.62521  1.0000
  H   H20       1.0  0.72038  0.94349  0.12521  1.0000
  C   C1        1.0  0.75429  0.41165  0.31780  1.0000
  C   C2        1.0  0.24570  0.58834  0.81780  1.0000
  C   C3        1.0  0.69828  0.49298  0.47099  1.0000
  C   C4        1.0  0.30171  0.50701  0.97099  1.0000
  C   C5        1.0  0.51497  0.55610  0.44234  1.0000
  C   C6        1.0  0.48504  0.44391  0.94235  1.0000
  C   C7        1.0  0.56273  0.71259  0.32609  1.0000
  C   C8        1.0  0.43727  0.28742  0.82610  1.0000
  O   O1        1.0  0.93789  0.49622  0.24981  1.0000
  O   O2        1.0  0.06211  0.50378  0.74981  1.0000
  O   O3        1.0  0.61065  0.26158  0.27001  1.0000
  O   O4        1.0  0.38935  0.73841  0.77001  1.0000
  O   O5        1.0  0.88583  0.63980  0.53468  1.0000
  O   O6        1.0  0.11416  0.36019  0.03468  1.0000
  O   O7        1.0  0.74578  0.78136  0.25140  1.0000
  O   O8        1.0  0.25423  0.21864  0.75141  1.0000
  O   O9        1.0  0.41274  0.76765  0.30657  1.0000
  O   O10       1.0  0.58727  0.23236  0.80658  1.0000
  O   O11       1.0  0.17302  0.14402  0.29108  1.0000
  O   O12       1.0  0.82698  0.85598  0.79108  1.0000
  O   O13       1.0  0.14857  0.86811  0.02058  1.0000
  O   O14       1.0  0.85142  0.13189  0.52058  1.0000
  O   O15       1.0  0.29076  0.96096  0.55442  1.0000
  O   O16       1.0  0.70924  0.03904  0.05442  1.0000
