data_image0
_chemical_formula_structural       Zn2H30C30N14O14
_chemical_formula_sum              "Zn2 H30 C30 N14 O14"
_cell_length_a       10.0231
_cell_length_b       10.2916
_cell_length_c       11.0159
_cell_angle_alpha    69.7971
_cell_angle_beta     78.1819
_cell_angle_gamma    65.847

_space_group_name_H-M_alt    "P 1"
_space_group_IT_number       1

loop_
  _space_group_symop_operation_xyz
  'x, y, z'

loop_
  _atom_site_type_symbol
  _atom_site_label
  _atom_site_symmetry_multiplicity
  _atom_site_fract_x
  _atom_site_fract_y
  _atom_site_fract_z
  _atom_site_occupancy
  Zn  Zn1       1.0  0.41800  0.95714  0.28047  1.0000
  Zn  Zn2       1.0  0.58199  0.04286  0.71953  1.0000
  H   H1        1.0  0.57421  0.80756  0.50556  1.0000
  H   H2        1.0  0.42579  0.19244  0.49444  1.0000
  H   H3        1.0  0.55687  0.71494  0.42509  1.0000
  H   H4        1.0  0.44313  0.28506  0.57491  1.0000
  H   H5        1.0  0.24964  0.14425  0.76843  1.0000
  H   H6        1.0  0.75036  0.85574  0.23157  1.0000
  H   H7        1.0  0.08078  0.29344  0.78163  1.0000
  H   H8        1.0  0.91922  0.70656  0.21836  1.0000
  H   H9        1.0  0.95519  0.10865  0.88062  1.0000
  H   H10       1.0  0.04480  0.89135  0.11938  1.0000
  H   H11       1.0  0.11742  0.96442  0.84793  1.0000
  H   H12       1.0  0.88258  0.03558  0.15207  1.0000
  H   H13       1.0  0.90262  0.10806  0.68769  1.0000
  H   H14       1.0  0.09738  0.89194  0.31231  1.0000
  H   H15       1.0  0.98450  0.24339  0.62665  1.0000
  H   H16       1.0  0.01549  0.75662  0.37335  1.0000
  H   H17       1.0  0.05519  0.21174  0.22730  1.0000
  H   H18       1.0  0.94481  0.78827  0.77270  1.0000
  H   H19       1.0  0.38147  0.98609  0.98396  1.0000
  H   H20       1.0  0.61853  0.01390  0.01604  1.0000
  H   H21       1.0  0.27480  0.73876  0.51873  1.0000
  H   H22       1.0  0.72521  0.26123  0.48128  1.0000
  H   H23       1.0  0.19300  0.19217  0.44690  1.0000
  H   H24       1.0  0.80699  0.80784  0.55309  1.0000
  H   H25       1.0  0.45070  0.41761  0.33642  1.0000
  H   H26       1.0  0.54930  0.58238  0.66359  1.0000
  H   H27       1.0  0.68186  0.65214  0.02735  1.0000
  H   H28       1.0  0.31812  0.34787  0.97265  1.0000
  H   H29       1.0  0.68332  0.23499  0.02164  1.0000
  H   H30       1.0  0.31668  0.76501  0.97835  1.0000
  C   C1        1.0  0.14181  0.17367  0.82163  1.0000
  C   C2        1.0  0.85819  0.82633  0.17836  1.0000
  C   C3        1.0  0.05453  0.08466  0.81485  1.0000
  C   C4        1.0  0.94547  0.91534  0.18515  1.0000
  C   C5        1.0  0.00521  0.12570  0.67940  1.0000
  C   C6        1.0  0.99478  0.87430  0.32060  1.0000
  C   C7        1.0  0.11457  0.17558  0.14360  1.0000
  C   C8        1.0  0.88543  0.82443  0.85639  1.0000
  C   C9        1.0  0.28238  0.05921  0.02283  1.0000
  C   C10       1.0  0.71762  0.94079  0.97718  1.0000
  C   C11       1.0  0.22905  0.85064  0.52839  1.0000
  C   C12       1.0  0.77095  0.14936  0.47161  1.0000
  C   C13       1.0  0.18998  0.08126  0.48842  1.0000
  C   C14       1.0  0.81001  0.91875  0.51157  1.0000
  C   C15       1.0  0.56435  0.30919  0.18804  1.0000
  C   C16       1.0  0.43565  0.69081  0.81196  1.0000
  C   C17       1.0  0.52160  0.42190  0.24713  1.0000
  C   C18       1.0  0.47840  0.57809  0.75288  1.0000
  C   C19       1.0  0.56216  0.54591  0.19010  1.0000
  C   C20       1.0  0.43783  0.45408  0.80991  1.0000
  C   C21       1.0  0.65136  0.55538  0.07451  1.0000
  C   C22       1.0  0.34863  0.44462  0.92550  1.0000
  C   C23       1.0  0.69552  0.44070  0.01780  1.0000
  C   C24       1.0  0.30447  0.55931  0.98220  1.0000
  C   C25       1.0  0.65206  0.31896  0.07136  1.0000
  C   C26       1.0  0.34794  0.68105  0.92864  1.0000
  C   C27       1.0  0.50681  0.18542  0.24605  1.0000
  C   C28       1.0  0.49320  0.81457  0.75396  1.0000
  C   C29       1.0  0.50306  0.66850  0.25381  1.0000
  C   C30       1.0  0.49693  0.33149  0.74621  1.0000
  N   N1        1.0  0.16419  0.15002  0.95562  1.0000
  N   N2        1.0  0.83582  0.84998  0.04438  1.0000
  N   N3        1.0  0.05511  0.22457  0.03163  1.0000
  N   N4        1.0  0.94489  0.77543  0.96836  1.0000
  N   N5        1.0  0.25461  0.07290  0.14308  1.0000
  N   N6        1.0  0.74538  0.92710  0.85691  1.0000
  N   N7        1.0  0.11013  0.03782  0.59704  1.0000
  N   N8        1.0  0.88987  0.96218  0.40296  1.0000
  N   N9        1.0  0.13345  0.89071  0.62392  1.0000
  N   N10       1.0  0.86656  0.10929  0.37608  1.0000
  N   N11       1.0  0.26687  0.96483  0.44222  1.0000
  N   N12       1.0  0.73313  0.03517  0.55778  1.0000
  N   N13       1.0  0.78245  0.45382  0.89253  1.0000
  N   N14       1.0  0.21755  0.54619  0.10747  1.0000
  O   O1        1.0  0.42609  0.18062  0.35040  1.0000
  O   O2        1.0  0.57393  0.81936  0.64961  1.0000
  O   O3        1.0  0.53817  0.09019  0.18398  1.0000
  O   O4        1.0  0.46183  0.90981  0.81601  1.0000
  O   O5        1.0  0.50914  0.79566  0.18436  1.0000
  O   O6        1.0  0.49086  0.20434  0.81565  1.0000
  O   O7        1.0  0.45273  0.63946  0.37054  1.0000
  O   O8        1.0  0.54727  0.36053  0.62947  1.0000
  O   O9        1.0  0.83472  0.55261  0.85246  1.0000
  O   O10       1.0  0.16528  0.44740  0.14754  1.0000
  O   O11       1.0  0.79645  0.36653  0.83185  1.0000
  O   O12       1.0  0.20354  0.63347  0.16816  1.0000
  O   O13       1.0  0.58927  0.79689  0.41644  1.0000
  O   O14       1.0  0.41073  0.20311  0.58356  1.0000
