data_image0
_chemical_formula_structural       Zn2H32C30N12O10
_chemical_formula_sum              "Zn2 H32 C30 N12 O10"
_cell_length_a       10.0864
_cell_length_b       10.2754
_cell_length_c       10.7861
_cell_angle_alpha    79.6892
_cell_angle_beta     62.8219
_cell_angle_gamma    65.1232

_space_group_name_H-M_alt    "P 1"
_space_group_IT_number       1

loop_
  _space_group_symop_operation_xyz
  'x, y, z'

loop_
  _atom_site_type_symbol
  _atom_site_label
  _atom_site_symmetry_multiplicity
  _atom_site_fract_x
  _atom_site_fract_y
  _atom_site_fract_z
  _atom_site_occupancy
  Zn  Zn1       1.0  0.97173  0.39691  0.30432  1.0000
  Zn  Zn2       1.0  0.02827  0.60310  0.69568  1.0000
  H   H1        1.0  0.27346  0.95729  0.58942  1.0000
  H   H2        1.0  0.72654  0.04271  0.41058  1.0000
  H   H3        1.0  0.12910  0.87968  0.67154  1.0000
  H   H4        1.0  0.87088  0.12033  0.32847  1.0000
  H   H5        1.0  0.18045  0.92533  0.84966  1.0000
  H   H6        1.0  0.81954  0.07467  0.15035  1.0000
  H   H7        1.0  0.98453  0.05357  0.87575  1.0000
  H   H8        1.0  0.01547  0.94644  0.12425  1.0000
  H   H9        1.0  0.29507  0.11542  0.72374  1.0000
  H   H10       1.0  0.70494  0.88456  0.27626  1.0000
  H   H11       1.0  0.09375  0.24540  0.77363  1.0000
  H   H12       1.0  0.90627  0.75460  0.22636  1.0000
  H   H13       1.0  0.71945  0.25646  0.56963  1.0000
  H   H14       1.0  0.28056  0.74354  0.43036  1.0000
  H   H15       1.0  0.20817  0.17588  0.43876  1.0000
  H   H16       1.0  0.79183  0.82413  0.56124  1.0000
  H   H17       1.0  0.27712  0.06329  0.17446  1.0000
  H   H18       1.0  0.72286  0.93671  0.82556  1.0000
  H   H19       1.0  0.96430  0.36659  0.00794  1.0000
  H   H20       1.0  0.03570  0.63341  0.99206  1.0000
  H   H21       1.0  0.44070  0.38165  0.30084  1.0000
  H   H22       1.0  0.55931  0.61834  0.69915  1.0000
  H   H23       1.0  0.66048  0.68719  0.12123  1.0000
  H   H24       1.0  0.33952  0.31280  0.87877  1.0000
  H   H25       1.0  0.47019  0.80994  0.00848  1.0000
  H   H26       1.0  0.52980  0.19006  0.99152  1.0000
  H   H27       1.0  0.26386  0.71640  0.04574  1.0000
  H   H28       1.0  0.73614  0.28360  0.95426  1.0000
  H   H29       1.0  0.72498  0.61006  0.45164  1.0000
  H   H30       1.0  0.27502  0.38994  0.54836  1.0000
  H   H31       1.0  0.81675  0.58733  0.54651  1.0000
  H   H32       1.0  0.18325  0.41268  0.45349  1.0000
  C   C1        1.0  0.14718  0.97918  0.66388  1.0000
  C   C2        1.0  0.85281  0.02083  0.33612  1.0000
  C   C3        1.0  0.11408  0.02201  0.80655  1.0000
  C   C4        1.0  0.88592  0.97800  0.19344  1.0000
  C   C5        1.0  0.16873  0.14191  0.80075  1.0000
  C   C6        1.0  0.83128  0.85809  0.19925  1.0000
  C   C7        1.0  0.84073  0.21095  0.56366  1.0000
  C   C8        1.0  0.15926  0.78906  0.43634  1.0000
  C   C9        1.0  0.08912  0.17262  0.49384  1.0000
  C   C10       1.0  0.91087  0.82739  0.50616  1.0000
  C   C11       1.0  0.21977  0.11803  0.10556  1.0000
  C   C12       1.0  0.78022  0.88197  0.89446  1.0000
  C   C13       1.0  0.05757  0.27349  0.02571  1.0000
  C   C14       1.0  0.94244  0.72650  0.97429  1.0000
  C   C15       1.0  0.33543  0.54588  0.17861  1.0000
  C   C16       1.0  0.66457  0.45412  0.82139  1.0000
  C   C17       1.0  0.44417  0.47716  0.23884  1.0000
  C   C18       1.0  0.55583  0.52284  0.76115  1.0000
  C   C19       1.0  0.56074  0.52791  0.21885  1.0000
  C   C20       1.0  0.43927  0.47209  0.78114  1.0000
  C   C21       1.0  0.56890  0.64886  0.13614  1.0000
  C   C22       1.0  0.43110  0.35114  0.86386  1.0000
  C   C23       1.0  0.46333  0.71640  0.07335  1.0000
  C   C24       1.0  0.53667  0.28359  0.92665  1.0000
  C   C25       1.0  0.34715  0.66485  0.09413  1.0000
  C   C26       1.0  0.65286  0.33514  0.90586  1.0000
  C   C27       1.0  0.20533  0.49606  0.20726  1.0000
  C   C28       1.0  0.79468  0.50392  0.79274  1.0000
  C   C29       1.0  0.67638  0.45146  0.28466  1.0000
  C   C30       1.0  0.32362  0.54854  0.71533  1.0000
  N   N1        1.0  0.04653  0.08733  0.60130  1.0000
  N   N2        1.0  0.95347  0.91268  0.39870  1.0000
  N   N3        1.0  0.88807  0.10961  0.64708  1.0000
  N   N4        1.0  0.11193  0.89039  0.35292  1.0000
  N   N5        1.0  0.96127  0.25268  0.46698  1.0000
  N   N6        1.0  0.03874  0.74732  0.53302  1.0000
  N   N7        1.0  0.16034  0.16302  0.93464  1.0000
  N   N8        1.0  0.83966  0.83698  0.06537  1.0000
  N   N9        1.0  0.26516  0.06219  0.98380  1.0000
  N   N10       1.0  0.73484  0.93781  0.01621  1.0000
  N   N11       1.0  0.09239  0.24790  0.13584  1.0000
  N   N12       1.0  0.90760  0.75211  0.86416  1.0000
  O   O1        1.0  0.11472  0.54908  0.14554  1.0000
  O   O2        1.0  0.88527  0.45092  0.85446  1.0000
  O   O3        1.0  0.18451  0.39872  0.30122  1.0000
  O   O4        1.0  0.81549  0.60128  0.69879  1.0000
  O   O5        1.0  0.78367  0.50449  0.25535  1.0000
  O   O6        1.0  0.21632  0.49552  0.74465  1.0000
  O   O7        1.0  0.66538  0.34496  0.35977  1.0000
  O   O8        1.0  0.33462  0.65504  0.64023  1.0000
  O   O9        1.0  0.82928  0.59308  0.44808  1.0000
  O   O10       1.0  0.17072  0.40692  0.55192  1.0000
