data_image0
_chemical_formula_structural       Sr2H16C28S4O18
_chemical_formula_sum              "Sr2 H16 C28 S4 O18"
_cell_length_a       5.28977
_cell_length_b       10.3219
_cell_length_c       14.5584
_cell_angle_alpha    104.034
_cell_angle_beta     100.132
_cell_angle_gamma    96.89

_space_group_name_H-M_alt    "P 1"
_space_group_IT_number       1

loop_
  _space_group_symop_operation_xyz
  'x, y, z'

loop_
  _atom_site_type_symbol
  _atom_site_label
  _atom_site_symmetry_multiplicity
  _atom_site_fract_x
  _atom_site_fract_y
  _atom_site_fract_z
  _atom_site_occupancy
  Sr  Sr1       1.0  0.15743  0.73883  0.97694  1.0000
  Sr  Sr2       1.0  0.84256  0.26117  0.02306  1.0000
  H   H1        1.0  0.83176  0.30793  0.75701  1.0000
  H   H2        1.0  0.16824  0.69207  0.24299  1.0000
  H   H3        1.0  0.90639  0.29173  0.59058  1.0000
  H   H4        1.0  0.09359  0.70826  0.40942  1.0000
  H   H5        1.0  0.28688  0.58041  0.71775  1.0000
  H   H6        1.0  0.71309  0.41958  0.28224  1.0000
  H   H7        1.0  0.92577  0.79509  0.73278  1.0000
  H   H8        1.0  0.07423  0.20491  0.26723  1.0000
  H   H9        1.0  0.94958  0.79885  0.56499  1.0000
  H   H10       1.0  0.05043  0.20116  0.43502  1.0000
  H   H11       1.0  0.33465  0.05086  0.72815  1.0000
  H   H12       1.0  0.66537  0.94914  0.27186  1.0000
  H   H13       1.0  0.75781  0.75754  0.11438  1.0000
  H   H14       1.0  0.24218  0.24246  0.88562  1.0000
  H   H15       1.0  0.83817  0.90320  0.10774  1.0000
  H   H16       1.0  0.16185  0.09680  0.89226  1.0000
  C   C1        1.0  0.55667  0.44606  0.74696  1.0000
  C   C2        1.0  0.44331  0.55393  0.25303  1.0000
  C   C3        1.0  0.73036  0.36388  0.71190  1.0000
  C   C4        1.0  0.26961  0.63611  0.28810  1.0000
  C   C5        1.0  0.77150  0.35484  0.61887  1.0000
  C   C6        1.0  0.22848  0.64515  0.38113  1.0000
  C   C7        1.0  0.63867  0.42638  0.56102  1.0000
  C   C8        1.0  0.36131  0.57360  0.43897  1.0000
  C   C9        1.0  0.46074  0.50611  0.59652  1.0000
  C   C10       1.0  0.53923  0.49388  0.40346  1.0000
  C   C11       1.0  0.42058  0.51625  0.69021  1.0000
  C   C12       1.0  0.57941  0.48374  0.30978  1.0000
  C   C13       1.0  0.68685  0.41859  0.46279  1.0000
  C   C14       1.0  0.31312  0.58140  0.53720  1.0000
  C   C15       1.0  0.62427  0.91976  0.74004  1.0000
  C   C16       1.0  0.37575  0.08025  0.25997  1.0000
  C   C17       1.0  0.79916  0.84966  0.69463  1.0000
  C   C18       1.0  0.20085  0.15034  0.30538  1.0000
  C   C19       1.0  0.81515  0.85320  0.60096  1.0000
  C   C20       1.0  0.18487  0.14681  0.39904  1.0000
  C   C21       1.0  0.65858  0.92543  0.55203  1.0000
  C   C22       1.0  0.34143  0.07458  0.44798  1.0000
  C   C23       1.0  0.48397  0.99637  0.59836  1.0000
  C   C24       1.0  0.51605  0.00365  0.40165  1.0000
  C   C25       1.0  0.46772  0.99363  0.69293  1.0000
  C   C26       1.0  0.53231  0.00638  0.30708  1.0000
  C   C27       1.0  0.68258  0.92533  0.45178  1.0000
  C   C28       1.0  0.31746  0.07469  0.54823  1.0000
  S   S1        1.0  0.52478  0.47179  0.86922  1.0000
  S   S2        1.0  0.47521  0.52821  0.13077  1.0000
  S   S3        1.0  0.60605  0.91400  0.86024  1.0000
  S   S4        1.0  0.39396  0.08600  0.13977  1.0000
  O   O1        1.0  0.90988  0.82117  0.11168  1.0000
  O   O2        1.0  0.09012  0.17883  0.88832  1.0000
  O   O3        1.0  0.26922  0.51035  0.87497  1.0000
  O   O4        1.0  0.73077  0.48965  0.12503  1.0000
  O   O5        1.0  0.55044  0.34130  0.89236  1.0000
  O   O6        1.0  0.44956  0.65870  0.10763  1.0000
  O   O7        1.0  0.74190  0.57933  0.92605  1.0000
  O   O8        1.0  0.25807  0.42067  0.07394  1.0000
  O   O9        1.0  0.84776  0.35274  0.43070  1.0000
  O   O10       1.0  0.15224  0.64725  0.56929  1.0000
  O   O11       1.0  0.39017  0.80407  0.85078  1.0000
  O   O12       1.0  0.60983  0.19593  0.14922  1.0000
  O   O13       1.0  0.86099  0.88762  0.90291  1.0000
  O   O14       1.0  0.13901  0.11238  0.09710  1.0000
  O   O15       1.0  0.55098  0.04709  0.90923  1.0000
  O   O16       1.0  0.44901  0.95291  0.09077  1.0000
  O   O17       1.0  0.83606  0.86230  0.41159  1.0000
  O   O18       1.0  0.16400  0.13774  0.58842  1.0000
