data_image0
_chemical_formula_structural       MgH10C14S2O10
_chemical_formula_sum              "Mg1 H10 C14 S2 O10"
_cell_length_a       4.8576
_cell_length_b       5.59564
_cell_length_c       13.5217
_cell_angle_alpha    91.5184
_cell_angle_beta     90.0732
_cell_angle_gamma    98.1588

_space_group_name_H-M_alt    "P 1"
_space_group_IT_number       1

loop_
  _space_group_symop_operation_xyz
  'x, y, z'

loop_
  _atom_site_type_symbol
  _atom_site_label
  _atom_site_symmetry_multiplicity
  _atom_site_fract_x
  _atom_site_fract_y
  _atom_site_fract_z
  _atom_site_occupancy
  Mg  Mg1       1.0  1.00000  0.50000  0.00000  1.0000
  H   H1        1.0  0.62233  0.26775  0.74420  1.0000
  H   H2        1.0  0.37766  0.73225  0.25581  1.0000
  H   H3        1.0  0.46153  0.11101  0.57785  1.0000
  H   H4        1.0  0.53847  0.88898  0.42215  1.0000
  H   H5        1.0  0.10626  0.83522  0.72288  1.0000
  H   H6        1.0  0.89375  0.16478  0.27711  1.0000
  H   H7        1.0  0.23289  0.10061  0.93136  1.0000
  H   H8        1.0  0.76710  0.89939  0.06863  1.0000
  H   H9        1.0  0.93964  0.10460  0.88524  1.0000
  H   H10       1.0  0.06035  0.89541  0.11476  1.0000
  C   C1        1.0  0.37986  0.56356  0.74250  1.0000
  C   C2        1.0  0.62014  0.43643  0.25750  1.0000
  C   C3        1.0  0.47638  0.35765  0.70294  1.0000
  C   C4        1.0  0.52363  0.64235  0.29706  1.0000
  C   C5        1.0  0.38309  0.26845  0.60995  1.0000
  C   C6        1.0  0.61692  0.73154  0.39005  1.0000
  C   C7        1.0  0.19515  0.38321  0.55656  1.0000
  C   C8        1.0  0.80486  0.61679  0.44344  1.0000
  C   C9        1.0  0.09397  0.58714  0.59834  1.0000
  C   C10       1.0  0.90604  0.41287  0.40166  1.0000
  C   C11       1.0  0.18706  0.67745  0.69193  1.0000
  C   C12       1.0  0.81295  0.32255  0.30807  1.0000
  C   C13       1.0  0.10932  0.28962  0.45569  1.0000
  C   C14       1.0  0.89069  0.71037  0.54430  1.0000
  S   S1        1.0  0.52345  0.69757  0.85514  1.0000
  S   S2        1.0  0.47654  0.30244  0.14487  1.0000
  O   O1        1.0  0.09752  0.20966  0.91830  1.0000
  O   O2        1.0  0.90247  0.79035  0.08170  1.0000
  O   O3        1.0  0.28946  0.73959  0.92068  1.0000
  O   O4        1.0  0.71052  0.26040  0.07932  1.0000
  O   O5        1.0  0.68367  0.92752  0.82772  1.0000
  O   O6        1.0  0.31632  0.07249  0.17229  1.0000
  O   O7        1.0  0.69214  0.52514  0.89582  1.0000
  O   O8        1.0  0.30786  0.47487  0.10419  1.0000
  O   O9        1.0  0.20568  0.11649  0.41734  1.0000
  O   O10       1.0  0.79433  0.88350  0.58266  1.0000
