data_image0
_chemical_formula_structural       Ca2H12C28S4O16
_chemical_formula_sum              "Ca2 H12 C28 S4 O16"
_cell_length_a       5.36238
_cell_length_b       9.56218
_cell_length_c       14.814
_cell_angle_alpha    101.869
_cell_angle_beta     90.0001
_cell_angle_gamma    90.0007

_space_group_name_H-M_alt    "P 1"
_space_group_IT_number       1

loop_
  _space_group_symop_operation_xyz
  'x, y, z'

loop_
  _atom_site_type_symbol
  _atom_site_label
  _atom_site_symmetry_multiplicity
  _atom_site_fract_x
  _atom_site_fract_y
  _atom_site_fract_z
  _atom_site_occupancy
  Ca  Ca1       1.0  0.50000  0.50000  1.00000  1.0000
  Ca  Ca2       1.0  1.00000  0.00000  1.00000  1.0000
  H   H1        1.0  0.35787  0.74909  0.78589  1.0000
  H   H2        1.0  0.85784  0.75090  0.21412  1.0000
  H   H3        1.0  0.64213  0.25092  0.21411  1.0000
  H   H4        1.0  0.14214  0.24909  0.78589  1.0000
  H   H5        1.0  0.46092  0.72581  0.61818  1.0000
  H   H6        1.0  0.96087  0.77419  0.38182  1.0000
  H   H7        1.0  0.53911  0.27419  0.38182  1.0000
  H   H8        1.0  0.03910  0.22581  0.61818  1.0000
  H   H9        1.0  0.72614  0.46878  0.71018  1.0000
  H   H10       1.0  0.22612  0.03121  0.28982  1.0000
  H   H11       1.0  0.27389  0.53121  0.28982  1.0000
  H   H12       1.0  0.77387  0.96879  0.71018  1.0000
  C   C1        1.0  0.03958  0.60767  0.75707  1.0000
  C   C2        1.0  0.53955  0.89233  0.24293  1.0000
  C   C3        1.0  0.96044  0.39233  0.24293  1.0000
  C   C4        1.0  0.46043  0.10767  0.75707  1.0000
  C   C5        1.0  0.24595  0.68201  0.73255  1.0000
  C   C6        1.0  0.74593  0.81799  0.26746  1.0000
  C   C7        1.0  0.75406  0.31800  0.26746  1.0000
  C   C8        1.0  0.25405  0.18201  0.73255  1.0000
  C   C9        1.0  0.30213  0.66969  0.63974  1.0000
  C   C10       1.0  0.80210  0.83031  0.36026  1.0000
  C   C11       1.0  0.69789  0.33031  0.36026  1.0000
  C   C12       1.0  0.19788  0.16969  0.63974  1.0000
  C   C13       1.0  0.15422  0.58525  0.57169  1.0000
  C   C14       1.0  0.65418  0.91475  0.42830  1.0000
  C   C15       1.0  0.84582  0.41475  0.42830  1.0000
  C   C16       1.0  0.34579  0.08525  0.57170  1.0000
  C   C17       1.0  0.94570  0.51272  0.59716  1.0000
  C   C18       1.0  0.44566  0.98728  0.40284  1.0000
  C   C19       1.0  0.05434  0.48728  0.40284  1.0000
  C   C20       1.0  0.55431  0.01273  0.59716  1.0000
  C   C21       1.0  0.88885  0.52416  0.69068  1.0000
  C   C22       1.0  0.38882  0.97583  0.30932  1.0000
  C   C23       1.0  0.11118  0.47583  0.30932  1.0000
  C   C24       1.0  0.61117  0.02417  0.69068  1.0000
  C   C25       1.0  0.21807  0.57568  0.47317  1.0000
  C   C26       1.0  0.71807  0.92431  0.52683  1.0000
  C   C27       1.0  0.78195  0.42430  0.52684  1.0000
  C   C28       1.0  0.28194  0.07569  0.47317  1.0000
  S   S1        1.0  0.97394  0.61858  0.87580  1.0000
  S   S2        1.0  0.47392  0.88142  0.12420  1.0000
  S   S3        1.0  0.02607  0.38143  0.12420  1.0000
  S   S4        1.0  0.52606  0.11858  0.87580  1.0000
  O   O1        1.0  0.15079  0.52251  0.90837  1.0000
  O   O2        1.0  0.65078  0.97748  0.09163  1.0000
  O   O3        1.0  0.84923  0.47749  0.09163  1.0000
  O   O4        1.0  0.34922  0.02250  0.90837  1.0000
  O   O5        1.0  0.01112  0.76837  0.92053  1.0000
  O   O6        1.0  0.51110  0.73164  0.07947  1.0000
  O   O7        1.0  0.98887  0.23164  0.07947  1.0000
  O   O8        1.0  0.48886  0.26836  0.92054  1.0000
  O   O9        1.0  0.71462  0.57079  0.87963  1.0000
  O   O10       1.0  0.21461  0.92920  0.12036  1.0000
  O   O11       1.0  0.28538  0.42920  0.12036  1.0000
  O   O12       1.0  0.78538  0.07080  0.87964  1.0000
  O   O13       1.0  0.40197  0.63830  0.45011  1.0000
  O   O14       1.0  0.90192  0.86171  0.54988  1.0000
  O   O15       1.0  0.59809  0.36169  0.54988  1.0000
  O   O16       1.0  0.09805  0.13831  0.45011  1.0000
