data_image0
_chemical_formula_structural       Ag2H32C36N6O8
_chemical_formula_sum              "Ag2 H32 C36 N6 O8"
_cell_length_a       7.51428
_cell_length_b       8.24014
_cell_length_c       13.7377
_cell_angle_alpha    106.772
_cell_angle_beta     94.3648
_cell_angle_gamma    94.0822

_space_group_name_H-M_alt    "P 1"
_space_group_IT_number       1

loop_
  _space_group_symop_operation_xyz
  'x, y, z'

loop_
  _atom_site_type_symbol
  _atom_site_label
  _atom_site_symmetry_multiplicity
  _atom_site_fract_x
  _atom_site_fract_y
  _atom_site_fract_z
  _atom_site_occupancy
  Ag  Ag1       1.0  0.32844  0.98985  0.54876  1.0000
  Ag  Ag2       1.0  0.67156  0.01015  0.45124  1.0000
  H   H1        1.0  0.71187  0.37399  0.24654  1.0000
  H   H2        1.0  0.28814  0.62601  0.75346  1.0000
  H   H3        1.0  0.57830  0.48802  0.18581  1.0000
  H   H4        1.0  0.42170  0.51197  0.81419  1.0000
  H   H5        1.0  0.49043  0.73391  0.65523  1.0000
  H   H6        1.0  0.50958  0.26610  0.34477  1.0000
  H   H7        1.0  0.66621  0.75524  0.82195  1.0000
  H   H8        1.0  0.33380  0.24475  0.17805  1.0000
  H   H9        1.0  0.76485  0.03946  0.94364  1.0000
  H   H10       1.0  0.23515  0.96055  0.05636  1.0000
  H   H11       1.0  0.50106  0.25924  0.72795  1.0000
  H   H12       1.0  0.49894  0.74076  0.27205  1.0000
  H   H13       1.0  0.69186  0.44202  0.85949  1.0000
  H   H14       1.0  0.30813  0.55799  0.14051  1.0000
  H   H15       1.0  0.64342  0.21909  0.06027  1.0000
  H   H16       1.0  0.35657  0.78090  0.93972  1.0000
  H   H17       1.0  0.87737  0.27878  0.08996  1.0000
  H   H18       1.0  0.12263  0.72122  0.91004  1.0000
  H   H19       1.0  0.19893  0.31272  0.52271  1.0000
  H   H20       1.0  0.80108  0.68727  0.47729  1.0000
  H   H21       1.0  0.02178  0.41497  0.39571  1.0000
  H   H22       1.0  0.97823  0.58503  0.60429  1.0000
  H   H23       1.0  0.88983  0.19984  0.23073  1.0000
  H   H24       1.0  0.11018  0.80016  0.76928  1.0000
  H   H25       1.0  0.10508  0.80970  0.34440  1.0000
  H   H26       1.0  0.89492  0.19029  0.65560  1.0000
  H   H27       1.0  0.88587  0.92497  0.11453  1.0000
  H   H28       1.0  0.11412  0.07503  0.88548  1.0000
  H   H29       1.0  0.98836  0.54929  0.23540  1.0000
  H   H30       1.0  0.01164  0.45071  0.76459  1.0000
  H   H31       1.0  0.83157  0.67742  0.30123  1.0000
  H   H32       1.0  0.16843  0.32258  0.69877  1.0000
  C   C1        1.0  0.79544  0.61280  0.04039  1.0000
  C   C2        1.0  0.20454  0.38721  0.95961  1.0000
  C   C3        1.0  0.71269  0.44423  0.18982  1.0000
  C   C4        1.0  0.28731  0.55577  0.81018  1.0000
  C   C5        1.0  0.53066  0.85668  0.71212  1.0000
  C   C6        1.0  0.46935  0.14332  0.28787  1.0000
  C   C7        1.0  0.62864  0.86998  0.80484  1.0000
  C   C8        1.0  0.37137  0.13002  0.19515  1.0000
  C   C9        1.0  0.68232  0.03027  0.87332  1.0000
  C   C10       1.0  0.31768  0.96973  0.12667  1.0000
  C   C11       1.0  0.63815  0.17707  0.84759  1.0000
  C   C12       1.0  0.36185  0.82293  0.15241  1.0000
  C   C13       1.0  0.53775  0.15068  0.75265  1.0000
  C   C14       1.0  0.46225  0.84932  0.24735  1.0000
  C   C15       1.0  0.69312  0.35345  0.90544  1.0000
  C   C16       1.0  0.30688  0.64655  0.09457  1.0000
  C   C17       1.0  0.74316  0.42454  0.00681  1.0000
  C   C18       1.0  0.25683  0.57546  0.99319  1.0000
  C   C19       1.0  0.74535  0.32932  0.08518  1.0000
  C   C20       1.0  0.25465  0.67068  0.91482  1.0000
  C   C21       1.0  0.13214  0.22346  0.45282  1.0000
  C   C22       1.0  0.86787  0.77654  0.54718  1.0000
  C   C23       1.0  0.03347  0.27939  0.38103  1.0000
  C   C24       1.0  0.96654  0.72061  0.61897  1.0000
  C   C25       1.0  0.96115  0.16037  0.29073  1.0000
  C   C26       1.0  0.03886  0.83963  0.70928  1.0000
  C   C27       1.0  0.97948  0.98590  0.27434  1.0000
  C   C28       1.0  0.02052  0.01410  0.72565  1.0000
  C   C29       1.0  0.07943  0.94077  0.35171  1.0000
  C   C30       1.0  0.92057  0.05923  0.64828  1.0000
  C   C31       1.0  0.90626  0.86771  0.17670  1.0000
  C   C32       1.0  0.09374  0.13229  0.82330  1.0000
  C   C33       1.0  0.85704  0.69791  0.15106  1.0000
  C   C34       1.0  0.14295  0.30209  0.84894  1.0000
  C   C35       1.0  0.85546  0.59535  0.22545  1.0000
  C   C36       1.0  0.14454  0.40465  0.77455  1.0000
  N   N1        1.0  0.34757  0.60669  0.39320  1.0000
  N   N2        1.0  0.65244  0.39331  0.60680  1.0000
  N   N3        1.0  0.48446  0.99613  0.68713  1.0000
  N   N4        1.0  0.51554  0.00387  0.31286  1.0000
  N   N5        1.0  0.15643  0.05756  0.43753  1.0000
  N   N6        1.0  0.84357  0.94244  0.56247  1.0000
  O   O1        1.0  0.28855  0.51653  0.30355  1.0000
  O   O2        1.0  0.71146  0.48348  0.69645  1.0000
  O   O3        1.0  0.23703  0.66428  0.45814  1.0000
  O   O4        1.0  0.76298  0.33571  0.54187  1.0000
  O   O5        1.0  0.51466  0.64256  0.41809  1.0000
  O   O6        1.0  0.48535  0.35744  0.58191  1.0000
  O   O7        1.0  0.79183  0.69608  0.97779  1.0000
  O   O8        1.0  0.20813  0.30392  0.02221  1.0000
