data_image0
_chemical_formula_structural       Cu4H4C8N16O8
_chemical_formula_sum              "Cu4 H4 C8 N16 O8"
_cell_length_a       4.85756
_cell_length_b       9.40136
_cell_length_c       10.4296
_cell_angle_alpha    90.0001
_cell_angle_beta     90.0022
_cell_angle_gamma    89.9997

_space_group_name_H-M_alt    "P 1"
_space_group_IT_number       1

loop_
  _space_group_symop_operation_xyz
  'x, y, z'

loop_
  _atom_site_type_symbol
  _atom_site_label
  _atom_site_symmetry_multiplicity
  _atom_site_fract_x
  _atom_site_fract_y
  _atom_site_fract_z
  _atom_site_occupancy
  Cu  Cu1       1.0  0.14559  0.85358  0.59128  1.0000
  Cu  Cu2       1.0  0.35441  0.14640  0.09129  1.0000
  Cu  Cu3       1.0  0.85441  0.35358  0.90871  1.0000
  Cu  Cu4       1.0  0.64557  0.64641  0.40871  1.0000
  H   H1        1.0  0.81098  0.13195  0.68233  1.0000
  H   H2        1.0  0.68900  0.86805  0.18236  1.0000
  H   H3        1.0  0.18901  0.63196  0.81766  1.0000
  H   H4        1.0  0.31100  0.36804  0.31764  1.0000
  C   C1        1.0  0.28752  0.99271  0.84533  1.0000
  C   C2        1.0  0.21249  0.00729  0.34533  1.0000
  C   C3        1.0  0.71247  0.49272  0.65468  1.0000
  C   C4        1.0  0.78752  0.50728  0.15467  1.0000
  C   C5        1.0  0.96422  0.09902  0.75160  1.0000
  C   C6        1.0  0.53576  0.90098  0.25161  1.0000
  C   C7        1.0  0.03577  0.59902  0.74840  1.0000
  C   C8        1.0  0.46424  0.40098  0.24839  1.0000
  N   N1        1.0  0.00871  0.16885  0.86253  1.0000
  N   N2        1.0  0.49128  0.83115  0.36254  1.0000
  N   N3        1.0  0.99128  0.66885  0.63746  1.0000
  N   N4        1.0  0.50872  0.33115  0.13746  1.0000
  N   N5        1.0  0.21633  0.10012  0.92415  1.0000
  N   N6        1.0  0.28367  0.89988  0.42416  1.0000
  N   N7        1.0  0.78366  0.60011  0.57585  1.0000
  N   N8        1.0  0.71633  0.39988  0.07584  1.0000
  N   N9        1.0  0.13436  0.98748  0.73681  1.0000
  N   N10       1.0  0.36565  0.01253  0.23683  1.0000
  N   N11       1.0  0.86565  0.48748  0.76319  1.0000
  N   N12       1.0  0.63436  0.51252  0.26317  1.0000
  N   N13       1.0  0.50091  0.89564  0.87341  1.0000
  N   N14       1.0  0.99911  0.10437  0.37341  1.0000
  N   N15       1.0  0.49909  0.39564  0.62659  1.0000
  N   N16       1.0  0.00089  0.60436  0.12659  1.0000
  O   O1        1.0  0.64373  0.91743  0.97144  1.0000
  O   O2        1.0  0.85629  0.08260  0.47142  1.0000
  O   O3        1.0  0.35626  0.41741  0.52857  1.0000
  O   O4        1.0  0.14371  0.58256  0.02858  1.0000
  O   O5        1.0  0.53660  0.79406  0.79755  1.0000
  O   O6        1.0  0.96341  0.20595  0.29753  1.0000
  O   O7        1.0  0.46341  0.29406  0.70246  1.0000
  O   O8        1.0  0.03660  0.70594  0.20246  1.0000
