data_image0
_chemical_formula_structural       Ag8H40C40N24O20
_chemical_formula_sum              "Ag8 H40 C40 N24 O20"
_cell_length_a       7.05222
_cell_length_b       12.6328
_cell_length_c       15.1729
_cell_angle_alpha    93.3903
_cell_angle_beta     90.0001
_cell_angle_gamma    90.0002

_space_group_name_H-M_alt    "P 1"
_space_group_IT_number       1

loop_
  _space_group_symop_operation_xyz
  'x, y, z'

loop_
  _atom_site_type_symbol
  _atom_site_label
  _atom_site_symmetry_multiplicity
  _atom_site_fract_x
  _atom_site_fract_y
  _atom_site_fract_z
  _atom_site_occupancy
  Ag  Ag1       1.0  0.26303  0.65254  0.56913  1.0000
  Ag  Ag2       1.0  0.76303  0.34746  0.93087  1.0000
  Ag  Ag3       1.0  0.73697  0.34746  0.43087  1.0000
  Ag  Ag4       1.0  0.23697  0.65254  0.06913  1.0000
  Ag  Ag5       1.0  0.23927  0.85972  0.48252  1.0000
  Ag  Ag6       1.0  0.73927  0.14029  0.01748  1.0000
  Ag  Ag7       1.0  0.76073  0.14028  0.51748  1.0000
  Ag  Ag8       1.0  0.26073  0.85972  0.98252  1.0000
  H   H1        1.0  0.10919  0.61184  0.41476  1.0000
  H   H2        1.0  0.60918  0.38816  0.08524  1.0000
  H   H3        1.0  0.89082  0.38816  0.58524  1.0000
  H   H4        1.0  0.39082  0.61184  0.91476  1.0000
  H   H5        1.0  0.88049  0.59391  0.36102  1.0000
  H   H6        1.0  0.38048  0.40609  0.13898  1.0000
  H   H7        1.0  0.11951  0.40609  0.63898  1.0000
  H   H8        1.0  0.61951  0.59391  0.86102  1.0000
  H   H9        1.0  0.08619  0.90235  0.64224  1.0000
  H   H10       1.0  0.58619  0.09765  0.85776  1.0000
  H   H11       1.0  0.91381  0.09765  0.35776  1.0000
  H   H12       1.0  0.41381  0.90235  0.14224  1.0000
  H   H13       1.0  0.86309  0.92286  0.69765  1.0000
  H   H14       1.0  0.36309  0.07714  0.80235  1.0000
  H   H15       1.0  0.13691  0.07714  0.30235  1.0000
  H   H16       1.0  0.63691  0.92286  0.19765  1.0000
  H   H17       1.0  0.93765  0.64886  0.70698  1.0000
  H   H18       1.0  0.43764  0.35114  0.79302  1.0000
  H   H19       1.0  0.06236  0.35114  0.29302  1.0000
  H   H20       1.0  0.56235  0.64887  0.20698  1.0000
  H   H21       1.0  0.58442  0.64022  0.70544  1.0000
  H   H22       1.0  0.08442  0.35978  0.79456  1.0000
  H   H23       1.0  0.41559  0.35978  0.29456  1.0000
  H   H24       1.0  0.91559  0.64022  0.20544  1.0000
  H   H25       1.0  0.55796  0.86532  0.35307  1.0000
  H   H26       1.0  0.05796  0.13467  0.14693  1.0000
  H   H27       1.0  0.44203  0.13468  0.64693  1.0000
  H   H28       1.0  0.94204  0.86533  0.85307  1.0000
  H   H29       1.0  0.91779  0.86345  0.35181  1.0000
  H   H30       1.0  0.41779  0.13656  0.14819  1.0000
  H   H31       1.0  0.08221  0.13655  0.64819  1.0000
  H   H32       1.0  0.58222  0.86345  0.85181  1.0000
  H   H33       1.0  0.29542  0.72784  0.32026  1.0000
  H   H34       1.0  0.79542  0.27216  0.17974  1.0000
  H   H35       1.0  0.70458  0.27215  0.67974  1.0000
  H   H36       1.0  0.20458  0.72784  0.82026  1.0000
  H   H37       1.0  0.21885  0.81608  0.25512  1.0000
  H   H38       1.0  0.71885  0.18391  0.24488  1.0000
  H   H39       1.0  0.78114  0.18391  0.74489  1.0000
  H   H40       1.0  0.28115  0.81608  0.75512  1.0000
  C   C1        1.0  0.66145  0.61942  0.49078  1.0000
  C   C2        1.0  0.16145  0.38058  0.00922  1.0000
  C   C3        1.0  0.33856  0.38058  0.50922  1.0000
  C   C4        1.0  0.83855  0.61942  0.99078  1.0000
  C   C5        1.0  0.86599  0.62166  0.49088  1.0000
  C   C6        1.0  0.36599  0.37834  0.00912  1.0000
  C   C7        1.0  0.13401  0.37834  0.50912  1.0000
  C   C8        1.0  0.63401  0.62166  0.99088  1.0000
  C   C9        1.0  0.86112  0.64225  0.64457  1.0000
  C   C10       1.0  0.36112  0.35776  0.85543  1.0000
  C   C11       1.0  0.13888  0.35776  0.35543  1.0000
  C   C12       1.0  0.63888  0.64224  0.14457  1.0000
  C   C13       1.0  0.66498  0.63737  0.64435  1.0000
  C   C14       1.0  0.16498  0.36263  0.85565  1.0000
  C   C15       1.0  0.33502  0.36264  0.35565  1.0000
  C   C16       1.0  0.83502  0.63737  0.14435  1.0000
  C   C17       1.0  0.54891  0.60900  0.40485  1.0000
  C   C18       1.0  0.04891  0.39100  0.09514  1.0000
  C   C19       1.0  0.45109  0.39100  0.59515  1.0000
  C   C20       1.0  0.95109  0.60900  0.90485  1.0000
  C   C21       1.0  0.64183  0.87080  0.41339  1.0000
  C   C22       1.0  0.14183  0.12921  0.08661  1.0000
  C   C23       1.0  0.35816  0.12921  0.58661  1.0000
  C   C24       1.0  0.85817  0.87079  0.91339  1.0000
  C   C25       1.0  0.83826  0.86922  0.41356  1.0000
  C   C26       1.0  0.33826  0.13078  0.08643  1.0000
  C   C27       1.0  0.16174  0.13078  0.58643  1.0000
  C   C28       1.0  0.66174  0.86922  0.91356  1.0000
  C   C29       1.0  0.63767  0.88437  0.56734  1.0000
  C   C30       1.0  0.13767  0.11563  0.93266  1.0000
  C   C31       1.0  0.36233  0.11563  0.43266  1.0000
  C   C32       1.0  0.86233  0.88437  0.06734  1.0000
  C   C33       1.0  0.84235  0.88948  0.56751  1.0000
  C   C34       1.0  0.34236  0.11052  0.93249  1.0000
  C   C35       1.0  0.15764  0.11051  0.43249  1.0000
  C   C36       1.0  0.65764  0.88948  0.06751  1.0000
  C   C37       1.0  0.52626  0.88593  0.65299  1.0000
  C   C38       1.0  0.02625  0.11407  0.84701  1.0000
  C   C39       1.0  0.47374  0.11407  0.34701  1.0000
  C   C40       1.0  0.97375  0.88593  0.15299  1.0000
  N   N1        1.0  0.56855  0.62892  0.56758  1.0000
  N   N2        1.0  0.06855  0.37107  0.93242  1.0000
  N   N3        1.0  0.43145  0.37108  0.43243  1.0000
  N   N4        1.0  0.93145  0.62892  0.06758  1.0000
  N   N5        1.0  0.96109  0.63662  0.56916  1.0000
  N   N6        1.0  0.46109  0.36338  0.93084  1.0000
  N   N7        1.0  0.03891  0.36337  0.43084  1.0000
  N   N8        1.0  0.53891  0.63662  0.06916  1.0000
  N   N9        1.0  0.96390  0.61180  0.41571  1.0000
  N   N10       1.0  0.46390  0.38820  0.08429  1.0000
  N   N11       1.0  0.03610  0.38819  0.58429  1.0000
  N   N12       1.0  0.53610  0.61180  0.91571  1.0000
  N   N13       1.0  0.54549  0.87464  0.49039  1.0000
  N   N14       1.0  0.04549  0.12536  0.00961  1.0000
  N   N15       1.0  0.45451  0.12536  0.50961  1.0000
  N   N16       1.0  0.95451  0.87464  0.99039  1.0000
  N   N17       1.0  0.93758  0.87610  0.48915  1.0000
  N   N18       1.0  0.43758  0.12390  0.01085  1.0000
  N   N19       1.0  0.06242  0.12390  0.51085  1.0000
  N   N20       1.0  0.56242  0.87610  0.98915  1.0000
  N   N21       1.0  0.94119  0.90347  0.64205  1.0000
  N   N22       1.0  0.44118  0.09652  0.85795  1.0000
  N   N23       1.0  0.05882  0.09652  0.35795  1.0000
  N   N24       1.0  0.55882  0.90347  0.14205  1.0000
  O   O1        1.0  0.37207  0.62942  0.40845  1.0000
  O   O2        1.0  0.87206  0.37058  0.09155  1.0000
  O   O3        1.0  0.62793  0.37058  0.59155  1.0000
  O   O4        1.0  0.12793  0.62942  0.90845  1.0000
  O   O5        1.0  0.63896  0.58116  0.33521  1.0000
  O   O6        1.0  0.13895  0.41884  0.16479  1.0000
  O   O7        1.0  0.36105  0.41884  0.66479  1.0000
  O   O8        1.0  0.86104  0.58116  0.83521  1.0000
  O   O9        1.0  0.35733  0.84794  0.65019  1.0000
  O   O10       1.0  0.85733  0.15206  0.84982  1.0000
  O   O11       1.0  0.64267  0.15206  0.34982  1.0000
  O   O12       1.0  0.14267  0.84794  0.15019  1.0000
  O   O13       1.0  0.60840  0.92307  0.72170  1.0000
  O   O14       1.0  0.10839  0.07693  0.77830  1.0000
  O   O15       1.0  0.39160  0.07693  0.27830  1.0000
  O   O16       1.0  0.89161  0.92308  0.22170  1.0000
  O   O17       1.0  0.27414  0.80372  0.31396  1.0000
  O   O18       1.0  0.77415  0.19628  0.18604  1.0000
  O   O19       1.0  0.72585  0.19628  0.68604  1.0000
  O   O20       1.0  0.22585  0.80372  0.81396  1.0000
