data_image0
_chemical_formula_structural       K4H44C40O44
_chemical_formula_sum              "K4 H44 C40 O44"
_cell_length_a       7.50622
_cell_length_b       9.73208
_cell_length_c       19.3498
_cell_angle_alpha    90.0001
_cell_angle_beta     90.0001
_cell_angle_gamma    111.375

_space_group_name_H-M_alt    "P 1"
_space_group_IT_number       1

loop_
  _space_group_symop_operation_xyz
  'x, y, z'

loop_
  _atom_site_type_symbol
  _atom_site_label
  _atom_site_symmetry_multiplicity
  _atom_site_fract_x
  _atom_site_fract_y
  _atom_site_fract_z
  _atom_site_occupancy
  K   K1        1.0  0.87703  0.54882  0.28892  1.0000
  K   K2        1.0  0.87701  0.04882  0.21108  1.0000
  K   K3        1.0  0.12297  0.45119  0.71108  1.0000
  K   K4        1.0  0.12298  0.95119  0.78892  1.0000
  H   H1        1.0  0.29792  0.06710  0.58221  1.0000
  H   H2        1.0  0.29791  0.56710  0.91779  1.0000
  H   H3        1.0  0.70209  0.93290  0.41779  1.0000
  H   H4        1.0  0.70209  0.43290  0.08221  1.0000
  H   H5        1.0  0.20706  0.69574  0.39838  1.0000
  H   H6        1.0  0.20706  0.19574  0.10162  1.0000
  H   H7        1.0  0.79293  0.30426  0.60162  1.0000
  H   H8        1.0  0.79293  0.80426  0.89838  1.0000
  H   H9        1.0  0.55883  0.25362  0.20436  1.0000
  H   H10       1.0  0.55883  0.75362  0.29564  1.0000
  H   H11       1.0  0.44117  0.74638  0.79563  1.0000
  H   H12       1.0  0.44117  0.24638  0.70436  1.0000
  H   H13       1.0  0.19059  0.40999  0.28236  1.0000
  H   H14       1.0  0.19059  0.90999  0.21764  1.0000
  H   H15       1.0  0.80941  0.59001  0.71764  1.0000
  H   H16       1.0  0.80941  0.09001  0.78236  1.0000
  H   H17       1.0  0.47871  0.74435  0.69201  1.0000
  H   H18       1.0  0.47871  0.24435  0.80799  1.0000
  H   H19       1.0  0.52129  0.25565  0.30799  1.0000
  H   H20       1.0  0.52130  0.75565  0.19201  1.0000
  H   H21       1.0  0.41187  0.33082  0.22375  1.0000
  H   H22       1.0  0.41187  0.83082  0.27625  1.0000
  H   H23       1.0  0.58812  0.66918  0.77625  1.0000
  H   H24       1.0  0.58812  0.16918  0.72375  1.0000
  H   H25       1.0  0.28826  0.41572  0.49454  1.0000
  H   H26       1.0  0.28826  0.91572  0.00545  1.0000
  H   H27       1.0  0.71174  0.58428  0.50546  1.0000
  H   H28       1.0  0.71174  0.08428  0.99455  1.0000
  H   H29       1.0  0.44112  0.56153  0.34538  1.0000
  H   H30       1.0  0.44112  0.06153  0.15462  1.0000
  H   H31       1.0  0.55888  0.43847  0.65462  1.0000
  H   H32       1.0  0.55888  0.93847  0.84538  1.0000
  H   H33       1.0  0.16483  0.38276  0.36254  1.0000
  H   H34       1.0  0.16483  0.88276  0.13746  1.0000
  H   H35       1.0  0.83517  0.61724  0.63746  1.0000
  H   H36       1.0  0.83517  0.11724  0.86254  1.0000
  H   H37       1.0  0.60168  0.66424  0.39615  1.0000
  H   H38       1.0  0.60168  0.16424  0.10385  1.0000
  H   H39       1.0  0.39832  0.33576  0.60385  1.0000
  H   H40       1.0  0.39832  0.83576  0.89615  1.0000
  H   H41       1.0  0.09896  0.10854  0.37276  1.0000
  H   H42       1.0  0.09897  0.60855  0.12724  1.0000
  H   H43       1.0  0.90104  0.89145  0.62724  1.0000
  H   H44       1.0  0.90104  0.39146  0.87276  1.0000
  C   C1        1.0  0.23443  0.01914  0.47483  1.0000
  C   C2        1.0  0.23442  0.51914  0.02517  1.0000
  C   C3        1.0  0.76558  0.98086  0.52517  1.0000
  C   C4        1.0  0.76558  0.48086  0.97483  1.0000
  C   C5        1.0  0.20948  0.91266  0.42153  1.0000
  C   C6        1.0  0.20948  0.41266  0.07847  1.0000
  C   C7        1.0  0.79052  0.08733  0.57847  1.0000
  C   C8        1.0  0.79052  0.58734  0.92153  1.0000
  C   C9        1.0  0.22576  0.77770  0.43874  1.0000
  C   C10       1.0  0.22576  0.27769  0.06126  1.0000
  C   C11       1.0  0.77423  0.22230  0.56126  1.0000
  C   C12       1.0  0.77423  0.72230  0.93874  1.0000
  C   C13       1.0  0.25665  0.74219  0.50632  1.0000
  C   C14       1.0  0.25664  0.24219  0.99368  1.0000
  C   C15       1.0  0.74335  0.25781  0.49368  1.0000
  C   C16       1.0  0.74336  0.75781  0.00632  1.0000
  C   C17       1.0  0.28500  0.84815  0.55856  1.0000
  C   C18       1.0  0.28500  0.34815  0.94144  1.0000
  C   C19       1.0  0.71500  0.15185  0.44144  1.0000
  C   C20       1.0  0.71500  0.65185  0.05857  1.0000
  C   C21       1.0  0.27626  0.98465  0.54185  1.0000
  C   C22       1.0  0.27626  0.48465  0.95815  1.0000
  C   C23       1.0  0.72375  0.01535  0.45815  1.0000
  C   C24       1.0  0.72375  0.51535  0.04185  1.0000
  C   C25       1.0  0.22251  0.17009  0.46777  1.0000
  C   C26       1.0  0.22251  0.67009  0.03223  1.0000
  C   C27       1.0  0.77749  0.82991  0.53223  1.0000
  C   C28       1.0  0.77749  0.32991  0.96777  1.0000
  C   C29       1.0  0.16008  0.92490  0.34661  1.0000
  C   C30       1.0  0.16009  0.42490  0.15339  1.0000
  C   C31       1.0  0.83991  0.07509  0.65339  1.0000
  C   C32       1.0  0.83991  0.57509  0.84661  1.0000
  C   C33       1.0  0.23658  0.58789  0.52453  1.0000
  C   C34       1.0  0.23658  0.08789  0.97546  1.0000
  C   C35       1.0  0.76342  0.41211  0.47547  1.0000
  C   C36       1.0  0.76342  0.91210  0.02454  1.0000
  C   C37       1.0  0.31831  0.81486  0.63219  1.0000
  C   C38       1.0  0.31831  0.31486  0.86780  1.0000
  C   C39       1.0  0.68169  0.18515  0.36780  1.0000
  C   C40       1.0  0.68169  0.68515  0.13220  1.0000
  O   O1        1.0  0.28709  0.26231  0.51573  1.0000
  O   O2        1.0  0.28709  0.76231  0.98426  1.0000
  O   O3        1.0  0.71291  0.73769  0.48427  1.0000
  O   O4        1.0  0.71291  0.23769  0.01574  1.0000
  O   O5        1.0  0.14220  0.20264  0.41438  1.0000
  O   O6        1.0  0.14220  0.70264  0.08562  1.0000
  O   O7        1.0  0.85781  0.79736  0.58562  1.0000
  O   O8        1.0  0.85780  0.29736  0.91439  1.0000
  O   O9        1.0  0.19113  0.83983  0.30280  1.0000
  O   O10       1.0  0.19113  0.33983  0.19720  1.0000
  O   O11       1.0  0.80886  0.16017  0.69720  1.0000
  O   O12       1.0  0.80886  0.66017  0.80280  1.0000
  O   O13       1.0  0.07824  0.01503  0.32876  1.0000
  O   O14       1.0  0.07824  0.51503  0.17124  1.0000
  O   O15       1.0  0.92176  0.98497  0.67124  1.0000
  O   O16       1.0  0.92175  0.48497  0.82876  1.0000
  O   O17       1.0  0.30544  0.52117  0.47805  1.0000
  O   O18       1.0  0.30544  0.02117  0.02195  1.0000
  O   O19       1.0  0.69455  0.47883  0.52195  1.0000
  O   O20       1.0  0.69456  0.97883  0.97805  1.0000
  O   O21       1.0  0.15584  0.53016  0.57844  1.0000
  O   O22       1.0  0.15585  0.03016  0.92156  1.0000
  O   O23       1.0  0.84416  0.46984  0.42156  1.0000
  O   O24       1.0  0.84416  0.96984  0.07844  1.0000
  O   O25       1.0  0.21005  0.82056  0.67913  1.0000
  O   O26       1.0  0.21005  0.32056  0.82086  1.0000
  O   O27       1.0  0.78996  0.17945  0.32086  1.0000
  O   O28       1.0  0.78997  0.67946  0.17914  1.0000
  O   O29       1.0  0.47243  0.78130  0.64065  1.0000
  O   O30       1.0  0.47244  0.28130  0.85935  1.0000
  O   O31       1.0  0.52757  0.21870  0.35935  1.0000
  O   O32       1.0  0.52757  0.71870  0.14065  1.0000
  O   O33       1.0  0.20674  0.46117  0.32760  1.0000
  O   O34       1.0  0.20674  0.96117  0.17240  1.0000
  O   O35       1.0  0.79326  0.53883  0.67240  1.0000
  O   O36       1.0  0.79326  0.03883  0.82760  1.0000
  O   O37       1.0  0.57718  0.63259  0.34779  1.0000
  O   O38       1.0  0.57718  0.13259  0.15221  1.0000
  O   O39       1.0  0.42282  0.36741  0.65221  1.0000
  O   O40       1.0  0.42282  0.86741  0.84779  1.0000
  O   O41       1.0  0.53278  0.32198  0.23943  1.0000
  O   O42       1.0  0.53278  0.82198  0.26057  1.0000
  O   O43       1.0  0.46722  0.67802  0.76057  1.0000
  O   O44       1.0  0.46722  0.17802  0.73943  1.0000
