data_image0
_chemical_formula_structural       ZnH16C8N10O6
_chemical_formula_sum              "Zn1 H16 C8 N10 O6"
_cell_length_a       6.37474
_cell_length_b       7.77273
_cell_length_c       8.39115
_cell_angle_alpha    113.536
_cell_angle_beta     106.273
_cell_angle_gamma    93.5357

_space_group_name_H-M_alt    "P 1"
_space_group_IT_number       1

loop_
  _space_group_symop_operation_xyz
  'x, y, z'

loop_
  _atom_site_type_symbol
  _atom_site_label
  _atom_site_symmetry_multiplicity
  _atom_site_fract_x
  _atom_site_fract_y
  _atom_site_fract_z
  _atom_site_occupancy
  Zn  Zn1       1.0  0.50000  0.50000  0.00000  1.0000
  H   H1        1.0  0.29691  0.81769  0.10410  1.0000
  H   H2        1.0  0.70309  0.18231  0.89590  1.0000
  H   H3        1.0  0.17490  0.64694  0.12758  1.0000
  H   H4        1.0  0.82510  0.35306  0.87241  1.0000
  H   H5        1.0  0.46574  0.68495  0.42679  1.0000
  H   H6        1.0  0.53426  0.31505  0.57321  1.0000
  H   H7        1.0  0.66045  0.79647  0.65041  1.0000
  H   H8        1.0  0.33954  0.20353  0.34959  1.0000
  H   H9        1.0  0.27179  0.74502  0.75855  1.0000
  H   H10       1.0  0.72820  0.25498  0.24145  1.0000
  H   H11       1.0  0.01237  0.76880  0.79628  1.0000
  H   H12       1.0  0.98764  0.23120  0.20373  1.0000
  H   H13       1.0  0.03859  0.08202  0.76702  1.0000
  H   H14       1.0  0.96141  0.91798  0.23299  1.0000
  H   H15       1.0  0.30468  0.06103  0.74622  1.0000
  H   H16       1.0  0.69532  0.93897  0.25377  1.0000
  C   C1        1.0  0.78879  0.68443  0.43706  1.0000
  C   C2        1.0  0.21122  0.31556  0.56293  1.0000
  C   C3        1.0  0.12447  0.80877  0.73346  1.0000
  C   C4        1.0  0.87553  0.19123  0.26655  1.0000
  C   C5        1.0  0.18766  0.02472  0.80742  1.0000
  C   C6        1.0  0.81234  0.97527  0.19257  1.0000
  C   C7        1.0  0.28844  0.13109  0.01623  1.0000
  C   C8        1.0  0.71157  0.86891  0.98377  1.0000
  N   N1        1.0  0.62782  0.72066  0.50970  1.0000
  N   N2        1.0  0.37215  0.27933  0.49031  1.0000
  N   N3        1.0  0.01062  0.72100  0.53491  1.0000
  N   N4        1.0  0.98938  0.27901  0.46509  1.0000
  N   N5        1.0  0.12632  0.67061  0.41495  1.0000
  N   N6        1.0  0.87368  0.32939  0.58505  1.0000
  N   N7        1.0  0.98207  0.60253  0.25122  1.0000
  N   N8        1.0  0.01793  0.39747  0.74878  1.0000
  N   N9        1.0  0.77184  0.60658  0.25666  1.0000
  N   N10       1.0  0.22815  0.39342  0.74333  1.0000
  O   O1        1.0  0.36454  0.31024  0.08859  1.0000
  O   O2        1.0  0.63547  0.68976  0.91141  1.0000
  O   O3        1.0  0.28788  0.03952  0.11289  1.0000
  O   O4        1.0  0.71213  0.96048  0.88711  1.0000
  O   O5        1.0  0.31834  0.70308  0.12815  1.0000
  O   O6        1.0  0.68166  0.29692  0.87185  1.0000
