data_image0
_chemical_formula_structural       Ag2H8C2N8
_chemical_formula_sum              "Ag2 H8 C2 N8"
_cell_length_a       5.68149
_cell_length_b       5.88947
_cell_length_c       6.46961
_cell_angle_alpha    68.6219
_cell_angle_beta     73.7579
_cell_angle_gamma    86.4113

_space_group_name_H-M_alt    "P 1"
_space_group_IT_number       1

loop_
  _space_group_symop_operation_xyz
  'x, y, z'

loop_
  _atom_site_type_symbol
  _atom_site_label
  _atom_site_symmetry_multiplicity
  _atom_site_fract_x
  _atom_site_fract_y
  _atom_site_fract_z
  _atom_site_occupancy
  Ag  Ag1       1.0  0.06231  0.07935  0.74244  1.0000
  Ag  Ag2       1.0  0.93768  0.92066  0.25756  1.0000
  H   H1        1.0  0.03448  0.54616  0.71783  1.0000
  H   H2        1.0  0.96553  0.45384  0.28217  1.0000
  H   H3        1.0  0.23527  0.42427  0.85705  1.0000
  H   H4        1.0  0.76474  0.57573  0.14294  1.0000
  H   H5        1.0  0.42661  0.75257  0.50722  1.0000
  H   H6        1.0  0.57340  0.24743  0.49277  1.0000
  H   H7        1.0  0.32225  0.60614  0.35122  1.0000
  H   H8        1.0  0.67776  0.39386  0.64878  1.0000
  C   C1        1.0  0.38475  0.57269  0.50590  1.0000
  C   C2        1.0  0.61526  0.42731  0.49410  1.0000
  N   N1        1.0  0.81188  0.81773  0.73663  1.0000
  N   N2        1.0  0.18812  0.18227  0.26337  1.0000
  N   N3        1.0  0.59478  0.80569  0.82531  1.0000
  N   N4        1.0  0.40521  0.19431  0.17470  1.0000
  N   N5        1.0  0.38130  0.78651  0.90951  1.0000
  N   N6        1.0  0.61867  0.21349  0.09050  1.0000
  N   N7        1.0  0.18606  0.43999  0.71184  1.0000
  N   N8        1.0  0.81395  0.56001  0.28816  1.0000
