data_image0
_chemical_formula_structural       Ni2H32C28N4O12
_chemical_formula_sum              "Ni2 H32 C28 N4 O12"
_cell_length_a       7.20906
_cell_length_b       9.06641
_cell_length_c       11.6585
_cell_angle_alpha    72.0572
_cell_angle_beta     83.253
_cell_angle_gamma    75.6172

_space_group_name_H-M_alt    "P 1"
_space_group_IT_number       1

loop_
  _space_group_symop_operation_xyz
  'x, y, z'

loop_
  _atom_site_type_symbol
  _atom_site_label
  _atom_site_symmetry_multiplicity
  _atom_site_fract_x
  _atom_site_fract_y
  _atom_site_fract_z
  _atom_site_occupancy
  Ni  Ni1       1.0  1.00000  0.50000  0.50000  1.0000
  Ni  Ni2       1.0  0.50000  0.50000  1.00000  1.0000
  H   H1        1.0  0.06458  0.64971  0.26275  1.0000
  H   H2        1.0  0.93541  0.35029  0.73726  1.0000
  H   H3        1.0  0.91186  0.53240  0.29098  1.0000
  H   H4        1.0  0.08814  0.46760  0.70903  1.0000
  H   H5        1.0  0.32624  0.37404  0.38348  1.0000
  H   H6        1.0  0.67376  0.62595  0.61652  1.0000
  H   H7        1.0  0.35132  0.36088  0.52792  1.0000
  H   H8        1.0  0.64868  0.63911  0.47208  1.0000
  H   H9        1.0  0.22891  0.86083  0.75088  1.0000
  H   H10       1.0  0.77109  0.13916  0.24913  1.0000
  H   H11       1.0  0.25134  0.14399  0.69387  1.0000
  H   H12       1.0  0.74865  0.85601  0.30613  1.0000
  H   H13       1.0  0.29054  0.16705  0.31874  1.0000
  H   H14       1.0  0.70947  0.83295  0.68126  1.0000
  H   H15       1.0  0.25195  0.88640  0.37527  1.0000
  H   H16       1.0  0.74806  0.11359  0.62474  1.0000
  H   H17       1.0  0.42888  0.59737  0.76252  1.0000
  H   H18       1.0  0.57112  0.40263  0.23747  1.0000
  H   H19       1.0  0.62720  0.46699  0.79920  1.0000
  H   H20       1.0  0.37280  0.53301  0.20080  1.0000
  H   H21       1.0  0.09559  0.97348  0.20489  1.0000
  H   H22       1.0  0.90442  0.02652  0.79511  1.0000
  H   H23       1.0  0.15195  0.49886  0.03526  1.0000
  H   H24       1.0  0.84805  0.50114  0.96474  1.0000
  H   H25       1.0  0.21135  0.51956  0.88911  1.0000
  H   H26       1.0  0.78866  0.48044  0.11089  1.0000
  H   H27       1.0  0.38310  0.99198  0.85885  1.0000
  H   H28       1.0  0.61689  0.00803  0.14114  1.0000
  H   H29       1.0  0.08137  0.25996  0.16931  1.0000
  H   H30       1.0  0.91863  0.74005  0.83069  1.0000
  H   H31       1.0  0.36706  0.28041  0.81982  1.0000
  H   H32       1.0  0.63294  0.71959  0.18018  1.0000
  C   C1        1.0  0.23973  0.92828  0.65608  1.0000
  C   C2        1.0  0.76027  0.07172  0.34392  1.0000
  C   C3        1.0  0.23478  0.85656  0.56600  1.0000
  C   C4        1.0  0.76522  0.14344  0.43400  1.0000
  C   C5        1.0  0.25559  0.08518  0.62502  1.0000
  C   C6        1.0  0.74441  0.91481  0.37498  1.0000
  C   C7        1.0  0.27166  0.10015  0.41294  1.0000
  C   C8        1.0  0.72835  0.89984  0.58706  1.0000
  C   C9        1.0  0.27000  0.17255  0.50335  1.0000
  C   C10       1.0  0.73000  0.82745  0.49665  1.0000
  C   C11       1.0  0.25295  0.94395  0.44443  1.0000
  C   C12       1.0  0.74706  0.05605  0.55557  1.0000
  C   C13       1.0  0.19889  0.69450  0.59645  1.0000
  C   C14       1.0  0.80111  0.30550  0.40355  1.0000
  C   C15       1.0  0.24140  0.96388  0.03416  1.0000
  C   C16       1.0  0.75860  0.03612  0.96584  1.0000
  C   C17       1.0  0.15482  0.04119  0.12059  1.0000
  C   C18       1.0  0.84519  0.95881  0.87941  1.0000
  C   C19       1.0  0.31239  0.05300  0.92464  1.0000
  C   C20       1.0  0.68761  0.94700  0.07536  1.0000
  C   C21       1.0  0.14780  0.20199  0.10056  1.0000
  C   C22       1.0  0.85220  0.79801  0.89944  1.0000
  C   C23       1.0  0.22783  0.28833  0.99294  1.0000
  C   C24       1.0  0.77217  0.71168  0.00706  1.0000
  C   C25       1.0  0.30524  0.21359  0.90360  1.0000
  C   C26       1.0  0.69476  0.78641  0.09640  1.0000
  C   C27       1.0  0.27897  0.78724  0.06407  1.0000
  C   C28       1.0  0.72103  0.21276  0.93593  1.0000
  N   N1        1.0  0.27549  0.33489  0.47103  1.0000
  N   N2        1.0  0.72451  0.66510  0.52897  1.0000
  N   N3        1.0  0.23987  0.44839  0.97569  1.0000
  N   N4        1.0  0.76013  0.55162  0.02431  1.0000
  O   O1        1.0  0.96058  0.61019  0.31810  1.0000
  O   O2        1.0  0.03942  0.38981  0.68191  1.0000
  O   O3        1.0  0.17053  0.64831  0.50855  1.0000
  O   O4        1.0  0.82946  0.35169  0.49145  1.0000
  O   O5        1.0  0.19596  0.60966  0.70842  1.0000
  O   O6        1.0  0.80404  0.39034  0.29158  1.0000
  O   O7        1.0  0.55639  0.58023  0.79456  1.0000
  O   O8        1.0  0.44362  0.41977  0.20544  1.0000
  O   O9        1.0  0.35334  0.72360  0.98022  1.0000
  O   O10       1.0  0.64667  0.27641  0.01977  1.0000
  O   O11       1.0  0.24720  0.70802  0.17308  1.0000
  O   O12       1.0  0.75279  0.29199  0.82692  1.0000
