data_image0
_chemical_formula_structural       ZnH20C27N6O12
_chemical_formula_sum              "Zn1 H20 C27 N6 O12"
_cell_length_a       5.29315
_cell_length_b       11.0457
_cell_length_c       12.5266
_cell_angle_alpha    112.649
_cell_angle_beta     102.163
_cell_angle_gamma    90.0187

_space_group_name_H-M_alt    "P 1"
_space_group_IT_number       1

loop_
  _space_group_symop_operation_xyz
  'x, y, z'

loop_
  _atom_site_type_symbol
  _atom_site_label
  _atom_site_symmetry_multiplicity
  _atom_site_fract_x
  _atom_site_fract_y
  _atom_site_fract_z
  _atom_site_occupancy
  Zn  Zn1       1.0  0.86815  0.49997  0.99997  1.0000
  H   H1        1.0  0.08277  0.74431  0.91240  1.0000
  H   H2        1.0  0.17014  0.25556  0.08760  1.0000
  H   H3        1.0  0.36694  0.56172  0.87466  1.0000
  H   H4        1.0  0.49205  0.43814  0.12514  1.0000
  H   H5        1.0  0.92867  0.77397  0.17703  1.0000
  H   H6        1.0  0.75243  0.22570  0.82296  1.0000
  H   H7        1.0  0.67238  0.96868  0.22654  1.0000
  H   H8        1.0  0.44663  0.03096  0.77357  1.0000
  H   H9        1.0  0.33625  0.08180  0.14251  1.0000
  H   H10       1.0  0.19318  0.91798  0.85742  1.0000
  H   H11       1.0  0.10397  0.99460  0.17340  1.0000
  H   H12       1.0  0.93056  0.00559  0.82698  1.0000
  H   H13       1.0  0.88276  0.08573  0.03615  1.0000
  H   H14       1.0  0.84665  0.91423  0.96421  1.0000
  H   H15       1.0  0.65018  0.42620  0.54656  1.0000
  H   H16       1.0  0.10311  0.57400  0.45342  1.0000
  H   H17       1.0  0.13670  0.16762  0.33952  1.0000
  H   H18       1.0  0.79664  0.83246  0.66047  1.0000
  H   H19       1.0  0.27453  0.26618  0.71689  1.0000
  H   H20       1.0  0.55734  0.73415  0.28305  1.0000
  C   C1        1.0  0.26803  0.75669  0.97484  1.0000
  C   C2        1.0  0.29339  0.24307  0.02523  1.0000
  C   C3        1.0  0.42460  0.65280  0.95260  1.0000
  C   C4        1.0  0.47211  0.34699  0.04734  1.0000
  C   C5        1.0  0.74031  0.77230  0.12089  1.0000
  C   C6        1.0  0.61995  0.22738  0.87908  1.0000
  C   C7        1.0  0.59607  0.88025  0.14733  1.0000
  C   C8        1.0  0.44920  0.11942  0.85271  1.0000
  C   C9        1.0  0.35327  0.87488  0.07329  1.0000
  C   C10       1.0  0.28029  0.12488  0.92680  1.0000
  C   C11       1.0  0.19850  0.99303  0.10249  1.0000
  C   C12       1.0  0.09603  0.00688  0.89768  1.0000
  C   C13       1.0  0.99067  0.99996  0.00015  1.0000
  C   C14       1.0  0.86460  0.42317  0.75812  1.0000
  C   C15       1.0  0.10614  0.57685  0.24185  1.0000
  C   C16       1.0  0.95697  0.35601  0.64462  1.0000
  C   C17       1.0  0.31189  0.64426  0.35534  1.0000
  C   C18       1.0  0.81517  0.36723  0.54170  1.0000
  C   C19       1.0  0.27299  0.63295  0.45826  1.0000
  C   C20       1.0  0.88186  0.29916  0.43379  1.0000
  C   C21       1.0  0.44746  0.70102  0.56617  1.0000
  C   C22       1.0  0.08792  0.22076  0.42438  1.0000
  C   C23       1.0  0.66303  0.77942  0.57560  1.0000
  C   C24       1.0  0.22519  0.21094  0.52784  1.0000
  C   C25       1.0  0.69682  0.78932  0.47214  1.0000
  C   C26       1.0  0.16489  0.27732  0.63802  1.0000
  C   C27       1.0  0.52646  0.72297  0.36194  1.0000
  N   N1        1.0  0.65700  0.65952  0.02441  1.0000
  N   N2        1.0  0.63289  0.34020  0.97551  1.0000
  N   N3        1.0  0.71708  0.29983  0.32373  1.0000
  N   N4        1.0  0.39272  0.70028  0.67622  1.0000
  N   N5        1.0  0.43687  0.12399  0.51733  1.0000
  N   N6        1.0  0.91906  0.87623  0.48256  1.0000
  O   O1        1.0  0.01394  0.42209  0.85426  1.0000
  O   O2        1.0  0.15929  0.57795  0.14567  1.0000
  O   O3        1.0  0.65204  0.47156  0.75144  1.0000
  O   O4        1.0  0.90048  0.52827  0.24861  1.0000
  O   O5        1.0  0.48295  0.06702  0.41744  1.0000
  O   O6        1.0  0.06493  0.93325  0.58240  1.0000
  O   O7        1.0  0.55904  0.11242  0.60823  1.0000
  O   O8        1.0  0.95042  0.88767  0.39156  1.0000
  O   O9        1.0  0.77990  0.23498  0.22922  1.0000
  O   O10       1.0  0.55041  0.76484  0.77064  1.0000
  O   O11       1.0  0.52058  0.36093  0.33143  1.0000
  O   O12       1.0  0.18816  0.63949  0.66868  1.0000
