data_image0
_chemical_formula_structural       KH24AuC14S2N2O6
_chemical_formula_sum              "K1 H24 Au1 C14 S2 N2 O6"
_cell_length_a       7.2075
_cell_length_b       8.01703
_cell_length_c       10.2657
_cell_angle_alpha    75.1153
_cell_angle_beta     70.442
_cell_angle_gamma    72.375

_space_group_name_H-M_alt    "P 1"
_space_group_IT_number       1

loop_
  _space_group_symop_operation_xyz
  'x, y, z'

loop_
  _atom_site_type_symbol
  _atom_site_label
  _atom_site_symmetry_multiplicity
  _atom_site_fract_x
  _atom_site_fract_y
  _atom_site_fract_z
  _atom_site_occupancy
  K   K1        1.0  0.00002  0.99999  1.00000  1.0000
  H   H1        1.0  0.80354  0.22697  0.58718  1.0000
  H   H2        1.0  0.19647  0.77302  0.41282  1.0000
  H   H3        1.0  0.04351  0.09732  0.61342  1.0000
  H   H4        1.0  0.95650  0.90267  0.38658  1.0000
  H   H5        1.0  0.96937  0.43335  0.60354  1.0000
  H   H6        1.0  0.03064  0.56665  0.39646  1.0000
  H   H7        1.0  0.78144  0.40664  0.76766  1.0000
  H   H8        1.0  0.21856  0.59336  0.23234  1.0000
  H   H9        1.0  0.97531  0.49442  0.87753  1.0000
  H   H10       1.0  0.02469  0.50557  0.12247  1.0000
  H   H11       1.0  0.16812  0.51905  0.71533  1.0000
  H   H12       1.0  0.83188  0.48094  0.28467  1.0000
  H   H13       1.0  0.41684  0.27318  0.82268  1.0000
  H   H14       1.0  0.58316  0.72681  0.17733  1.0000
  H   H15       1.0  0.31428  0.46542  0.90590  1.0000
  H   H16       1.0  0.68573  0.53458  0.09410  1.0000
  H   H17       1.0  0.35470  0.30394  0.12974  1.0000
  H   H18       1.0  0.64530  0.69606  0.87026  1.0000
  H   H19       1.0  0.47833  0.10899  0.05419  1.0000
  H   H20       1.0  0.52167  0.89101  0.94580  1.0000
  H   H21       1.0  0.67898  0.95394  0.68505  1.0000
  H   H22       1.0  0.32103  0.04606  0.31495  1.0000
  H   H23       1.0  0.92344  0.83985  0.71051  1.0000
  H   H24       1.0  0.07657  0.16014  0.28949  1.0000
  Au  Au1       1.0  0.49999  0.50001  0.50000  1.0000
  C   C1        1.0  0.60039  0.21671  0.32004  1.0000
  C   C2        1.0  0.39958  0.78331  0.67997  1.0000
  C   C3        1.0  0.89502  0.17975  0.66302  1.0000
  C   C4        1.0  0.10498  0.82025  0.33698  1.0000
  C   C5        1.0  0.92515  0.33777  0.70046  1.0000
  C   C6        1.0  0.07486  0.66223  0.29954  1.0000
  C   C7        1.0  0.11576  0.42283  0.81014  1.0000
  C   C8        1.0  0.88425  0.57716  0.18986  1.0000
  C   C9        1.0  0.27721  0.35142  0.88645  1.0000
  C   C10       1.0  0.72279  0.64858  0.11355  1.0000
  C   C11       1.0  0.32866  0.18743  0.10579  1.0000
  C   C12       1.0  0.67134  0.81257  0.89421  1.0000
  C   C13       1.0  0.77195  0.91933  0.75889  1.0000
  C   C14       1.0  0.22805  0.08067  0.24111  1.0000
  S   S1        1.0  0.44110  0.24172  0.47824  1.0000
  S   S2        1.0  0.55888  0.75831  0.52175  1.0000
  N   N1        1.0  0.70840  0.19178  0.20821  1.0000
  N   N2        1.0  0.29160  0.80821  0.79178  1.0000
  O   O1        1.0  0.79279  0.07738  0.78747  1.0000
  O   O2        1.0  0.20722  0.92261  0.21252  1.0000
  O   O3        1.0  0.07973  0.27920  0.77110  1.0000
  O   O4        1.0  0.92027  0.72080  0.22890  1.0000
  O   O5        1.0  0.19872  0.24300  0.01608  1.0000
  O   O6        1.0  0.80128  0.75700  0.98393  1.0000
