data_image0
_chemical_formula_structural       Na4H24C24S4N4O12
_chemical_formula_sum              "Na4 H24 C24 S4 N4 O12"
_cell_length_a       4.89386
_cell_length_b       11.3365
_cell_length_c       14.0602
_cell_angle_alpha    97.8427
_cell_angle_beta     90.0003
_cell_angle_gamma    89.9995

_space_group_name_H-M_alt    "P 1"
_space_group_IT_number       1

loop_
  _space_group_symop_operation_xyz
  'x, y, z'

loop_
  _atom_site_type_symbol
  _atom_site_label
  _atom_site_symmetry_multiplicity
  _atom_site_fract_x
  _atom_site_fract_y
  _atom_site_fract_z
  _atom_site_occupancy
  Na  Na1       1.0  0.98507  0.13344  0.55347  1.0000
  Na  Na2       1.0  0.48507  0.36656  0.44653  1.0000
  Na  Na3       1.0  0.01496  0.86656  0.44654  1.0000
  Na  Na4       1.0  0.51495  0.63344  0.55346  1.0000
  H   H1        1.0  0.70318  0.17824  0.85685  1.0000
  H   H2        1.0  0.20318  0.32176  0.14315  1.0000
  H   H3        1.0  0.29680  0.82177  0.14315  1.0000
  H   H4        1.0  0.79680  0.67823  0.85685  1.0000
  H   H5        1.0  0.99544  0.27552  0.98858  1.0000
  H   H6        1.0  0.49544  0.22448  0.01142  1.0000
  H   H7        1.0  0.00455  0.72448  0.01142  1.0000
  H   H8        1.0  0.50454  0.77552  0.98858  1.0000
  H   H9        1.0  0.28687  0.45025  0.96412  1.0000
  H   H10       1.0  0.78687  0.04975  0.03588  1.0000
  H   H11       1.0  0.71314  0.54975  0.03588  1.0000
  H   H12       1.0  0.21313  0.95025  0.96412  1.0000
  H   H13       1.0  0.29200  0.52095  0.80322  1.0000
  H   H14       1.0  0.79201  0.97905  0.19678  1.0000
  H   H15       1.0  0.70801  0.47905  0.19678  1.0000
  H   H16       1.0  0.20801  0.02095  0.80322  1.0000
  H   H17       1.0  0.53093  0.17734  0.69692  1.0000
  H   H18       1.0  0.03093  0.32266  0.30308  1.0000
  H   H19       1.0  0.46906  0.82267  0.30308  1.0000
  H   H20       1.0  0.96907  0.67733  0.69692  1.0000
  H   H21       1.0  0.58323  0.29503  0.63780  1.0000
  H   H22       1.0  0.08323  0.20497  0.36220  1.0000
  H   H23       1.0  0.41675  0.70497  0.36220  1.0000
  H   H24       1.0  0.91675  0.79503  0.63781  1.0000
  C   C1        1.0  0.99823  0.39156  0.74222  1.0000
  C   C2        1.0  0.49823  0.10844  0.25778  1.0000
  C   C3        1.0  0.00175  0.60845  0.25778  1.0000
  C   C4        1.0  0.50175  0.89156  0.74222  1.0000
  C   C5        1.0  0.82570  0.29498  0.75574  1.0000
  C   C6        1.0  0.32569  0.20502  0.24426  1.0000
  C   C7        1.0  0.17430  0.70503  0.24426  1.0000
  C   C8        1.0  0.67429  0.79497  0.75574  1.0000
  C   C9        1.0  0.83272  0.25362  0.84568  1.0000
  C   C10       1.0  0.33272  0.24638  0.15432  1.0000
  C   C11       1.0  0.16725  0.74638  0.15431  1.0000
  C   C12       1.0  0.66725  0.75361  0.84569  1.0000
  C   C13       1.0  0.99763  0.30866  0.91933  1.0000
  C   C14       1.0  0.49763  0.19134  0.08067  1.0000
  C   C15       1.0  0.00235  0.69135  0.08067  1.0000
  C   C16       1.0  0.50235  0.80865  0.91933  1.0000
  C   C17       1.0  0.16104  0.40637  0.90590  1.0000
  C   C18       1.0  0.66104  0.09363  0.09410  1.0000
  C   C19       1.0  0.83895  0.59363  0.09410  1.0000
  C   C20       1.0  0.33895  0.90637  0.90590  1.0000
  C   C21       1.0  0.16181  0.44707  0.81677  1.0000
  C   C22       1.0  0.66181  0.05293  0.18323  1.0000
  C   C23       1.0  0.83819  0.55294  0.18323  1.0000
  C   C24       1.0  0.33819  0.94707  0.81677  1.0000
  S   S1        1.0  0.03268  0.43370  0.62590  1.0000
  S   S2        1.0  0.53268  0.06630  0.37410  1.0000
  S   S3        1.0  0.96735  0.56633  0.37411  1.0000
  S   S4        1.0  0.46736  0.93368  0.62589  1.0000
  N   N1        1.0  0.66803  0.23961  0.68111  1.0000
  N   N2        1.0  0.16803  0.26039  0.31889  1.0000
  N   N3        1.0  0.33195  0.76040  0.31889  1.0000
  N   N4        1.0  0.83195  0.73960  0.68112  1.0000
  O   O1        1.0  0.19796  0.54246  0.63873  1.0000
  O   O2        1.0  0.69795  0.95754  0.36127  1.0000
  O   O3        1.0  0.80204  0.45755  0.36128  1.0000
  O   O4        1.0  0.30205  0.04246  0.63872  1.0000
  O   O5        1.0  0.17246  0.33235  0.56771  1.0000
  O   O6        1.0  0.67245  0.16765  0.43229  1.0000
  O   O7        1.0  0.82758  0.66767  0.43230  1.0000
  O   O8        1.0  0.32760  0.83234  0.56770  1.0000
  O   O9        1.0  0.75682  0.45174  0.58820  1.0000
  O   O10       1.0  0.25681  0.04826  0.41180  1.0000
  O   O11       1.0  0.24321  0.54827  0.41179  1.0000
  O   O12       1.0  0.74322  0.95173  0.58822  1.0000
