data_image0
_chemical_formula_structural       Ni2H28C28S4N4O10
_chemical_formula_sum              "Ni2 H28 C28 S4 N4 O10"
_cell_length_a       8.15112
_cell_length_b       10.3124
_cell_length_c       10.6829
_cell_angle_alpha    66.6495
_cell_angle_beta     72.1143
_cell_angle_gamma    86.7909

_space_group_name_H-M_alt    "P 1"
_space_group_IT_number       1

loop_
  _space_group_symop_operation_xyz
  'x, y, z'

loop_
  _atom_site_type_symbol
  _atom_site_label
  _atom_site_symmetry_multiplicity
  _atom_site_fract_x
  _atom_site_fract_y
  _atom_site_fract_z
  _atom_site_occupancy
  Ni  Ni1       1.0  0.50753  0.71121  0.78249  1.0000
  Ni  Ni2       1.0  0.49247  0.28879  0.21751  1.0000
  H   H1        1.0  0.23121  0.58456  0.84480  1.0000
  H   H2        1.0  0.76879  0.41543  0.15520  1.0000
  H   H3        1.0  0.31465  0.47887  0.96444  1.0000
  H   H4        1.0  0.68535  0.52113  0.03556  1.0000
  H   H5        1.0  0.96663  0.92216  0.81170  1.0000
  H   H6        1.0  0.03337  0.07783  0.18831  1.0000
  H   H7        1.0  0.01786  0.74537  0.84574  1.0000
  H   H8        1.0  0.98215  0.25464  0.15426  1.0000
  H   H9        1.0  0.76140  0.03938  0.88180  1.0000
  H   H10       1.0  0.23860  0.96062  0.11820  1.0000
  H   H11       1.0  0.62149  0.22678  0.95559  1.0000
  H   H12       1.0  0.37852  0.77322  0.04441  1.0000
  H   H13       1.0  0.60986  0.00134  0.37736  1.0000
  H   H14       1.0  0.39013  0.99866  0.62265  1.0000
  H   H15       1.0  0.75475  0.80507  0.32337  1.0000
  H   H16       1.0  0.24525  0.19493  0.67664  1.0000
  H   H17       1.0  0.34092  0.90273  0.38458  1.0000
  H   H18       1.0  0.65907  0.09728  0.61541  1.0000
  H   H19       1.0  0.15739  0.93376  0.50348  1.0000
  H   H20       1.0  0.84261  0.06624  0.49651  1.0000
  H   H21       1.0  0.97768  0.58129  0.32542  1.0000
  H   H22       1.0  0.02232  0.41871  0.67458  1.0000
  H   H23       1.0  0.13220  0.40407  0.25006  1.0000
  H   H24       1.0  0.86780  0.59592  0.74994  1.0000
  H   H25       1.0  0.58216  0.50696  0.30811  1.0000
  H   H26       1.0  0.41784  0.49303  0.69189  1.0000
  H   H27       1.0  0.44544  0.69173  0.38695  1.0000
  H   H28       1.0  0.55456  0.30827  0.61304  1.0000
  C   C1        1.0  0.76200  0.77931  0.83775  1.0000
  C   C2        1.0  0.23800  0.22069  0.16225  1.0000
  C   C3        1.0  0.91530  0.81148  0.87600  1.0000
  C   C4        1.0  0.08470  0.18852  0.12401  1.0000
  C   C5        1.0  0.77351  0.90390  0.09598  1.0000
  C   C6        1.0  0.22649  0.09610  0.90402  1.0000
  C   C7        1.0  0.73119  0.02463  0.99339  1.0000
  C   C8        1.0  0.26881  0.97537  0.00661  1.0000
  C   C9        1.0  0.65330  0.13137  0.03374  1.0000
  C   C10       1.0  0.34670  0.86863  0.96626  1.0000
  C   C11       1.0  0.64793  0.00668  0.26832  1.0000
  C   C12       1.0  0.35207  0.99332  0.73168  1.0000
  C   C13       1.0  0.72806  0.89618  0.23733  1.0000
  C   C14       1.0  0.27194  0.10382  0.76267  1.0000
  C   C15       1.0  0.27674  0.74701  0.60414  1.0000
  C   C16       1.0  0.72326  0.25299  0.39585  1.0000
  C   C17       1.0  0.22583  0.84948  0.47511  1.0000
  C   C18       1.0  0.77417  0.15052  0.52489  1.0000
  C   C19       1.0  0.19676  0.65517  0.36331  1.0000
  C   C20       1.0  0.80325  0.34483  0.63668  1.0000
  C   C21       1.0  0.11251  0.57122  0.32199  1.0000
  C   C22       1.0  0.88749  0.42878  0.67801  1.0000
  C   C23       1.0  0.20072  0.47001  0.27852  1.0000
  C   C24       1.0  0.79928  0.52998  0.72149  1.0000
  C   C25       1.0  0.44811  0.52697  0.31289  1.0000
  C   C26       1.0  0.55189  0.47302  0.68711  1.0000
  C   C27       1.0  0.37003  0.63112  0.35759  1.0000
  C   C28       1.0  0.62997  0.36887  0.64241  1.0000
  S   S1        1.0  0.88177  0.76472  0.06340  1.0000
  S   S2        1.0  0.11823  0.23528  0.93660  1.0000
  S   S3        1.0  0.07828  0.77897  0.41915  1.0000
  S   S4        1.0  0.92173  0.22103  0.58085  1.0000
  N   N1        1.0  0.61173  0.12455  0.16849  1.0000
  N   N2        1.0  0.38827  0.87545  0.83151  1.0000
  N   N3        1.0  0.36658  0.44610  0.27362  1.0000
  N   N4        1.0  0.63342  0.55389  0.72638  1.0000
  O   O1        1.0  0.64170  0.68517  0.93303  1.0000
  O   O2        1.0  0.35831  0.31482  0.06697  1.0000
  O   O3        1.0  0.75897  0.84149  0.71005  1.0000
  O   O4        1.0  0.24103  0.15851  0.28995  1.0000
  O   O5        1.0  0.42589  0.77981  0.60410  1.0000
  O   O6        1.0  0.57412  0.22019  0.39590  1.0000
  O   O7        1.0  0.17202  0.64499  0.70040  1.0000
  O   O8        1.0  0.82800  0.35502  0.29959  1.0000
  O   O9        1.0  0.28790  0.57883  0.91832  1.0000
  O   O10       1.0  0.71209  0.42117  0.08168  1.0000
