data_image0
_chemical_formula_structural       Zn2Cr4H48C66N4O20
_chemical_formula_sum              "Zn2 Cr4 H48 C66 N4 O20"
_cell_length_a       12.0073
_cell_length_b       12.0073
_cell_length_c       12.2596
_cell_angle_alpha    72.9933
_cell_angle_beta     72.9935
_cell_angle_gamma    74.7363

_space_group_name_H-M_alt    "P 1"
_space_group_IT_number       1

loop_
  _space_group_symop_operation_xyz
  'x, y, z'

loop_
  _atom_site_type_symbol
  _atom_site_label
  _atom_site_symmetry_multiplicity
  _atom_site_fract_x
  _atom_site_fract_y
  _atom_site_fract_z
  _atom_site_occupancy
  Zn  Zn1       1.0  0.07963  0.22428  0.17133  1.0000
  Zn  Zn2       1.0  0.77572  0.92037  0.82868  1.0000
  Cr  Cr1       1.0  0.99792  0.73894  0.28234  1.0000
  Cr  Cr2       1.0  0.26106  0.00208  0.71766  1.0000
  Cr  Cr3       1.0  0.24560  0.51898  0.75960  1.0000
  Cr  Cr4       1.0  0.48103  0.75440  0.24040  1.0000
  H   H1        1.0  0.21588  0.84402  0.16368  1.0000
  H   H2        1.0  0.15598  0.78412  0.83632  1.0000
  H   H3        1.0  0.23205  0.64206  0.13534  1.0000
  H   H4        1.0  0.35794  0.76794  0.86466  1.0000
  H   H5        1.0  0.05458  0.58651  0.10870  1.0000
  H   H6        1.0  0.41349  0.94542  0.89129  1.0000
  H   H7        1.0  0.86514  0.73440  0.10867  1.0000
  H   H8        1.0  0.26560  0.13486  0.89132  1.0000
  H   H9        1.0  0.85124  0.93893  0.13401  1.0000
  H   H10       1.0  0.06107  0.14876  0.86598  1.0000
  H   H11       1.0  0.02290  0.64342  0.89896  1.0000
  H   H12       1.0  0.35657  0.97710  0.10104  1.0000
  H   H13       1.0  0.08157  0.75714  0.69238  1.0000
  H   H14       1.0  0.24286  0.91843  0.30762  1.0000
  H   H15       1.0  0.17589  0.64675  0.53197  1.0000
  H   H16       1.0  0.35326  0.82411  0.46803  1.0000
  H   H17       1.0  0.19731  0.42723  0.57707  1.0000
  H   H18       1.0  0.57278  0.80269  0.42293  1.0000
  H   H19       1.0  0.13606  0.31471  0.78537  1.0000
  H   H20       1.0  0.68529  0.86395  0.21463  1.0000
  H   H21       1.0  0.89116  0.93555  0.58290  1.0000
  H   H22       1.0  0.06444  0.10884  0.41710  1.0000
  H   H23       1.0  0.83719  0.02078  0.38963  1.0000
  H   H24       1.0  0.97923  0.16280  0.61037  1.0000
  H   H25       1.0  0.51489  0.21928  0.56720  1.0000
  H   H26       1.0  0.78072  0.48511  0.43280  1.0000
  H   H27       1.0  0.57892  0.12199  0.75372  1.0000
  H   H28       1.0  0.87801  0.42108  0.24629  1.0000
  H   H29       1.0  0.70070  0.13173  0.27995  1.0000
  H   H30       1.0  0.86827  0.29930  0.72006  1.0000
  H   H31       1.0  0.55192  0.12802  0.36026  1.0000
  H   H32       1.0  0.87198  0.44808  0.63975  1.0000
  H   H33       1.0  0.67210  0.34187  0.30012  1.0000
  H   H34       1.0  0.65813  0.32790  0.69988  1.0000
  H   H35       1.0  0.52203  0.33942  0.37089  1.0000
  H   H36       1.0  0.66058  0.47797  0.62911  1.0000
  H   H37       1.0  0.55948  0.43712  0.15373  1.0000
  H   H38       1.0  0.56288  0.44052  0.84627  1.0000
  H   H39       1.0  0.64179  0.30024  0.12244  1.0000
  H   H40       1.0  0.69976  0.35821  0.87756  1.0000
  H   H41       1.0  0.15972  0.33976  0.31592  1.0000
  H   H42       1.0  0.66024  0.84028  0.68408  1.0000
  H   H43       1.0  0.34169  0.38825  0.32744  1.0000
  H   H44       1.0  0.61175  0.65832  0.67256  1.0000
  H   H45       1.0  0.52970  0.22463  0.03641  1.0000
  H   H46       1.0  0.77537  0.47030  0.96359  1.0000
  H   H47       1.0  0.33824  0.18692  0.03339  1.0000
  H   H48       1.0  0.81308  0.66176  0.96661  1.0000
  C   C1        1.0  0.03180  0.90470  0.15022  1.0000
  C   C2        1.0  0.09530  0.96820  0.84978  1.0000
  C   C3        1.0  0.14085  0.82046  0.14924  1.0000
  C   C4        1.0  0.17954  0.85915  0.85076  1.0000
  C   C5        1.0  0.14960  0.70683  0.13367  1.0000
  C   C6        1.0  0.29317  0.85040  0.86632  1.0000
  C   C7        1.0  0.04992  0.67519  0.11817  1.0000
  C   C8        1.0  0.32481  0.95008  0.88182  1.0000
  C   C9        1.0  0.94256  0.75863  0.11792  1.0000
  C   C10       1.0  0.24137  0.05744  0.88208  1.0000
  C   C11       1.0  0.93341  0.87337  0.13372  1.0000
  C   C12       1.0  0.12664  0.06659  0.86628  1.0000
  C   C13       1.0  0.01932  0.02613  0.16972  1.0000
  C   C14       1.0  0.97388  0.98068  0.83028  1.0000
  C   C15       1.0  0.04741  0.59033  0.36484  1.0000
  C   C16       1.0  0.40967  0.95260  0.63516  1.0000
  C   C17       1.0  0.85172  0.72624  0.37737  1.0000
  C   C18       1.0  0.27376  0.14828  0.62262  1.0000
  C   C19       1.0  0.02357  0.79784  0.39077  1.0000
  C   C20       1.0  0.20216  0.97642  0.60923  1.0000
  C   C21       1.0  0.07191  0.47115  0.85614  1.0000
  C   C22       1.0  0.52885  0.92810  0.14386  1.0000
  C   C23       1.0  0.05779  0.59727  0.82818  1.0000
  C   C24       1.0  0.40273  0.94221  0.17182  1.0000
  C   C25       1.0  0.09193  0.66109  0.71171  1.0000
  C   C26       1.0  0.33891  0.90807  0.28829  1.0000
  C   C27       1.0  0.14390  0.59878  0.62118  1.0000
  C   C28       1.0  0.40123  0.85609  0.37882  1.0000
  C   C29       1.0  0.15604  0.47465  0.64630  1.0000
  C   C30       1.0  0.52535  0.84396  0.35370  1.0000
  C   C31       1.0  0.12141  0.41107  0.76404  1.0000
  C   C32       1.0  0.58893  0.87860  0.23596  1.0000
  C   C33       1.0  0.04577  0.40448  0.98239  1.0000
  C   C34       1.0  0.59551  0.95424  0.01761  1.0000
  C   C35       1.0  0.35606  0.38285  0.76772  1.0000
  C   C36       1.0  0.61716  0.64394  0.23227  1.0000
  C   C37       1.0  0.28389  0.53215  0.88781  1.0000
  C   C38       1.0  0.46785  0.71610  0.11219  1.0000
  C   C39       1.0  0.36374  0.59738  0.66793  1.0000
  C   C40       1.0  0.40262  0.63626  0.33207  1.0000
  C   C41       1.0  0.80799  0.99806  0.57580  1.0000
  C   C42       1.0  0.00194  0.19201  0.42420  1.0000
  C   C43       1.0  0.77743  0.04566  0.46844  1.0000
  C   C44       1.0  0.95434  0.22257  0.53156  1.0000
  C   C45       1.0  0.66911  0.12456  0.46170  1.0000
  C   C46       1.0  0.87544  0.33089  0.53830  1.0000
  C   C47       1.0  0.59927  0.15676  0.56564  1.0000
  C   C48       1.0  0.84324  0.40073  0.43436  1.0000
  C   C49       1.0  0.63421  0.10420  0.67056  1.0000
  C   C50       1.0  0.89580  0.36579  0.32944  1.0000
  C   C51       1.0  0.62956  0.16711  0.34828  1.0000
  C   C52       1.0  0.83290  0.37044  0.65172  1.0000
  C   C53       1.0  0.59694  0.30249  0.30644  1.0000
  C   C54       1.0  0.69752  0.40306  0.69356  1.0000
  C   C55       1.0  0.56731  0.34012  0.18545  1.0000
  C   C56       1.0  0.65988  0.43269  0.81455  1.0000
  C   C57       1.0  0.24324  0.31557  0.25504  1.0000
  C   C58       1.0  0.68443  0.75676  0.74496  1.0000
  C   C59       1.0  0.34648  0.34226  0.26121  1.0000
  C   C60       1.0  0.65774  0.65352  0.73879  1.0000
  C   C61       1.0  0.45399  0.31011  0.18287  1.0000
  C   C62       1.0  0.68989  0.54601  0.81713  1.0000
  C   C63       1.0  0.44980  0.25245  0.10027  1.0000
  C   C64       1.0  0.74755  0.55020  0.89973  1.0000
  C   C65       1.0  0.34252  0.23024  0.09834  1.0000
  C   C66       1.0  0.76976  0.65748  0.90167  1.0000
  N   N1        1.0  0.73630  0.02407  0.67638  1.0000
  N   N2        1.0  0.97593  0.26370  0.32362  1.0000
  N   N3        1.0  0.24004  0.26015  0.17513  1.0000
  N   N4        1.0  0.73985  0.75996  0.82487  1.0000
  O   O1        1.0  0.11589  0.04981  0.17755  1.0000
  O   O2        1.0  0.95019  0.88411  0.82245  1.0000
  O   O3        1.0  0.92146  0.09612  0.17561  1.0000
  O   O4        1.0  0.90388  0.07854  0.82439  1.0000
  O   O5        1.0  0.07913  0.49452  0.41908  1.0000
  O   O6        1.0  0.50549  0.92088  0.58092  1.0000
  O   O7        1.0  0.76038  0.71374  0.44423  1.0000
  O   O8        1.0  0.28626  0.23962  0.55576  1.0000
  O   O9        1.0  0.04085  0.83710  0.46038  1.0000
  O   O10       1.0  0.16290  0.95915  0.53962  1.0000
  O   O11       1.0  0.08202  0.29065  0.00184  1.0000
  O   O12       1.0  0.70935  0.91798  0.99816  1.0000
  O   O13       1.0  0.99408  0.46104  0.06030  1.0000
  O   O14       1.0  0.53895  0.00593  0.93970  1.0000
  O   O15       1.0  0.42628  0.29347  0.77654  1.0000
  O   O16       1.0  0.70653  0.57371  0.22346  1.0000
  O   O17       1.0  0.31189  0.53622  0.97055  1.0000
  O   O18       1.0  0.46377  0.68811  0.02945  1.0000
  O   O19       1.0  0.44196  0.64599  0.60988  1.0000
  O   O20       1.0  0.35400  0.55804  0.39012  1.0000
