data_image0
_chemical_formula_structural       Cd2H46C40N6O8
_chemical_formula_sum              "Cd2 H46 C40 N6 O8"
_cell_length_a       8.79955
_cell_length_b       11.0805
_cell_length_c       11.6191
_cell_angle_alpha    90.0001
_cell_angle_beta     90
_cell_angle_gamma    89.8373

_space_group_name_H-M_alt    "P 1"
_space_group_IT_number       1

loop_
  _space_group_symop_operation_xyz
  'x, y, z'

loop_
  _atom_site_type_symbol
  _atom_site_label
  _atom_site_symmetry_multiplicity
  _atom_site_fract_x
  _atom_site_fract_y
  _atom_site_fract_z
  _atom_site_occupancy
  Cd  Cd1       1.0  0.96771  0.21867  0.23406  1.0000
  Cd  Cd2       1.0  0.03229  0.78133  0.73406  1.0000
  H   H1        1.0  0.82206  0.45117  0.26448  1.0000
  H   H2        1.0  0.17795  0.54883  0.76448  1.0000
  H   H3        1.0  0.99391  0.06380  0.99012  1.0000
  H   H4        1.0  0.00608  0.93620  0.49012  1.0000
  H   H5        1.0  0.91022  0.07720  0.78491  1.0000
  H   H6        1.0  0.08977  0.92280  0.28491  1.0000
  H   H7        1.0  0.76210  0.26074  0.72266  1.0000
  H   H8        1.0  0.23790  0.73927  0.22266  1.0000
  H   H9        1.0  0.69704  0.41852  0.87054  1.0000
  H   H10       1.0  0.30295  0.58149  0.37053  1.0000
  H   H11       1.0  0.71346  0.48825  0.06597  1.0000
  H   H12       1.0  0.28654  0.51175  0.56596  1.0000
  H   H13       1.0  0.65788  0.35980  0.14779  1.0000
  H   H14       1.0  0.34212  0.64020  0.64778  1.0000
  H   H15       1.0  0.07475  0.44715  0.09881  1.0000
  H   H16       1.0  0.92526  0.55285  0.59880  1.0000
  H   H17       1.0  0.06773  0.51685  0.23434  1.0000
  H   H18       1.0  0.93228  0.48315  0.73434  1.0000
  H   H19       1.0  0.04333  0.56408  0.93430  1.0000
  H   H20       1.0  0.95667  0.43592  0.43430  1.0000
  H   H21       1.0  0.83394  0.89863  0.93023  1.0000
  H   H22       1.0  0.16606  0.10136  0.43023  1.0000
  H   H23       1.0  0.78913  0.89077  0.14569  1.0000
  H   H24       1.0  0.21088  0.10923  0.64568  1.0000
  H   H25       1.0  0.86061  0.70358  0.25148  1.0000
  H   H26       1.0  0.13940  0.29642  0.75148  1.0000
  H   H27       1.0  0.50603  0.16877  0.18726  1.0000
  H   H28       1.0  0.49397  0.83123  0.68726  1.0000
  H   H29       1.0  0.55884  0.96278  0.12980  1.0000
  H   H30       1.0  0.44117  0.03722  0.62981  1.0000
  H   H31       1.0  0.40337  0.96114  0.22665  1.0000
  H   H32       1.0  0.59663  0.03886  0.72665  1.0000
  H   H33       1.0  0.22203  0.93790  0.06805  1.0000
  H   H34       1.0  0.77797  0.06210  0.56805  1.0000
  H   H35       1.0  0.36183  0.82282  0.05681  1.0000
  H   H36       1.0  0.63817  0.17718  0.55681  1.0000
  H   H37       1.0  0.49629  0.93179  0.90602  1.0000
  H   H38       1.0  0.50371  0.06820  0.40602  1.0000
  H   H39       1.0  0.24897  0.12647  0.92688  1.0000
  H   H40       1.0  0.75103  0.87354  0.42688  1.0000
  H   H41       1.0  0.40015  0.12646  0.82766  1.0000
  H   H42       1.0  0.59985  0.87354  0.32766  1.0000
  H   H43       1.0  0.45724  0.26099  0.99477  1.0000
  H   H44       1.0  0.54276  0.73901  0.49477  1.0000
  H   H45       1.0  0.58782  0.13859  0.98873  1.0000
  H   H46       1.0  0.41218  0.86141  0.48873  1.0000
  C   C1        1.0  0.80523  0.31944  0.00795  1.0000
  C   C2        1.0  0.19477  0.68056  0.50795  1.0000
  C   C3        1.0  0.92516  0.13952  0.96001  1.0000
  C   C4        1.0  0.07484  0.86048  0.46001  1.0000
  C   C5        1.0  0.88080  0.14856  0.84530  1.0000
  C   C6        1.0  0.11920  0.85144  0.34530  1.0000
  C   C7        1.0  0.79770  0.25020  0.81198  1.0000
  C   C8        1.0  0.20230  0.74981  0.31197  1.0000
  C   C9        1.0  0.76134  0.33778  0.89372  1.0000
  C   C10       1.0  0.23866  0.66223  0.39372  1.0000
  C   C11       1.0  0.75434  0.40275  0.10348  1.0000
  C   C12       1.0  0.24566  0.59725  0.60348  1.0000
  C   C13       1.0  0.00055  0.49957  0.15632  1.0000
  C   C14       1.0  0.99945  0.50043  0.65632  1.0000
  C   C15       1.0  0.95467  0.61647  0.09996  1.0000
  C   C16       1.0  0.04533  0.38353  0.59995  1.0000
  C   C17       1.0  0.98315  0.63386  0.98294  1.0000
  C   C18       1.0  0.01685  0.36614  0.48294  1.0000
  C   C19       1.0  0.86872  0.82126  0.98206  1.0000
  C   C20       1.0  0.13128  0.17874  0.48206  1.0000
  C   C21       1.0  0.84002  0.81475  0.10004  1.0000
  C   C22       1.0  0.15998  0.18525  0.60004  1.0000
  C   C23       1.0  0.88221  0.71054  0.15917  1.0000
  C   C24       1.0  0.11780  0.28946  0.65917  1.0000
  C   C25       1.0  0.42581  0.12565  0.12704  1.0000
  C   C26       1.0  0.57419  0.87434  0.62704  1.0000
  C   C27       1.0  0.43837  0.98825  0.13975  1.0000
  C   C28       1.0  0.56164  0.01174  0.63975  1.0000
  C   C29       1.0  0.34332  0.92084  0.05045  1.0000
  C   C30       1.0  0.65668  0.07915  0.55045  1.0000
  C   C31       1.0  0.37937  0.96136  0.92631  1.0000
  C   C32       1.0  0.62063  0.03864  0.42632  1.0000
  C   C33       1.0  0.36826  0.09887  0.91526  1.0000
  C   C34       1.0  0.63174  0.90113  0.41526  1.0000
  C   C35       1.0  0.46791  0.16268  0.00388  1.0000
  C   C36       1.0  0.53208  0.83732  0.50388  1.0000
  C   C37       1.0  0.26907  0.17498  0.16077  1.0000
  C   C38       1.0  0.73093  0.82502  0.66078  1.0000
  C   C39       1.0  0.27260  0.89356  0.84598  1.0000
  C   C40       1.0  0.72739  0.10645  0.34598  1.0000
  N   N1        1.0  0.88673  0.22220  0.03928  1.0000
  N   N2        1.0  0.11327  0.77780  0.53928  1.0000
  N   N3        1.0  0.87272  0.42106  0.19091  1.0000
  N   N4        1.0  0.12728  0.57894  0.69091  1.0000
  N   N5        1.0  0.94104  0.73280  0.92465  1.0000
  N   N6        1.0  0.05896  0.26720  0.42465  1.0000
  O   O1        1.0  0.23464  0.28318  0.13844  1.0000
  O   O2        1.0  0.76536  0.71681  0.63844  1.0000
  O   O3        1.0  0.17811  0.10202  0.21288  1.0000
  O   O4        1.0  0.82189  0.89798  0.71289  1.0000
  O   O5        1.0  0.16168  0.95194  0.80029  1.0000
  O   O6        1.0  0.83831  0.04806  0.30029  1.0000
  O   O7        1.0  0.29156  0.78065  0.83202  1.0000
  O   O8        1.0  0.70843  0.21935  0.33202  1.0000
