data_image0
_chemical_formula_structural       Cd2H26C24N6Cl4
_chemical_formula_sum              "Cd2 H26 C24 N6 Cl4"
_cell_length_a       8.89934
_cell_length_b       9.00119
_cell_length_c       9.42031
_cell_angle_alpha    68.0695
_cell_angle_beta     86.9093
_cell_angle_gamma    74.8594

_space_group_name_H-M_alt    "P 1"
_space_group_IT_number       1

loop_
  _space_group_symop_operation_xyz
  'x, y, z'

loop_
  _atom_site_type_symbol
  _atom_site_label
  _atom_site_symmetry_multiplicity
  _atom_site_fract_x
  _atom_site_fract_y
  _atom_site_fract_z
  _atom_site_occupancy
  Cd  Cd1       1.0  0.50000  0.50000  0.50000  1.0000
  Cd  Cd2       1.0  0.50000  0.50000  0.00000  1.0000
  H   H1        1.0  0.62138  0.23277  0.27835  1.0000
  H   H2        1.0  0.37862  0.76723  0.72165  1.0000
  H   H3        1.0  0.17750  0.55133  0.78914  1.0000
  H   H4        1.0  0.82250  0.44867  0.21086  1.0000
  H   H5        1.0  0.96997  0.40145  0.80351  1.0000
  H   H6        1.0  0.03003  0.59854  0.19649  1.0000
  H   H7        1.0  0.98327  0.13686  0.02512  1.0000
  H   H8        1.0  0.01673  0.86314  0.97488  1.0000
  H   H9        1.0  0.19329  0.03628  0.23455  1.0000
  H   H10       1.0  0.80671  0.96372  0.76545  1.0000
  H   H11       1.0  0.36808  0.27744  0.31602  1.0000
  H   H12       1.0  0.63192  0.72257  0.68398  1.0000
  H   H13       1.0  0.42018  0.06932  0.32750  1.0000
  H   H14       1.0  0.57982  0.93068  0.67250  1.0000
  H   H15       1.0  0.74943  0.14642  0.07315  1.0000
  H   H16       1.0  0.25057  0.85358  0.92685  1.0000
  H   H17       1.0  0.58015  0.09180  0.04866  1.0000
  H   H18       1.0  0.41985  0.90820  0.95134  1.0000
  H   H19       1.0  0.51872  0.83662  0.23760  1.0000
  H   H20       1.0  0.48128  0.16338  0.76240  1.0000
  H   H21       1.0  0.83971  0.50695  0.58438  1.0000
  H   H22       1.0  0.16029  0.49305  0.41562  1.0000
  H   H23       1.0  0.01008  0.70829  0.52789  1.0000
  H   H24       1.0  0.98992  0.29171  0.47211  1.0000
  H   H25       1.0  0.91835  0.98633  0.32247  1.0000
  H   H26       1.0  0.08165  0.01367  0.67753  1.0000
  C   C1        1.0  0.28857  0.24629  0.12252  1.0000
  C   C2        1.0  0.71143  0.75371  0.87748  1.0000
  C   C3        1.0  0.17312  0.43907  0.88739  1.0000
  C   C4        1.0  0.82688  0.56093  0.11261  1.0000
  C   C5        1.0  0.06062  0.35459  0.89407  1.0000
  C   C6        1.0  0.93938  0.64541  0.10593  1.0000
  C   C7        1.0  0.06746  0.20757  0.01915  1.0000
  C   C8        1.0  0.93254  0.79243  0.98084  1.0000
  C   C9        1.0  0.18290  0.15157  0.13520  1.0000
  C   C10       1.0  0.81710  0.84843  0.86480  1.0000
  C   C11       1.0  0.40964  0.19854  0.24914  1.0000
  C   C12       1.0  0.59036  0.80146  0.75086  1.0000
  C   C13       1.0  0.65248  0.10073  0.13456  1.0000
  C   C14       1.0  0.34752  0.89927  0.86544  1.0000
  C   C15       1.0  0.71200  0.93453  0.26064  1.0000
  C   C16       1.0  0.28800  0.06547  0.73936  1.0000
  C   C17       1.0  0.62751  0.81527  0.29970  1.0000
  C   C18       1.0  0.37249  0.18473  0.70030  1.0000
  C   C19       1.0  0.80858  0.62962  0.49365  1.0000
  C   C20       1.0  0.19142  0.37038  0.50635  1.0000
  C   C21       1.0  0.90042  0.74076  0.46334  1.0000
  C   C22       1.0  0.09959  0.25924  0.53666  1.0000
  C   C23       1.0  0.85002  0.89585  0.34665  1.0000
  C   C24       1.0  0.14998  0.10415  0.65335  1.0000
  N   N1        1.0  0.28385  0.38606  0.99951  1.0000
  N   N2        1.0  0.71615  0.61394  0.00049  1.0000
  N   N3        1.0  0.55951  0.22834  0.19021  1.0000
  N   N4        1.0  0.44049  0.77166  0.80979  1.0000
  N   N5        1.0  0.67375  0.66741  0.41454  1.0000
  N   N6        1.0  0.32625  0.33259  0.58546  1.0000
  Cl  Cl1       1.0  0.36645  0.61307  0.21338  1.0000
  Cl  Cl2       1.0  0.63355  0.38693  0.78662  1.0000
  Cl  Cl3       1.0  0.28548  0.75740  0.52261  1.0000
  Cl  Cl4       1.0  0.71452  0.24260  0.47739  1.0000
