data_image0
_chemical_formula_structural       Zn2H56C40N20O16
_chemical_formula_sum              "Zn2 H56 C40 N20 O16"
_cell_length_a       7.3797
_cell_length_b       10.3551
_cell_length_c       18.506
_cell_angle_alpha    95.3825
_cell_angle_beta     90.0001
_cell_angle_gamma    90

_space_group_name_H-M_alt    "P 1"
_space_group_IT_number       1

loop_
  _space_group_symop_operation_xyz
  'x, y, z'

loop_
  _atom_site_type_symbol
  _atom_site_label
  _atom_site_symmetry_multiplicity
  _atom_site_fract_x
  _atom_site_fract_y
  _atom_site_fract_z
  _atom_site_occupancy
  Zn  Zn1       1.0  0.90214  0.03879  0.73330  1.0000
  Zn  Zn2       1.0  0.40215  0.96121  0.26670  1.0000
  H   H1        1.0  0.79030  0.21116  0.94192  1.0000
  H   H2        1.0  0.29030  0.78884  0.05808  1.0000
  H   H3        1.0  0.65879  0.33783  0.90779  1.0000
  H   H4        1.0  0.15880  0.66218  0.09221  1.0000
  H   H5        1.0  0.65854  0.17826  0.86153  1.0000
  H   H6        1.0  0.15854  0.82175  0.13847  1.0000
  H   H7        1.0  0.41336  0.26954  0.84310  1.0000
  H   H8        1.0  0.91336  0.73046  0.15690  1.0000
  H   H9        1.0  0.06348  0.35521  0.90997  1.0000
  H   H10       1.0  0.56348  0.64478  0.09003  1.0000
  H   H11       1.0  0.05609  0.52087  0.82480  1.0000
  H   H12       1.0  0.55610  0.47913  0.17520  1.0000
  H   H13       1.0  0.24724  0.41715  0.72396  1.0000
  H   H14       1.0  0.74724  0.58286  0.27604  1.0000
  H   H15       1.0  0.44437  0.43820  0.77921  1.0000
  H   H16       1.0  0.94436  0.56180  0.22079  1.0000
  H   H17       1.0  0.32794  0.57522  0.75337  1.0000
  H   H18       1.0  0.82794  0.42478  0.24663  1.0000
  H   H19       1.0  0.18909  0.56952  0.94967  1.0000
  H   H20       1.0  0.68910  0.43049  0.05033  1.0000
  H   H21       1.0  0.28682  0.66753  0.88615  1.0000
  H   H22       1.0  0.78682  0.33247  0.11386  1.0000
  H   H23       1.0  0.40911  0.53366  0.91422  1.0000
  H   H24       1.0  0.90911  0.46634  0.08578  1.0000
  H   H25       1.0  0.94828  0.14488  0.06811  1.0000
  H   H26       1.0  0.44828  0.85512  0.93189  1.0000
  H   H27       1.0  0.10096  0.08842  0.13396  1.0000
  H   H28       1.0  0.60096  0.91158  0.86604  1.0000
  H   H29       1.0  0.37031  0.89067  0.57757  1.0000
  H   H30       1.0  0.87031  0.10933  0.42243  1.0000
  H   H31       1.0  0.52182  0.87053  0.50227  1.0000
  H   H32       1.0  0.02182  0.12947  0.49773  1.0000
  H   H33       1.0  0.44578  0.73244  0.54339  1.0000
  H   H34       1.0  0.94577  0.26756  0.45661  1.0000
  H   H35       1.0  0.18213  0.74358  0.59641  1.0000
  H   H36       1.0  0.68213  0.25642  0.40359  1.0000
  H   H37       1.0  0.80672  0.67133  0.55292  1.0000
  H   H38       1.0  0.30672  0.32867  0.44708  1.0000
  H   H39       1.0  0.03636  0.60486  0.68224  1.0000
  H   H40       1.0  0.53635  0.39514  0.31776  1.0000
  H   H41       1.0  0.70967  0.63557  0.71652  1.0000
  H   H42       1.0  0.20966  0.36442  0.28348  1.0000
  H   H43       1.0  0.77638  0.47011  0.71517  1.0000
  H   H44       1.0  0.27638  0.52989  0.28483  1.0000
  H   H45       1.0  0.64553  0.52357  0.64258  1.0000
  H   H46       1.0  0.14553  0.47643  0.35742  1.0000
  H   H47       1.0  0.12382  0.47105  0.56739  1.0000
  H   H48       1.0  0.62382  0.52894  0.43261  1.0000
  H   H49       1.0  0.89200  0.43094  0.55130  1.0000
  H   H50       1.0  0.39199  0.56906  0.44870  1.0000
  H   H51       1.0  0.00658  0.37489  0.62695  1.0000
  H   H52       1.0  0.50658  0.62511  0.37305  1.0000
  H   H53       1.0  0.67702  0.82457  0.37591  1.0000
  H   H54       1.0  0.17702  0.17543  0.62409  1.0000
  H   H55       1.0  0.81071  0.85751  0.30014  1.0000
  H   H56       1.0  0.31071  0.14249  0.69986  1.0000
  C   C1        1.0  0.33700  0.22883  0.94374  1.0000
  C   C2        1.0  0.83700  0.77117  0.05626  1.0000
  C   C3        1.0  0.22073  0.15636  0.04789  1.0000
  C   C4        1.0  0.72073  0.84364  0.95211  1.0000
  C   C5        1.0  0.40014  0.11938  0.07129  1.0000
  C   C6        1.0  0.90014  0.88062  0.92871  1.0000
  C   C7        1.0  0.55533  0.14198  0.02489  1.0000
  C   C8        1.0  0.05532  0.85802  0.97511  1.0000
  C   C9        1.0  0.66408  0.23383  0.91488  1.0000
  C   C10       1.0  0.16408  0.76618  0.08512  1.0000
  C   C11       1.0  0.14754  0.34467  0.86075  1.0000
  C   C12       1.0  0.64754  0.65534  0.13925  1.0000
  C   C13       1.0  0.03134  0.26529  0.80342  1.0000
  C   C14       1.0  0.53134  0.73471  0.19658  1.0000
  C   C15       1.0  0.18945  0.48140  0.83782  1.0000
  C   C16       1.0  0.68945  0.51860  0.16219  1.0000
  C   C17       1.0  0.30824  0.47693  0.76980  1.0000
  C   C18       1.0  0.80824  0.52307  0.23021  1.0000
  C   C19       1.0  0.27321  0.56768  0.90052  1.0000
  C   C20       1.0  0.77321  0.43232  0.09948  1.0000
  C   C21       1.0  0.08649  0.77414  0.49696  1.0000
  C   C22       1.0  0.58649  0.22586  0.50304  1.0000
  C   C23       1.0  0.95186  0.81753  0.38960  1.0000
  C   C24       1.0  0.45186  0.18247  0.61040  1.0000
  C   C25       1.0  0.12514  0.84808  0.35972  1.0000
  C   C26       1.0  0.62514  0.15192  0.64028  1.0000
  C   C27       1.0  0.28252  0.85226  0.40645  1.0000
  C   C28       1.0  0.78252  0.14774  0.59355  1.0000
  C   C29       1.0  0.40618  0.82848  0.52840  1.0000
  C   C30       1.0  0.90619  0.17152  0.47161  1.0000
  C   C31       1.0  0.90745  0.69366  0.59580  1.0000
  C   C32       1.0  0.40745  0.30634  0.40420  1.0000
  C   C33       1.0  0.84674  0.81593  0.64347  1.0000
  C   C34       1.0  0.34674  0.18406  0.35653  1.0000
  C   C35       1.0  0.93084  0.57763  0.64134  1.0000
  C   C36       1.0  0.43083  0.42237  0.35866  1.0000
  C   C37       1.0  0.75544  0.55050  0.68142  1.0000
  C   C38       1.0  0.25544  0.44949  0.31858  1.0000
  C   C39       1.0  0.99306  0.45707  0.59395  1.0000
  C   C40       1.0  0.49306  0.54293  0.40605  1.0000
  N   N1        1.0  0.51392  0.19852  0.96084  1.0000
  N   N2        1.0  0.01392  0.80148  0.03916  1.0000
  N   N3        1.0  0.19514  0.21250  0.98617  1.0000
  N   N4        1.0  0.69514  0.78749  0.01383  1.0000
  N   N5        1.0  0.31280  0.28087  0.88068  1.0000
  N   N6        1.0  0.81280  0.71913  0.11932  1.0000
  N   N7        1.0  0.07659  0.13277  0.08767  1.0000
  N   N8        1.0  0.57659  0.86723  0.91233  1.0000
  N   N9        1.0  0.44359  0.06366  0.13116  1.0000
  N   N10       1.0  0.94359  0.93634  0.86884  1.0000
  N   N11       1.0  0.25453  0.81974  0.47702  1.0000
  N   N12       1.0  0.75453  0.18026  0.52298  1.0000
  N   N13       1.0  0.93835  0.77729  0.45652  1.0000
  N   N14       1.0  0.43835  0.22270  0.54348  1.0000
  N   N15       1.0  0.07846  0.72302  0.56096  1.0000
  N   N16       1.0  0.57846  0.27698  0.43904  1.0000
  N   N17       1.0  0.80124  0.83143  0.35214  1.0000
  N   N18       1.0  0.30124  0.16857  0.64786  1.0000
  N   N19       1.0  0.15395  0.88554  0.29266  1.0000
  N   N20       1.0  0.65395  0.11446  0.70734  1.0000
  O   O1        1.0  0.09320  0.15254  0.77883  1.0000
  O   O2        1.0  0.59320  0.84746  0.22117  1.0000
  O   O3        1.0  0.88489  0.31397  0.78624  1.0000
  O   O4        1.0  0.38489  0.68603  0.21375  1.0000
  O   O5        1.0  0.31018  0.03897  0.17408  1.0000
  O   O6        1.0  0.81018  0.96103  0.82592  1.0000
  O   O7        1.0  0.71425  0.11572  0.03888  1.0000
  O   O8        1.0  0.21425  0.88429  0.96112  1.0000
  O   O9        1.0  0.97872  0.87377  0.67968  1.0000
  O   O10       1.0  0.47872  0.12622  0.32032  1.0000
  O   O11       1.0  0.68469  0.84894  0.64441  1.0000
  O   O12       1.0  0.18469  0.15105  0.35560  1.0000
  O   O13       1.0  0.02451  0.88410  0.24743  1.0000
  O   O14       1.0  0.52451  0.11590  0.75257  1.0000
  O   O15       1.0  0.43661  0.88422  0.38665  1.0000
  O   O16       1.0  0.93661  0.11578  0.61335  1.0000
