data_image0
_chemical_formula_structural       Sn4H68C44N4O16
_chemical_formula_sum              "Sn4 H68 C44 N4 O16"
_cell_length_a       9.44168
_cell_length_b       9.85374
_cell_length_c       15.1218
_cell_angle_alpha    90.0001
_cell_angle_beta     102.148
_cell_angle_gamma    90

_space_group_name_H-M_alt    "P 1"
_space_group_IT_number       1

loop_
  _space_group_symop_operation_xyz
  'x, y, z'

loop_
  _atom_site_type_symbol
  _atom_site_label
  _atom_site_symmetry_multiplicity
  _atom_site_fract_x
  _atom_site_fract_y
  _atom_site_fract_z
  _atom_site_occupancy
  Sn  Sn1       1.0  0.08366  0.10854  0.76703  1.0000
  Sn  Sn2       1.0  0.91634  0.60854  0.73297  1.0000
  Sn  Sn3       1.0  0.91634  0.89146  0.23297  1.0000
  Sn  Sn4       1.0  0.08366  0.39146  0.26703  1.0000
  H   H1        1.0  0.35723  0.00554  0.81990  1.0000
  H   H2        1.0  0.64277  0.50553  0.68010  1.0000
  H   H3        1.0  0.64277  0.99447  0.18010  1.0000
  H   H4        1.0  0.35722  0.49447  0.31990  1.0000
  H   H5        1.0  0.24390  0.88359  0.75197  1.0000
  H   H6        1.0  0.75610  0.38359  0.74803  1.0000
  H   H7        1.0  0.75610  0.11641  0.24803  1.0000
  H   H8        1.0  0.24390  0.61641  0.25197  1.0000
  H   H9        1.0  0.23341  0.90546  0.86692  1.0000
  H   H10       1.0  0.76659  0.40546  0.63308  1.0000
  H   H11       1.0  0.76659  0.09454  0.13308  1.0000
  H   H12       1.0  0.23341  0.59454  0.36692  1.0000
  H   H13       1.0  0.94721  0.25103  0.62040  1.0000
  H   H14       1.0  0.05279  0.75103  0.87960  1.0000
  H   H15       1.0  0.05279  0.74897  0.37960  1.0000
  H   H16       1.0  0.94721  0.24897  0.12040  1.0000
  H   H17       1.0  0.00752  0.09270  0.58365  1.0000
  H   H18       1.0  0.99248  0.59270  0.91635  1.0000
  H   H19       1.0  0.99248  0.90730  0.41635  1.0000
  H   H20       1.0  0.00752  0.40730  0.08365  1.0000
  H   H21       1.0  0.13431  0.22954  0.61675  1.0000
  H   H22       1.0  0.86569  0.72954  0.88325  1.0000
  H   H23       1.0  0.86569  0.77046  0.38325  1.0000
  H   H24       1.0  0.13431  0.27046  0.11675  1.0000
  H   H25       1.0  0.02380  0.22718  0.91716  1.0000
  H   H26       1.0  0.97620  0.72718  0.58283  1.0000
  H   H27       1.0  0.97620  0.77281  0.08284  1.0000
  H   H28       1.0  0.02380  0.27281  0.41716  1.0000
  H   H29       1.0  0.94481  0.06035  0.90329  1.0000
  H   H30       1.0  0.05519  0.56035  0.59671  1.0000
  H   H31       1.0  0.05519  0.93965  0.09671  1.0000
  H   H32       1.0  0.94481  0.43965  0.40329  1.0000
  H   H33       1.0  0.85835  0.19910  0.83666  1.0000
  H   H34       1.0  0.14165  0.69910  0.66334  1.0000
  H   H35       1.0  0.14165  0.80090  0.16334  1.0000
  H   H36       1.0  0.85835  0.30090  0.33666  1.0000
  H   H37       1.0  0.54140  0.70702  0.73339  1.0000
  H   H38       1.0  0.45860  0.20702  0.76661  1.0000
  H   H39       1.0  0.45860  0.29298  0.26661  1.0000
  H   H40       1.0  0.54140  0.79298  0.23339  1.0000
  H   H41       1.0  0.36302  0.51390  0.69244  1.0000
  H   H42       1.0  0.63698  0.01390  0.80756  1.0000
  H   H43       1.0  0.63698  0.48610  0.30756  1.0000
  H   H44       1.0  0.36302  0.98610  0.19244  1.0000
  H   H45       1.0  0.41137  0.58638  0.09133  1.0000
  H   H46       1.0  0.58863  0.08638  0.40867  1.0000
  H   H47       1.0  0.58863  0.41362  0.90867  1.0000
  H   H48       1.0  0.41137  0.91362  0.59133  1.0000
  H   H49       1.0  0.22996  0.53867  0.09838  1.0000
  H   H50       1.0  0.77004  0.03867  0.40162  1.0000
  H   H51       1.0  0.77004  0.46133  0.90162  1.0000
  H   H52       1.0  0.22996  0.96133  0.59838  1.0000
  H   H53       1.0  0.26363  0.69870  0.04952  1.0000
  H   H54       1.0  0.73637  0.19870  0.45048  1.0000
  H   H55       1.0  0.73637  0.30130  0.95048  1.0000
  H   H56       1.0  0.26363  0.80130  0.54952  1.0000
  H   H57       1.0  0.54447  0.89331  0.00837  1.0000
  H   H58       1.0  0.45553  0.39331  0.49163  1.0000
  H   H59       1.0  0.45553  0.10669  0.99163  1.0000
  H   H60       1.0  0.54447  0.60669  0.50837  1.0000
  H   H61       1.0  0.72227  0.93419  0.99052  1.0000
  H   H62       1.0  0.27773  0.43419  0.50948  1.0000
  H   H63       1.0  0.27773  0.06581  0.00948  1.0000
  H   H64       1.0  0.72227  0.56581  0.49052  1.0000
  H   H65       1.0  0.68357  0.76820  0.02959  1.0000
  H   H66       1.0  0.31643  0.26820  0.47041  1.0000
  H   H67       1.0  0.31643  0.23181  0.97041  1.0000
  H   H68       1.0  0.68357  0.73181  0.52959  1.0000
  C   C1        1.0  0.24998  0.95843  0.80615  1.0000
  C   C2        1.0  0.75002  0.45843  0.69385  1.0000
  C   C3        1.0  0.75002  0.04157  0.19385  1.0000
  C   C4        1.0  0.24998  0.54157  0.30615  1.0000
  C   C5        1.0  0.03724  0.17883  0.62953  1.0000
  C   C6        1.0  0.96276  0.67883  0.87047  1.0000
  C   C7        1.0  0.96276  0.82116  0.37047  1.0000
  C   C8        1.0  0.03724  0.32117  0.12953  1.0000
  C   C9        1.0  0.96277  0.15475  0.86875  1.0000
  C   C10       1.0  0.03723  0.65475  0.63125  1.0000
  C   C11       1.0  0.03723  0.84525  0.13125  1.0000
  C   C12       1.0  0.96277  0.34525  0.36875  1.0000
  C   C13       1.0  0.20084  0.39637  0.80197  1.0000
  C   C14       1.0  0.79915  0.89637  0.69803  1.0000
  C   C15       1.0  0.79916  0.60363  0.19803  1.0000
  C   C16       1.0  0.20084  0.10363  0.30197  1.0000
  C   C17       1.0  0.30758  0.51041  0.82341  1.0000
  C   C18       1.0  0.69241  0.01041  0.67659  1.0000
  C   C19       1.0  0.69241  0.48959  0.17659  1.0000
  C   C20       1.0  0.30759  0.98959  0.32341  1.0000
  C   C21       1.0  0.33933  0.57090  0.90955  1.0000
  C   C22       1.0  0.66067  0.07090  0.59045  1.0000
  C   C23       1.0  0.66067  0.42910  0.09045  1.0000
  C   C24       1.0  0.33933  0.92910  0.40955  1.0000
  C   C25       1.0  0.50520  0.71544  0.86983  1.0000
  C   C26       1.0  0.49480  0.21544  0.63017  1.0000
  C   C27       1.0  0.49480  0.28456  0.13017  1.0000
  C   C28       1.0  0.50520  0.78456  0.36983  1.0000
  C   C29       1.0  0.48117  0.66565  0.78117  1.0000
  C   C30       1.0  0.51883  0.16565  0.71883  1.0000
  C   C31       1.0  0.51884  0.33435  0.21884  1.0000
  C   C32       1.0  0.48117  0.83435  0.28116  1.0000
  C   C33       1.0  0.38186  0.56032  0.75935  1.0000
  C   C34       1.0  0.61814  0.06032  0.74065  1.0000
  C   C35       1.0  0.61814  0.43968  0.24065  1.0000
  C   C36       1.0  0.38186  0.93968  0.25935  1.0000
  C   C37       1.0  0.29636  0.59178  0.05834  1.0000
  C   C38       1.0  0.70364  0.09178  0.44166  1.0000
  C   C39       1.0  0.70364  0.40822  0.94166  1.0000
  C   C40       1.0  0.29636  0.90822  0.55834  1.0000
  C   C41       1.0  0.64042  0.85440  0.98649  1.0000
  C   C42       1.0  0.35958  0.35440  0.51351  1.0000
  C   C43       1.0  0.35958  0.14561  0.01351  1.0000
  C   C44       1.0  0.64042  0.64561  0.48649  1.0000
  N   N1        1.0  0.43567  0.67044  0.93224  1.0000
  N   N2        1.0  0.56433  0.17044  0.56776  1.0000
  N   N3        1.0  0.56433  0.32956  0.06776  1.0000
  N   N4        1.0  0.43567  0.82956  0.43224  1.0000
  O   O1        1.0  0.25167  0.27545  0.81120  1.0000
  O   O2        1.0  0.74833  0.77545  0.68880  1.0000
  O   O3        1.0  0.74833  0.72455  0.18880  1.0000
  O   O4        1.0  0.25167  0.22455  0.31120  1.0000
  O   O5        1.0  0.06660  0.41953  0.77514  1.0000
  O   O6        1.0  0.93340  0.91953  0.72486  1.0000
  O   O7        1.0  0.93340  0.58047  0.22486  1.0000
  O   O8        1.0  0.06660  0.08047  0.27514  1.0000
  O   O9        1.0  0.26863  0.52286  0.97241  1.0000
  O   O10       1.0  0.73137  0.02286  0.52759  1.0000
  O   O11       1.0  0.73137  0.47714  0.02759  1.0000
  O   O12       1.0  0.26863  0.97714  0.47241  1.0000
  O   O13       1.0  0.60581  0.81507  0.89272  1.0000
  O   O14       1.0  0.39419  0.31507  0.60728  1.0000
  O   O15       1.0  0.39419  0.18493  0.10728  1.0000
  O   O16       1.0  0.60581  0.68493  0.39272  1.0000
