data_image0
_chemical_formula_structural       Pu4H16C32O24
_chemical_formula_sum              "Pu4 H16 C32 O24"
_cell_length_a       8.84895
_cell_length_b       10.4197
_cell_length_c       10.8579
_cell_angle_alpha    117.865
_cell_angle_beta     90.0024
_cell_angle_gamma    90.0009

_space_group_name_H-M_alt    "P 1"
_space_group_IT_number       1

loop_
  _space_group_symop_operation_xyz
  'x, y, z'

loop_
  _atom_site_type_symbol
  _atom_site_label
  _atom_site_symmetry_multiplicity
  _atom_site_fract_x
  _atom_site_fract_y
  _atom_site_fract_z
  _atom_site_occupancy
  Pu  Pu1       1.0  0.40362  0.75415  0.30550  1.0000
  Pu  Pu2       1.0  0.90362  0.74583  0.19448  1.0000
  Pu  Pu3       1.0  0.59637  0.24585  0.69451  1.0000
  Pu  Pu4       1.0  0.09638  0.25417  0.80551  1.0000
  H   H1        1.0  0.69287  0.50408  0.53265  1.0000
  H   H2        1.0  0.19290  0.99594  0.96736  1.0000
  H   H3        1.0  0.30712  0.49594  0.46736  1.0000
  H   H4        1.0  0.80711  0.00405  0.03264  1.0000
  H   H5        1.0  0.10665  0.66917  0.76194  1.0000
  H   H6        1.0  0.60661  0.83083  0.73803  1.0000
  H   H7        1.0  0.89337  0.33083  0.23804  1.0000
  H   H8        1.0  0.39339  0.16916  0.26197  1.0000
  H   H9        1.0  0.10717  0.87078  0.69741  1.0000
  H   H10       1.0  0.60712  0.62922  0.80254  1.0000
  H   H11       1.0  0.89284  0.12921  0.30256  1.0000
  H   H12       1.0  0.39289  0.37078  0.19747  1.0000
  H   H13       1.0  0.90570  0.88273  0.54546  1.0000
  H   H14       1.0  0.40569  0.61726  0.95450  1.0000
  H   H15       1.0  0.09430  0.11726  0.45451  1.0000
  H   H16       1.0  0.59432  0.38274  0.04552  1.0000
  C   C1        1.0  0.66851  0.70223  0.43658  1.0000
  C   C2        1.0  0.16849  0.79775  0.06339  1.0000
  C   C3        1.0  0.33150  0.29776  0.56341  1.0000
  C   C4        1.0  0.83149  0.20224  0.93660  1.0000
  C   C5        1.0  0.78920  0.69189  0.52622  1.0000
  C   C6        1.0  0.28919  0.80812  0.97377  1.0000
  C   C7        1.0  0.21081  0.30812  0.47377  1.0000
  C   C8        1.0  0.71080  0.19188  0.02624  1.0000
  C   C9        1.0  0.78446  0.58320  0.56735  1.0000
  C   C10       1.0  0.28447  0.91682  0.93265  1.0000
  C   C11       1.0  0.21553  0.41682  0.43266  1.0000
  C   C12       1.0  0.71554  0.08317  0.06734  1.0000
  C   C13       1.0  0.90007  0.57554  0.65192  1.0000
  C   C14       1.0  0.40007  0.92448  0.84809  1.0000
  C   C15       1.0  0.09992  0.42448  0.34809  1.0000
  C   C16       1.0  0.59994  0.07551  0.15192  1.0000
  C   C17       1.0  0.01767  0.67757  0.69695  1.0000
  C   C18       1.0  0.51764  0.82244  0.80303  1.0000
  C   C19       1.0  0.98234  0.32243  0.30304  1.0000
  C   C20       1.0  0.48237  0.17756  0.19698  1.0000
  C   C21       1.0  0.01843  0.78894  0.66008  1.0000
  C   C22       1.0  0.51840  0.71106  0.83989  1.0000
  C   C23       1.0  0.98158  0.21105  0.33990  1.0000
  C   C24       1.0  0.48160  0.28894  0.16012  1.0000
  C   C25       1.0  0.90513  0.79590  0.57433  1.0000
  C   C26       1.0  0.40511  0.70410  0.92565  1.0000
  C   C27       1.0  0.09488  0.20410  0.42566  1.0000
  C   C28       1.0  0.59490  0.29590  0.07436  1.0000
  C   C29       1.0  0.89724  0.45901  0.69411  1.0000
  C   C30       1.0  0.39725  0.04104  0.80592  1.0000
  C   C31       1.0  0.10274  0.54102  0.30591  1.0000
  C   C32       1.0  0.60276  0.95896  0.19409  1.0000
  O   O1        1.0  0.33830  0.90243  0.46145  1.0000
  O   O2        1.0  0.83831  0.59753  0.03852  1.0000
  O   O3        1.0  0.66172  0.09759  0.53856  1.0000
  O   O4        1.0  0.16169  0.40246  0.96147  1.0000
  O   O5        1.0  0.47065  0.60451  0.15196  1.0000
  O   O6        1.0  0.97065  0.89547  0.34801  1.0000
  O   O7        1.0  0.52931  0.39546  0.84806  1.0000
  O   O8        1.0  0.02935  0.10453  0.65199  1.0000
  O   O9        1.0  0.69564  0.75334  0.35088  1.0000
  O   O10       1.0  0.19562  0.74664  0.14909  1.0000
  O   O11       1.0  0.30437  0.24665  0.64911  1.0000
  O   O12       1.0  0.80435  0.25335  0.85090  1.0000
  O   O13       1.0  0.53344  0.66610  0.44683  1.0000
  O   O14       1.0  0.03343  0.83387  0.05314  1.0000
  O   O15       1.0  0.46657  0.33389  0.55316  1.0000
  O   O16       1.0  0.96656  0.16612  0.94685  1.0000
  O   O17       1.0  0.01330  0.43544  0.74982  1.0000
  O   O18       1.0  0.51330  0.06457  0.75017  1.0000
  O   O19       1.0  0.98669  0.56456  0.25016  1.0000
  O   O20       1.0  0.48670  0.93542  0.24983  1.0000
  O   O21       1.0  0.77539  0.38641  0.67276  1.0000
  O   O22       1.0  0.27545  0.11369  0.82731  1.0000
  O   O23       1.0  0.22456  0.61366  0.32728  1.0000
  O   O24       1.0  0.72456  0.88631  0.17269  1.0000
