data_image0
_chemical_formula_structural       Nd2H32C24N6O22
_chemical_formula_sum              "Nd2 H32 C24 N6 O22"
_cell_length_a       9.15241
_cell_length_b       8.68373
_cell_length_c       12.8532
_cell_angle_alpha    103.577
_cell_angle_beta     100.941
_cell_angle_gamma    115.944

_space_group_name_H-M_alt    "P 1"
_space_group_IT_number       1

loop_
  _space_group_symop_operation_xyz
  'x, y, z'

loop_
  _atom_site_type_symbol
  _atom_site_label
  _atom_site_symmetry_multiplicity
  _atom_site_fract_x
  _atom_site_fract_y
  _atom_site_fract_z
  _atom_site_occupancy
  Nd  Nd1       1.0  0.28721  0.02732  0.99076  1.0000
  Nd  Nd2       1.0  0.71244  0.97211  0.00912  1.0000
  H   H1        1.0  0.19342  0.79427  0.11241  1.0000
  H   H2        1.0  0.80662  0.20613  0.88761  1.0000
  H   H3        1.0  0.08463  0.63855  0.99086  1.0000
  H   H4        1.0  0.91391  0.35979  0.00983  1.0000
  H   H5        1.0  0.14897  0.15739  0.82354  1.0000
  H   H6        1.0  0.85102  0.84259  0.17652  1.0000
  H   H7        1.0  0.09355  0.22111  0.92702  1.0000
  H   H8        1.0  0.90656  0.77893  0.07307  1.0000
  H   H9        1.0  0.56780  0.12631  0.39359  1.0000
  H   H10       1.0  0.43226  0.87367  0.60646  1.0000
  H   H11       1.0  0.41639  0.89287  0.34800  1.0000
  H   H12       1.0  0.58366  0.10710  0.65200  1.0000
  H   H13       1.0  0.64924  0.92279  0.48145  1.0000
  H   H14       1.0  0.35080  0.07720  0.51861  1.0000
  H   H15       1.0  0.67494  0.83371  0.35013  1.0000
  H   H16       1.0  0.32510  0.16625  0.64993  1.0000
  H   H17       1.0  0.03275  0.58189  0.69505  1.0000
  H   H18       1.0  0.96723  0.41809  0.30494  1.0000
  H   H19       1.0  0.24173  0.66830  0.68317  1.0000
  H   H20       1.0  0.75825  0.33173  0.31683  1.0000
  H   H21       1.0  0.21248  0.38223  0.75590  1.0000
  H   H22       1.0  0.78734  0.61767  0.24409  1.0000
  H   H23       1.0  0.09135  0.45241  0.82634  1.0000
  H   H24       1.0  0.90878  0.54784  0.17378  1.0000
  H   H25       1.0  0.38644  0.31681  0.44481  1.0000
  H   H26       1.0  0.61353  0.68323  0.55510  1.0000
  H   H27       1.0  0.22434  0.10207  0.33638  1.0000
  H   H28       1.0  0.77561  0.89796  0.66356  1.0000
  H   H29       1.0  0.39281  0.37822  0.27648  1.0000
  H   H30       1.0  0.60706  0.62185  0.72346  1.0000
  H   H31       1.0  0.26980  0.47113  0.32915  1.0000
  H   H32       1.0  0.73001  0.52885  0.67080  1.0000
  C   C1        1.0  0.52571  0.97507  0.22401  1.0000
  C   C2        1.0  0.47447  0.02498  0.77605  1.0000
  C   C3        1.0  0.54290  0.98889  0.34633  1.0000
  C   C4        1.0  0.45719  0.01110  0.65372  1.0000
  C   C5        1.0  0.67680  0.95103  0.40651  1.0000
  C   C6        1.0  0.32325  0.04894  0.59355  1.0000
  C   C7        1.0  0.90224  0.25508  0.54298  1.0000
  C   C8        1.0  0.09779  0.74492  0.45704  1.0000
  C   C9        1.0  0.18954  0.40264  0.52547  1.0000
  C   C10       1.0  0.81047  0.59738  0.47452  1.0000
  C   C11       1.0  0.97267  0.08843  0.39741  1.0000
  C   C12       1.0  0.02734  0.91157  0.60261  1.0000
  C   C13       1.0  0.13384  0.54980  0.68720  1.0000
  C   C14       1.0  0.86617  0.45021  0.31280  1.0000
  C   C15       1.0  0.19225  0.49709  0.78752  1.0000
  C   C16       1.0  0.80777  0.50296  0.21250  1.0000
  C   C17       1.0  0.36101  0.65235  0.87539  1.0000
  C   C18       1.0  0.63916  0.34753  0.12455  1.0000
  C   C19       1.0  0.26081  0.24518  0.37801  1.0000
  C   C20       1.0  0.73914  0.75485  0.62192  1.0000
  C   C21       1.0  0.27103  0.34410  0.29274  1.0000
  C   C22       1.0  0.72882  0.65591  0.70719  1.0000
  C   C23       1.0  0.12361  0.21846  0.18176  1.0000
  C   C24       1.0  0.87633  0.78156  0.81811  1.0000
  N   N1        1.0  0.85540  0.10645  0.44637  1.0000
  N   N2        1.0  0.14464  0.89352  0.55367  1.0000
  N   N3        1.0  0.07007  0.39999  0.57850  1.0000
  N   N4        1.0  0.92995  0.60002  0.42151  1.0000
  N   N5        1.0  0.13380  0.24429  0.43377  1.0000
  N   N6        1.0  0.86618  0.75571  0.56621  1.0000
  O   O1        1.0  0.39837  0.98566  0.17153  1.0000
  O   O2        1.0  0.60194  0.01454  0.82855  1.0000
  O   O3        1.0  0.63484  0.95809  0.18255  1.0000
  O   O4        1.0  0.36529  0.04181  0.81750  1.0000
  O   O5        1.0  0.36497  0.79213  0.94239  1.0000
  O   O6        1.0  0.63565  0.20807  0.05755  1.0000
  O   O7        1.0  0.49753  0.64710  0.88046  1.0000
  O   O8        1.0  0.50243  0.35232  0.11945  1.0000
  O   O9        1.0  0.14597  0.11248  0.10837  1.0000
  O   O10       1.0  0.85404  0.88743  0.89166  1.0000
  O   O11       1.0  0.98076  0.21585  0.16886  1.0000
  O   O12       1.0  0.01920  0.78434  0.83079  1.0000
  O   O13       1.0  0.93780  0.94199  0.32744  1.0000
  O   O14       1.0  0.06222  0.05799  0.67257  1.0000
  O   O15       1.0  0.80130  0.25773  0.59323  1.0000
  O   O16       1.0  0.19871  0.74228  0.40678  1.0000
  O   O17       1.0  0.33624  0.53501  0.55860  1.0000
  O   O18       1.0  0.66374  0.46501  0.44136  1.0000
  O   O19       1.0  0.08053  0.72864  0.05009  1.0000
  O   O20       1.0  0.92011  0.27322  0.94950  1.0000
  O   O21       1.0  0.18713  0.20778  0.90710  1.0000
  O   O22       1.0  0.81289  0.79215  0.09296  1.0000
