data_image0
_chemical_formula_structural       Th4H48C40N8O48
_chemical_formula_sum              "Th4 H48 C40 N8 O48"
_cell_length_a       8.64054
_cell_length_b       12.9562
_cell_length_c       13.3579
_cell_angle_alpha    90
_cell_angle_beta     89.9999
_cell_angle_gamma    90

_space_group_name_H-M_alt    "P 1"
_space_group_IT_number       1

loop_
  _space_group_symop_operation_xyz
  'x, y, z'

loop_
  _atom_site_type_symbol
  _atom_site_label
  _atom_site_symmetry_multiplicity
  _atom_site_fract_x
  _atom_site_fract_y
  _atom_site_fract_z
  _atom_site_occupancy
  Th  Th1       1.0  0.25000  0.35141  0.75000  1.0000
  Th  Th2       1.0  0.75000  0.14859  0.25000  1.0000
  Th  Th3       1.0  0.75000  0.64859  0.25000  1.0000
  Th  Th4       1.0  0.25000  0.85141  0.75000  1.0000
  H   H1        1.0  0.60801  0.29165  0.53513  1.0000
  H   H2        1.0  0.89199  0.29165  0.96487  1.0000
  H   H3        1.0  0.10801  0.20835  0.46487  1.0000
  H   H4        1.0  0.39199  0.20835  0.03513  1.0000
  H   H5        1.0  0.39199  0.70836  0.46487  1.0000
  H   H6        1.0  0.10801  0.70836  0.03513  1.0000
  H   H7        1.0  0.89199  0.79164  0.53513  1.0000
  H   H8        1.0  0.60801  0.79164  0.96487  1.0000
  H   H9        1.0  0.65558  0.29752  0.65715  1.0000
  H   H10       1.0  0.84442  0.29752  0.84285  1.0000
  H   H11       1.0  0.15558  0.20248  0.34285  1.0000
  H   H12       1.0  0.34442  0.20248  0.15715  1.0000
  H   H13       1.0  0.34442  0.70248  0.34285  1.0000
  H   H14       1.0  0.15558  0.70248  0.15715  1.0000
  H   H15       1.0  0.84442  0.79752  0.65715  1.0000
  H   H16       1.0  0.65558  0.79752  0.84285  1.0000
  H   H17       1.0  0.86328  0.30496  0.47809  1.0000
  H   H18       1.0  0.63673  0.30496  0.02191  1.0000
  H   H19       1.0  0.36327  0.19504  0.52191  1.0000
  H   H20       1.0  0.13672  0.19504  0.97809  1.0000
  H   H21       1.0  0.13673  0.69504  0.52191  1.0000
  H   H22       1.0  0.36327  0.69504  0.97809  1.0000
  H   H23       1.0  0.63673  0.80496  0.47809  1.0000
  H   H24       1.0  0.86327  0.80496  0.02191  1.0000
  H   H25       1.0  0.83023  0.19308  0.55189  1.0000
  H   H26       1.0  0.66977  0.19308  0.94811  1.0000
  H   H27       1.0  0.33023  0.30692  0.44811  1.0000
  H   H28       1.0  0.16977  0.30692  0.05189  1.0000
  H   H29       1.0  0.16976  0.80692  0.44812  1.0000
  H   H30       1.0  0.33024  0.80692  0.05188  1.0000
  H   H31       1.0  0.66976  0.69308  0.55188  1.0000
  H   H32       1.0  0.83024  0.69308  0.94812  1.0000
  H   H33       1.0  0.71681  0.46234  0.50892  1.0000
  H   H34       1.0  0.78319  0.46234  0.99108  1.0000
  H   H35       1.0  0.21681  0.03766  0.49107  1.0000
  H   H36       1.0  0.28319  0.03766  0.00892  1.0000
  H   H37       1.0  0.28319  0.53766  0.49107  1.0000
  H   H38       1.0  0.21681  0.53766  0.00893  1.0000
  H   H39       1.0  0.78319  0.96234  0.50893  1.0000
  H   H40       1.0  0.71681  0.96234  0.99107  1.0000
  H   H41       1.0  0.76641  0.46513  0.63882  1.0000
  H   H42       1.0  0.73359  0.46513  0.86118  1.0000
  H   H43       1.0  0.26641  0.03487  0.36118  1.0000
  H   H44       1.0  0.23359  0.03487  0.13882  1.0000
  H   H45       1.0  0.23360  0.53487  0.36118  1.0000
  H   H46       1.0  0.26640  0.53487  0.13882  1.0000
  H   H47       1.0  0.73360  0.96513  0.63882  1.0000
  H   H48       1.0  0.76640  0.96513  0.86118  1.0000
  C   C1        1.0  0.83908  0.27766  0.55424  1.0000
  C   C2        1.0  0.66092  0.27766  0.94576  1.0000
  C   C3        1.0  0.33908  0.22234  0.44576  1.0000
  C   C4        1.0  0.16092  0.22234  0.05424  1.0000
  C   C5        1.0  0.16092  0.72234  0.44576  1.0000
  C   C6        1.0  0.33908  0.72234  0.05424  1.0000
  C   C7        1.0  0.66092  0.77766  0.55424  1.0000
  C   C8        1.0  0.83908  0.77766  0.94576  1.0000
  C   C9        1.0  0.96932  0.30441  0.62411  1.0000
  C   C10       1.0  0.53068  0.30441  0.87589  1.0000
  C   C11       1.0  0.46932  0.19559  0.37589  1.0000
  C   C12       1.0  0.03068  0.19559  0.12411  1.0000
  C   C13       1.0  0.03068  0.69559  0.37589  1.0000
  C   C14       1.0  0.46932  0.69559  0.12411  1.0000
  C   C15       1.0  0.53068  0.80441  0.62411  1.0000
  C   C16       1.0  0.96932  0.80441  0.87589  1.0000
  C   C17       1.0  0.68271  0.43613  0.58393  1.0000
  C   C18       1.0  0.81729  0.43613  0.91607  1.0000
  C   C19       1.0  0.18271  0.06387  0.41607  1.0000
  C   C20       1.0  0.31729  0.06387  0.08393  1.0000
  C   C21       1.0  0.31729  0.56387  0.41607  1.0000
  C   C22       1.0  0.18271  0.56387  0.08393  1.0000
  C   C23       1.0  0.81729  0.93613  0.58393  1.0000
  C   C24       1.0  0.68271  0.93613  0.91607  1.0000
  C   C25       1.0  0.52134  0.47671  0.60812  1.0000
  C   C26       1.0  0.97867  0.47671  0.89188  1.0000
  C   C27       1.0  0.02134  0.02329  0.39188  1.0000
  C   C28       1.0  0.47866  0.02329  0.10812  1.0000
  C   C29       1.0  0.47867  0.52329  0.39188  1.0000
  C   C30       1.0  0.02133  0.52329  0.10812  1.0000
  C   C31       1.0  0.97867  0.97671  0.60812  1.0000
  C   C32       1.0  0.52133  0.97671  0.89188  1.0000
  C   C33       1.0  0.18281  0.59946  0.71194  1.0000
  C   C34       1.0  0.31719  0.59946  0.78806  1.0000
  C   C35       1.0  0.68281  0.90055  0.28806  1.0000
  C   C36       1.0  0.81719  0.90055  0.21194  1.0000
  C   C37       1.0  0.81719  0.40055  0.28807  1.0000
  C   C38       1.0  0.68281  0.40055  0.21193  1.0000
  C   C39       1.0  0.31719  0.09945  0.71193  1.0000
  C   C40       1.0  0.18281  0.09945  0.78807  1.0000
  N   N1        1.0  0.68774  0.32105  0.58572  1.0000
  N   N2        1.0  0.81226  0.32105  0.91428  1.0000
  N   N3        1.0  0.18774  0.17895  0.41428  1.0000
  N   N4        1.0  0.31226  0.17895  0.08572  1.0000
  N   N5        1.0  0.31226  0.67895  0.41428  1.0000
  N   N6        1.0  0.18774  0.67895  0.08572  1.0000
  N   N7        1.0  0.81226  0.82105  0.58572  1.0000
  N   N8        1.0  0.68774  0.82105  0.91428  1.0000
  O   O1        1.0  0.94353  0.33010  0.71411  1.0000
  O   O2        1.0  0.55647  0.33010  0.78589  1.0000
  O   O3        1.0  0.44353  0.16990  0.28589  1.0000
  O   O4        1.0  0.05647  0.16990  0.21411  1.0000
  O   O5        1.0  0.05647  0.66990  0.28589  1.0000
  O   O6        1.0  0.44353  0.66990  0.21411  1.0000
  O   O7        1.0  0.55647  0.83010  0.71411  1.0000
  O   O8        1.0  0.94353  0.83010  0.78589  1.0000
  O   O9        1.0  0.10638  0.29814  0.58880  1.0000
  O   O10       1.0  0.39362  0.29814  0.91120  1.0000
  O   O11       1.0  0.60638  0.20186  0.41120  1.0000
  O   O12       1.0  0.89362  0.20186  0.08880  1.0000
  O   O13       1.0  0.89362  0.70185  0.41120  1.0000
  O   O14       1.0  0.60638  0.70186  0.08880  1.0000
  O   O15       1.0  0.39362  0.79815  0.58880  1.0000
  O   O16       1.0  0.10638  0.79815  0.91120  1.0000
  O   O17       1.0  0.41330  0.40805  0.61748  1.0000
  O   O18       1.0  0.08670  0.40805  0.88251  1.0000
  O   O19       1.0  0.91330  0.09195  0.38251  1.0000
  O   O20       1.0  0.58671  0.09195  0.11749  1.0000
  O   O21       1.0  0.58671  0.59195  0.38252  1.0000
  O   O22       1.0  0.91329  0.59195  0.11748  1.0000
  O   O23       1.0  0.08671  0.90805  0.61748  1.0000
  O   O24       1.0  0.41329  0.90805  0.88251  1.0000
  O   O25       1.0  0.50462  0.57164  0.61459  1.0000
  O   O26       1.0  0.99538  0.57164  0.88541  1.0000
  O   O27       1.0  0.00462  0.92836  0.38541  1.0000
  O   O28       1.0  0.49538  0.92836  0.11459  1.0000
  O   O29       1.0  0.49539  0.42836  0.38541  1.0000
  O   O30       1.0  0.00462  0.42836  0.11459  1.0000
  O   O31       1.0  0.99538  0.07164  0.61459  1.0000
  O   O32       1.0  0.50462  0.07164  0.88541  1.0000
  O   O33       1.0  0.13289  0.51285  0.68253  1.0000
  O   O34       1.0  0.36711  0.51285  0.81747  1.0000
  O   O35       1.0  0.63289  0.98715  0.31747  1.0000
  O   O36       1.0  0.86711  0.98715  0.18253  1.0000
  O   O37       1.0  0.86711  0.48715  0.31747  1.0000
  O   O38       1.0  0.63289  0.48715  0.18253  1.0000
  O   O39       1.0  0.36711  0.01285  0.68253  1.0000
  O   O40       1.0  0.13290  0.01285  0.81747  1.0000
  O   O41       1.0  0.13374  0.68713  0.68372  1.0000
  O   O42       1.0  0.36626  0.68713  0.81628  1.0000
  O   O43       1.0  0.63375  0.81286  0.31628  1.0000
  O   O44       1.0  0.86626  0.81286  0.18372  1.0000
  O   O45       1.0  0.86625  0.31286  0.31628  1.0000
  O   O46       1.0  0.63374  0.31286  0.18372  1.0000
  O   O47       1.0  0.36625  0.18714  0.68372  1.0000
  O   O48       1.0  0.13374  0.18714  0.81628  1.0000
