data_image0
_chemical_formula_structural       Co2Cu4H24C24N16
_chemical_formula_sum              "Co2 Cu4 H24 C24 N16"
_cell_length_a       6.09917
_cell_length_b       10.948
_cell_length_c       10.9479
_cell_angle_alpha    90.0004
_cell_angle_beta     90
_cell_angle_gamma    89.9997

_space_group_name_H-M_alt    "P 1"
_space_group_IT_number       1

loop_
  _space_group_symop_operation_xyz
  'x, y, z'

loop_
  _atom_site_type_symbol
  _atom_site_label
  _atom_site_symmetry_multiplicity
  _atom_site_fract_x
  _atom_site_fract_y
  _atom_site_fract_z
  _atom_site_occupancy
  Co  Co1       1.0  0.99999  0.50000  0.50000  1.0000
  Co  Co2       1.0  0.50000  1.00000  1.00000  1.0000
  Cu  Cu1       1.0  0.66079  0.50000  1.00000  1.0000
  Cu  Cu2       1.0  0.33921  0.00000  0.50000  1.0000
  Cu  Cu3       1.0  0.83922  1.00000  0.50000  1.0000
  Cu  Cu4       1.0  0.16078  0.50000  0.00000  1.0000
  H   H1        1.0  0.07285  0.22459  0.39968  1.0000
  H   H2        1.0  0.07285  0.77541  0.60032  1.0000
  H   H3        1.0  0.92715  0.39968  0.77541  1.0000
  H   H4        1.0  0.92715  0.60032  0.22459  1.0000
  H   H5        1.0  0.42714  0.27541  0.89967  1.0000
  H   H6        1.0  0.42714  0.72459  0.10033  1.0000
  H   H7        1.0  0.57286  0.10032  0.27541  1.0000
  H   H8        1.0  0.57286  0.89967  0.72459  1.0000
  H   H9        1.0  0.37831  0.42445  0.68167  1.0000
  H   H10       1.0  0.37831  0.57555  0.31833  1.0000
  H   H11       1.0  0.62168  0.68167  0.57555  1.0000
  H   H12       1.0  0.62168  0.31833  0.42445  1.0000
  H   H13       1.0  0.12169  0.07555  0.18167  1.0000
  H   H14       1.0  0.12169  0.92445  0.81834  1.0000
  H   H15       1.0  0.87832  0.81833  0.07554  1.0000
  H   H16       1.0  0.87832  0.18166  0.92446  1.0000
  H   H17       1.0  0.55502  0.19157  0.67493  1.0000
  H   H18       1.0  0.55502  0.80843  0.32507  1.0000
  H   H19       1.0  0.44498  0.67494  0.80843  1.0000
  H   H20       1.0  0.44498  0.32507  0.19156  1.0000
  H   H21       1.0  0.94498  0.30843  0.17493  1.0000
  H   H22       1.0  0.94498  0.69157  0.82507  1.0000
  H   H23       1.0  0.05502  0.82507  0.30843  1.0000
  H   H24       1.0  0.05502  0.17493  0.69157  1.0000
  C   C1        1.0  0.82037  0.52424  0.24668  1.0000
  C   C2        1.0  0.82037  0.47576  0.75332  1.0000
  C   C3        1.0  0.17963  0.24668  0.47576  1.0000
  C   C4        1.0  0.17962  0.75332  0.52424  1.0000
  C   C5        1.0  0.67964  0.97576  0.74668  1.0000
  C   C6        1.0  0.67964  0.02424  0.25332  1.0000
  C   C7        1.0  0.32036  0.25332  0.97576  1.0000
  C   C8        1.0  0.32036  0.74668  0.02425  1.0000
  C   C9        1.0  0.33928  0.34758  0.62299  1.0000
  C   C10       1.0  0.33929  0.65243  0.37701  1.0000
  C   C11       1.0  0.66071  0.62300  0.65243  1.0000
  C   C12       1.0  0.66071  0.37701  0.34757  1.0000
  C   C13       1.0  0.16071  0.15242  0.12299  1.0000
  C   C14       1.0  0.16071  0.84757  0.87701  1.0000
  C   C15       1.0  0.83929  0.87701  0.15242  1.0000
  C   C16       1.0  0.83929  0.12298  0.84758  1.0000
  C   C17       1.0  0.42796  0.23206  0.61914  1.0000
  C   C18       1.0  0.42796  0.76794  0.38086  1.0000
  C   C19       1.0  0.57204  0.61914  0.76794  1.0000
  C   C20       1.0  0.57204  0.38087  0.23206  1.0000
  C   C21       1.0  0.07204  0.26794  0.11914  1.0000
  C   C22       1.0  0.07203  0.73206  0.88086  1.0000
  C   C23       1.0  0.92796  0.88086  0.26794  1.0000
  C   C24       1.0  0.92796  0.11913  0.73206  1.0000
  N   N1        1.0  0.67390  0.47443  0.16797  1.0000
  N   N2        1.0  0.67390  0.52558  0.83203  1.0000
  N   N3        1.0  0.32611  0.16797  0.52557  1.0000
  N   N4        1.0  0.32611  0.83203  0.47443  1.0000
  N   N5        1.0  0.82612  0.02557  0.66797  1.0000
  N   N6        1.0  0.82612  0.97443  0.33202  1.0000
  N   N7        1.0  0.17388  0.33202  0.02557  1.0000
  N   N8        1.0  0.17388  0.66797  0.97443  1.0000
  N   N9        1.0  0.81771  0.46775  0.35612  1.0000
  N   N10       1.0  0.81771  0.53226  0.64388  1.0000
  N   N11       1.0  0.18228  0.35612  0.53225  1.0000
  N   N12       1.0  0.18228  0.64388  0.46775  1.0000
  N   N13       1.0  0.68229  0.03225  0.85612  1.0000
  N   N14       1.0  0.68229  0.96775  0.14388  1.0000
  N   N15       1.0  0.31771  0.14388  0.03225  1.0000
  N   N16       1.0  0.31771  0.85612  0.96775  1.0000
