data_image0
_chemical_formula_structural       Cu16H48C48N32
_chemical_formula_sum              "Cu16 H48 C48 N32"
_cell_length_a       11.3982
_cell_length_b       11.3982
_cell_length_c       12.7918
_cell_angle_alpha    97.1896
_cell_angle_beta     97.1896
_cell_angle_gamma    90.0407

_space_group_name_H-M_alt    "P 1"
_space_group_IT_number       1

loop_
  _space_group_symop_operation_xyz
  'x, y, z'

loop_
  _atom_site_type_symbol
  _atom_site_label
  _atom_site_symmetry_multiplicity
  _atom_site_fract_x
  _atom_site_fract_y
  _atom_site_fract_z
  _atom_site_occupancy
  Cu  Cu1       1.0  0.90236  0.07669  0.14432  1.0000
  Cu  Cu2       1.0  0.92331  0.09764  0.35569  1.0000
  Cu  Cu3       1.0  0.09764  0.92331  0.85569  1.0000
  Cu  Cu4       1.0  0.07669  0.90236  0.64431  1.0000
  Cu  Cu5       1.0  0.88934  0.57723  0.14649  1.0000
  Cu  Cu6       1.0  0.42277  0.11066  0.35351  1.0000
  Cu  Cu7       1.0  0.11066  0.42277  0.85351  1.0000
  Cu  Cu8       1.0  0.57723  0.88934  0.64649  1.0000
  Cu  Cu9       1.0  0.92033  0.60081  0.35207  1.0000
  Cu  Cu10      1.0  0.39919  0.07967  0.14793  1.0000
  Cu  Cu11      1.0  0.07967  0.39919  0.64793  1.0000
  Cu  Cu12      1.0  0.60081  0.92033  0.85207  1.0000
  Cu  Cu13      1.0  0.42095  0.61189  0.35575  1.0000
  Cu  Cu14      1.0  0.38812  0.57905  0.14425  1.0000
  Cu  Cu15      1.0  0.57905  0.38811  0.64425  1.0000
  Cu  Cu16      1.0  0.61189  0.42095  0.85575  1.0000
  H   H1        1.0  0.99582  0.82742  0.18974  1.0000
  H   H2        1.0  0.17258  0.00418  0.31026  1.0000
  H   H3        1.0  0.00418  0.17258  0.81026  1.0000
  H   H4        1.0  0.82742  0.99582  0.68974  1.0000
  H   H5        1.0  0.64760  0.70418  0.07846  1.0000
  H   H6        1.0  0.29582  0.35240  0.42155  1.0000
  H   H7        1.0  0.35240  0.29582  0.92155  1.0000
  H   H8        1.0  0.70418  0.64760  0.57845  1.0000
  H   H9        1.0  0.65977  0.94592  0.07210  1.0000
  H   H10       1.0  0.05408  0.34023  0.42790  1.0000
  H   H11       1.0  0.34023  0.05408  0.92790  1.0000
  H   H12       1.0  0.94592  0.65977  0.57210  1.0000
  H   H13       1.0  0.80741  0.33007  0.18834  1.0000
  H   H14       1.0  0.66993  0.19259  0.31166  1.0000
  H   H15       1.0  0.19259  0.66993  0.81166  1.0000
  H   H16       1.0  0.33007  0.80741  0.68834  1.0000
  H   H17       1.0  0.12346  0.20304  0.07763  1.0000
  H   H18       1.0  0.79696  0.87654  0.42237  1.0000
  H   H19       1.0  0.87654  0.79696  0.92237  1.0000
  H   H20       1.0  0.20303  0.12346  0.57763  1.0000
  H   H21       1.0  0.11578  0.44598  0.07774  1.0000
  H   H22       1.0  0.55402  0.88422  0.42226  1.0000
  H   H23       1.0  0.88422  0.55402  0.92226  1.0000
  H   H24       1.0  0.44598  0.11578  0.57774  1.0000
  H   H25       1.0  0.66987  0.69486  0.31071  1.0000
  H   H26       1.0  0.30514  0.33013  0.18929  1.0000
  H   H27       1.0  0.33013  0.30514  0.68929  1.0000
  H   H28       1.0  0.69486  0.66987  0.81071  1.0000
  H   H29       1.0  0.55249  0.38830  0.42389  1.0000
  H   H30       1.0  0.61170  0.44751  0.07611  1.0000
  H   H31       1.0  0.44751  0.61170  0.57611  1.0000
  H   H32       1.0  0.38830  0.55249  0.92389  1.0000
  H   H33       1.0  0.79448  0.37681  0.41825  1.0000
  H   H34       1.0  0.62319  0.20552  0.08175  1.0000
  H   H35       1.0  0.20552  0.62319  0.58175  1.0000
  H   H36       1.0  0.37681  0.79448  0.91825  1.0000
  H   H37       1.0  0.16702  0.50546  0.31238  1.0000
  H   H38       1.0  0.49454  0.83298  0.18762  1.0000
  H   H39       1.0  0.83298  0.49454  0.68762  1.0000
  H   H40       1.0  0.50547  0.16702  0.81238  1.0000
  H   H41       1.0  0.05267  0.84629  0.41999  1.0000
  H   H42       1.0  0.15371  0.94733  0.08001  1.0000
  H   H43       1.0  0.94733  0.15371  0.58001  1.0000
  H   H44       1.0  0.84629  0.05267  0.91999  1.0000
  H   H45       1.0  0.29616  0.85222  0.42270  1.0000
  H   H46       1.0  0.14778  0.70384  0.07730  1.0000
  H   H47       1.0  0.70384  0.14778  0.57730  1.0000
  H   H48       1.0  0.85222  0.29616  0.92270  1.0000
  C   C1        1.0  0.90271  0.82709  0.15881  1.0000
  C   C2        1.0  0.17291  0.09729  0.34119  1.0000
  C   C3        1.0  0.09729  0.17291  0.84119  1.0000
  C   C4        1.0  0.82709  0.90271  0.65881  1.0000
  C   C5        1.0  0.72164  0.76564  0.10205  1.0000
  C   C6        1.0  0.23436  0.27835  0.39795  1.0000
  C   C7        1.0  0.27835  0.23436  0.89795  1.0000
  C   C8        1.0  0.76564  0.72165  0.60205  1.0000
  C   C9        1.0  0.72799  0.88564  0.09761  1.0000
  C   C10       1.0  0.11436  0.27201  0.40239  1.0000
  C   C11       1.0  0.27201  0.11436  0.90239  1.0000
  C   C12       1.0  0.88564  0.72799  0.59761  1.0000
  C   C13       1.0  0.89240  0.32809  0.15837  1.0000
  C   C14       1.0  0.67191  0.10760  0.34163  1.0000
  C   C15       1.0  0.10760  0.67191  0.84163  1.0000
  C   C16       1.0  0.32809  0.89240  0.65837  1.0000
  C   C17       1.0  0.05691  0.26516  0.10167  1.0000
  C   C18       1.0  0.73484  0.94309  0.39833  1.0000
  C   C19       1.0  0.94309  0.73484  0.89833  1.0000
  C   C20       1.0  0.26516  0.05691  0.60167  1.0000
  C   C21       1.0  0.05294  0.38598  0.10132  1.0000
  C   C22       1.0  0.61402  0.94705  0.39868  1.0000
  C   C23       1.0  0.94705  0.61402  0.89868  1.0000
  C   C24       1.0  0.38598  0.05295  0.60132  1.0000
  C   C25       1.0  0.67042  0.60989  0.34063  1.0000
  C   C26       1.0  0.39011  0.32958  0.15937  1.0000
  C   C27       1.0  0.32958  0.39011  0.65937  1.0000
  C   C28       1.0  0.60989  0.67042  0.84063  1.0000
  C   C29       1.0  0.61249  0.45052  0.39948  1.0000
  C   C30       1.0  0.54949  0.38751  0.10052  1.0000
  C   C31       1.0  0.38751  0.54949  0.60052  1.0000
  C   C32       1.0  0.45051  0.61249  0.89948  1.0000
  C   C33       1.0  0.73261  0.44412  0.39541  1.0000
  C   C34       1.0  0.55588  0.26738  0.10459  1.0000
  C   C35       1.0  0.26738  0.55588  0.60459  1.0000
  C   C36       1.0  0.44412  0.73262  0.89541  1.0000
  C   C37       1.0  0.16952  0.59898  0.34206  1.0000
  C   C38       1.0  0.40102  0.83048  0.15794  1.0000
  C   C39       1.0  0.83048  0.40102  0.65794  1.0000
  C   C40       1.0  0.59898  0.16952  0.84206  1.0000
  C   C41       1.0  0.11253  0.77633  0.39750  1.0000
  C   C42       1.0  0.22367  0.88748  0.10250  1.0000
  C   C43       1.0  0.88748  0.22367  0.60250  1.0000
  C   C44       1.0  0.77633  0.11252  0.89750  1.0000
  C   C45       1.0  0.23358  0.77922  0.39851  1.0000
  C   C46       1.0  0.22078  0.76642  0.10149  1.0000
  C   C47       1.0  0.76642  0.22078  0.60149  1.0000
  C   C48       1.0  0.77922  0.23358  0.89851  1.0000
  N   N1        1.0  0.84313  0.92370  0.13304  1.0000
  N   N2        1.0  0.07630  0.15687  0.36696  1.0000
  N   N3        1.0  0.15687  0.07630  0.86696  1.0000
  N   N4        1.0  0.92370  0.84313  0.63304  1.0000
  N   N5        1.0  0.83274  0.72921  0.14076  1.0000
  N   N6        1.0  0.27079  0.16726  0.35924  1.0000
  N   N7        1.0  0.16726  0.27079  0.85924  1.0000
  N   N8        1.0  0.72921  0.83274  0.64076  1.0000
  N   N9        1.0  0.94818  0.42518  0.13700  1.0000
  N   N10       1.0  0.57482  0.05182  0.36300  1.0000
  N   N11       1.0  0.05182  0.57482  0.86300  1.0000
  N   N12       1.0  0.42518  0.94818  0.63700  1.0000
  N   N13       1.0  0.95478  0.22926  0.13754  1.0000
  N   N14       1.0  0.77074  0.04522  0.36246  1.0000
  N   N15       1.0  0.04522  0.77074  0.86246  1.0000
  N   N16       1.0  0.22926  0.95478  0.63754  1.0000
  N   N17       1.0  0.76859  0.54540  0.35813  1.0000
  N   N18       1.0  0.45460  0.23141  0.14187  1.0000
  N   N19       1.0  0.23141  0.45460  0.64187  1.0000
  N   N20       1.0  0.54540  0.76859  0.85813  1.0000
  N   N21       1.0  0.57395  0.55613  0.36528  1.0000
  N   N22       1.0  0.44388  0.42606  0.13472  1.0000
  N   N23       1.0  0.42606  0.44388  0.63472  1.0000
  N   N24       1.0  0.55612  0.57394  0.86528  1.0000
  N   N25       1.0  0.26884  0.66655  0.36369  1.0000
  N   N26       1.0  0.33345  0.73116  0.13631  1.0000
  N   N27       1.0  0.73116  0.33345  0.63631  1.0000
  N   N28       1.0  0.66655  0.26884  0.86369  1.0000
  N   N29       1.0  0.07261  0.66171  0.36193  1.0000
  N   N30       1.0  0.33829  0.92739  0.13807  1.0000
  N   N31       1.0  0.92739  0.33829  0.63807  1.0000
  N   N32       1.0  0.66171  0.07261  0.86193  1.0000
