data_image0
_chemical_formula_structural       Na2P4H30C12O14
_chemical_formula_sum              "Na2 P4 H30 C12 O14"
_cell_length_a       6.43668
_cell_length_b       9.11277
_cell_length_c       12.4032
_cell_angle_alpha    108.311
_cell_angle_beta     93.0566
_cell_angle_gamma    101.007

_space_group_name_H-M_alt    "P 1"
_space_group_IT_number       1

loop_
  _space_group_symop_operation_xyz
  'x, y, z'

loop_
  _atom_site_type_symbol
  _atom_site_label
  _atom_site_symmetry_multiplicity
  _atom_site_fract_x
  _atom_site_fract_y
  _atom_site_fract_z
  _atom_site_occupancy
  Na  Na1       1.0  0.80165  0.87502  0.90343  1.0000
  Na  Na2       1.0  0.19835  0.12498  0.09657  1.0000
  P   P1        1.0  0.28517  0.94645  0.81959  1.0000
  P   P2        1.0  0.71489  0.05355  0.18040  1.0000
  P   P3        1.0  0.31970  0.65724  0.88079  1.0000
  P   P4        1.0  0.68030  0.34276  0.11921  1.0000
  H   H1        1.0  0.62633  0.14110  0.94519  1.0000
  H   H2        1.0  0.37368  0.85890  0.05481  1.0000
  H   H3        1.0  0.92506  0.58977  0.78368  1.0000
  H   H4        1.0  0.07494  0.41023  0.21632  1.0000
  H   H5        1.0  0.14749  0.69089  0.59565  1.0000
  H   H6        1.0  0.85251  0.30911  0.40435  1.0000
  H   H7        1.0  0.00217  0.42682  0.61873  1.0000
  H   H8        1.0  0.99782  0.57319  0.38127  1.0000
  H   H9        1.0  0.26775  0.40776  0.64737  1.0000
  H   H10       1.0  0.73223  0.59224  0.35263  1.0000
  H   H11       1.0  0.17729  0.41789  0.51244  1.0000
  H   H12       1.0  0.82270  0.58211  0.48756  1.0000
  H   H13       1.0  0.05766  0.29596  0.90488  1.0000
  H   H14       1.0  0.94233  0.70404  0.09512  1.0000
  H   H15       1.0  0.22255  0.46183  0.01411  1.0000
  H   H16       1.0  0.77744  0.53818  0.98589  1.0000
  H   H17       1.0  0.33963  0.34657  0.89830  1.0000
  H   H18       1.0  0.66036  0.65343  0.10171  1.0000
  H   H19       1.0  0.53728  0.81857  0.65262  1.0000
  H   H20       1.0  0.46272  0.18142  0.34738  1.0000
  H   H21       1.0  0.48555  0.64291  0.53253  1.0000
  H   H22       1.0  0.51444  0.35708  0.46746  1.0000
  H   H23       1.0  0.58359  0.63968  0.66838  1.0000
  H   H24       1.0  0.41641  0.36031  0.33162  1.0000
  H   H25       1.0  0.09134  0.06419  0.59505  1.0000
  H   H26       1.0  0.90867  0.93581  0.40496  1.0000
  H   H27       1.0  0.98539  0.08205  0.72843  1.0000
  H   H28       1.0  0.01463  0.91795  0.27158  1.0000
  H   H29       1.0  0.95326  0.89065  0.62182  1.0000
  H   H30       1.0  0.04675  0.10936  0.37818  1.0000
  C   C1        1.0  0.19817  0.72435  0.77098  1.0000
  C   C2        1.0  0.80183  0.27565  0.22902  1.0000
  C   C3        1.0  0.24591  0.64460  0.64706  1.0000
  C   C4        1.0  0.75408  0.35540  0.35294  1.0000
  C   C5        1.0  0.16838  0.46387  0.60481  1.0000
  C   C6        1.0  0.83161  0.53613  0.39519  1.0000
  C   C7        1.0  0.19758  0.39266  0.92275  1.0000
  C   C8        1.0  0.80241  0.60734  0.07725  1.0000
  C   C9        1.0  0.47725  0.68992  0.62491  1.0000
  C   C10       1.0  0.52275  0.31007  0.37509  1.0000
  C   C11       1.0  0.06025  0.00812  0.66055  1.0000
  C   C12       1.0  0.93977  0.99189  0.33945  1.0000
  O   O1        1.0  0.13719  0.01712  0.90060  1.0000
  O   O2        1.0  0.86281  0.98289  0.09941  1.0000
  O   O3        1.0  0.52221  0.98820  0.86107  1.0000
  O   O4        1.0  0.47778  0.01179  0.13892  1.0000
  O   O5        1.0  0.26458  0.99423  0.70521  1.0000
  O   O6        1.0  0.73542  0.00577  0.29479  1.0000
  O   O7        1.0  0.26913  0.75583  0.00101  1.0000
  O   O8        1.0  0.73088  0.24417  0.99900  1.0000
  O   O9        1.0  0.54656  0.64668  0.87068  1.0000
  O   O10       1.0  0.45345  0.35332  0.12932  1.0000
  O   O11       1.0  0.15568  0.49075  0.85482  1.0000
  O   O12       1.0  0.84431  0.50925  0.14518  1.0000
  O   O13       1.0  0.96917  0.69325  0.77399  1.0000
  O   O14       1.0  0.03083  0.30675  0.22601  1.0000
