data_image0
_chemical_formula_structural       Hg4H36C48Br8N12
_chemical_formula_sum              "Hg4 H36 C48 Br8 N12"
_cell_length_a       6.97247
_cell_length_b       13.5567
_cell_length_c       14.2123
_cell_angle_alpha    89.9995
_cell_angle_beta     90.0001
_cell_angle_gamma    89.9995

_space_group_name_H-M_alt    "P 1"
_space_group_IT_number       1

loop_
  _space_group_symop_operation_xyz
  'x, y, z'

loop_
  _atom_site_type_symbol
  _atom_site_label
  _atom_site_symmetry_multiplicity
  _atom_site_fract_x
  _atom_site_fract_y
  _atom_site_fract_z
  _atom_site_occupancy
  Hg  Hg1       1.0  0.55784  0.40860  0.54586  1.0000
  Hg  Hg2       1.0  0.44216  0.59140  0.04587  1.0000
  Hg  Hg3       1.0  0.05784  0.09140  0.54586  1.0000
  Hg  Hg4       1.0  0.94215  0.90860  0.04586  1.0000
  H   H1        1.0  0.09641  0.34712  0.51201  1.0000
  H   H2        1.0  0.90360  0.65288  0.01201  1.0000
  H   H3        1.0  0.59640  0.15288  0.51201  1.0000
  H   H4        1.0  0.40359  0.84711  0.01201  1.0000
  H   H5        1.0  0.17011  0.04037  0.31515  1.0000
  H   H6        1.0  0.82989  0.95964  0.81515  1.0000
  H   H7        1.0  0.67011  0.45963  0.31515  1.0000
  H   H8        1.0  0.32989  0.54036  0.81515  1.0000
  H   H9        1.0  0.27905  0.05627  0.14940  1.0000
  H   H10       1.0  0.72096  0.94374  0.64940  1.0000
  H   H11       1.0  0.77904  0.44373  0.14940  1.0000
  H   H12       1.0  0.22096  0.55627  0.64940  1.0000
  H   H13       1.0  0.35757  0.21903  0.08090  1.0000
  H   H14       1.0  0.64243  0.78098  0.58090  1.0000
  H   H15       1.0  0.85757  0.28097  0.08090  1.0000
  H   H16       1.0  0.14243  0.71903  0.58090  1.0000
  H   H17       1.0  0.32025  0.37314  0.17401  1.0000
  H   H18       1.0  0.67975  0.62686  0.67401  1.0000
  H   H19       1.0  0.82024  0.12686  0.17401  1.0000
  H   H20       1.0  0.17975  0.87314  0.67401  1.0000
  H   H21       1.0  0.05656  0.48334  0.23794  1.0000
  H   H22       1.0  0.94344  0.51667  0.73794  1.0000
  H   H23       1.0  0.55656  0.01667  0.23793  1.0000
  H   H24       1.0  0.44344  0.98333  0.73794  1.0000
  H   H25       1.0  0.10163  0.66681  0.23890  1.0000
  H   H26       1.0  0.89837  0.33320  0.73890  1.0000
  H   H27       1.0  0.60163  0.83319  0.23890  1.0000
  H   H28       1.0  0.39837  0.16681  0.73890  1.0000
  H   H29       1.0  0.29557  0.74351  0.36885  1.0000
  H   H30       1.0  0.70442  0.25649  0.86885  1.0000
  H   H31       1.0  0.79557  0.75649  0.36885  1.0000
  H   H32       1.0  0.20442  0.24351  0.86885  1.0000
  H   H33       1.0  0.44447  0.63201  0.48951  1.0000
  H   H34       1.0  0.55554  0.36799  0.98952  1.0000
  H   H35       1.0  0.94446  0.86799  0.48952  1.0000
  H   H36       1.0  0.05553  0.13201  0.98951  1.0000
  C   C1        1.0  0.13351  0.31004  0.44684  1.0000
  C   C2        1.0  0.86650  0.68997  0.94684  1.0000
  C   C3        1.0  0.63351  0.18996  0.44684  1.0000
  C   C4        1.0  0.36649  0.81003  0.94685  1.0000
  C   C5        1.0  0.18226  0.19903  0.33807  1.0000
  C   C6        1.0  0.81774  0.80098  0.83808  1.0000
  C   C7        1.0  0.68226  0.30097  0.33808  1.0000
  C   C8        1.0  0.31774  0.69902  0.83808  1.0000
  C   C9        1.0  0.20097  0.11256  0.28513  1.0000
  C   C10       1.0  0.79904  0.88744  0.78513  1.0000
  C   C11       1.0  0.70097  0.38744  0.28513  1.0000
  C   C12       1.0  0.29904  0.61256  0.78513  1.0000
  C   C13       1.0  0.26269  0.12236  0.19237  1.0000
  C   C14       1.0  0.73732  0.87764  0.69236  1.0000
  C   C15       1.0  0.76269  0.37764  0.19237  1.0000
  C   C16       1.0  0.23732  0.62236  0.69237  1.0000
  C   C17       1.0  0.30621  0.21511  0.15325  1.0000
  C   C18       1.0  0.69379  0.78490  0.65325  1.0000
  C   C19       1.0  0.80621  0.28490  0.15325  1.0000
  C   C20       1.0  0.19379  0.71510  0.65325  1.0000
  C   C21       1.0  0.28769  0.30176  0.20491  1.0000
  C   C22       1.0  0.71231  0.69825  0.70491  1.0000
  C   C23       1.0  0.78768  0.19824  0.20491  1.0000
  C   C24       1.0  0.21231  0.80175  0.70491  1.0000
  C   C25       1.0  0.22438  0.29180  0.29734  1.0000
  C   C26       1.0  0.77561  0.70821  0.79734  1.0000
  C   C27       1.0  0.72439  0.20820  0.29734  1.0000
  C   C28       1.0  0.27561  0.79179  0.79734  1.0000
  C   C29       1.0  0.22374  0.46435  0.36446  1.0000
  C   C30       1.0  0.77626  0.53566  0.86447  1.0000
  C   C31       1.0  0.72374  0.03565  0.36446  1.0000
  C   C32       1.0  0.27625  0.96434  0.86447  1.0000
  C   C33       1.0  0.14121  0.51937  0.29220  1.0000
  C   C34       1.0  0.85879  0.48064  0.79220  1.0000
  C   C35       1.0  0.64122  0.98064  0.29220  1.0000
  C   C36       1.0  0.35878  0.01936  0.79220  1.0000
  C   C37       1.0  0.16609  0.62113  0.29348  1.0000
  C   C38       1.0  0.83391  0.37888  0.79349  1.0000
  C   C39       1.0  0.66609  0.87887  0.29348  1.0000
  C   C40       1.0  0.33391  0.12113  0.79349  1.0000
  C   C41       1.0  0.27303  0.66402  0.36571  1.0000
  C   C42       1.0  0.72697  0.33598  0.86571  1.0000
  C   C43       1.0  0.77303  0.83598  0.36571  1.0000
  C   C44       1.0  0.22697  0.16402  0.86571  1.0000
  C   C45       1.0  0.35427  0.60268  0.43336  1.0000
  C   C46       1.0  0.64574  0.39732  0.93336  1.0000
  C   C47       1.0  0.85426  0.89732  0.43336  1.0000
  C   C48       1.0  0.14573  0.10268  0.93336  1.0000
  Br  Br1       1.0  0.84006  0.52536  0.52044  1.0000
  Br  Br2       1.0  0.15995  0.47463  0.02043  1.0000
  Br  Br3       1.0  0.34005  0.97463  0.52043  1.0000
  Br  Br4       1.0  0.65993  0.02535  0.02040  1.0000
  Br  Br5       1.0  0.33061  0.35157  0.67361  1.0000
  Br  Br6       1.0  0.66940  0.64842  0.17361  1.0000
  Br  Br7       1.0  0.83061  0.14843  0.67361  1.0000
  Br  Br8       1.0  0.16938  0.85158  0.17361  1.0000
  N   N1        1.0  0.12438  0.21401  0.43100  1.0000
  N   N2        1.0  0.87563  0.78599  0.93100  1.0000
  N   N3        1.0  0.62437  0.28599  0.43100  1.0000
  N   N4        1.0  0.37562  0.71400  0.93100  1.0000
  N   N5        1.0  0.19426  0.36079  0.36896  1.0000
  N   N6        1.0  0.80574  0.63921  0.86896  1.0000
  N   N7        1.0  0.69426  0.13921  0.36896  1.0000
  N   N8        1.0  0.30574  0.86079  0.86896  1.0000
  N   N9        1.0  0.33096  0.50416  0.43293  1.0000
  N   N10       1.0  0.66905  0.49585  0.93294  1.0000
  N   N11       1.0  0.83096  0.99584  0.43294  1.0000
  N   N12       1.0  0.16904  0.00415  0.93294  1.0000
