data_image0
_chemical_formula_structural       Cd2H28C26I4N4
_chemical_formula_sum              "Cd2 H28 C26 I4 N4"
_cell_length_a       4.99994
_cell_length_b       11.7158
_cell_length_c       13.4523
_cell_angle_alpha    90.0004
_cell_angle_beta     89.9996
_cell_angle_gamma    90.6272

_space_group_name_H-M_alt    "P 1"
_space_group_IT_number       1

loop_
  _space_group_symop_operation_xyz
  'x, y, z'

loop_
  _atom_site_type_symbol
  _atom_site_label
  _atom_site_symmetry_multiplicity
  _atom_site_fract_x
  _atom_site_fract_y
  _atom_site_fract_z
  _atom_site_occupancy
  Cd  Cd1       1.0  0.53190  0.22222  0.75000  1.0000
  Cd  Cd2       1.0  0.46808  0.77777  0.25000  1.0000
  H   H1        1.0  0.94992  0.08238  0.61939  1.0000
  H   H2        1.0  0.05009  0.91761  0.11938  1.0000
  H   H3        1.0  0.05009  0.91761  0.38061  1.0000
  H   H4        1.0  0.94992  0.08239  0.88061  1.0000
  H   H5        1.0  0.24912  0.10746  0.47216  1.0000
  H   H6        1.0  0.75088  0.89254  0.97217  1.0000
  H   H7        1.0  0.75088  0.89254  0.52783  1.0000
  H   H8        1.0  0.24912  0.10746  0.02784  1.0000
  H   H9        1.0  0.88588  0.43572  0.42480  1.0000
  H   H10       1.0  0.11412  0.56428  0.92478  1.0000
  H   H11       1.0  0.11412  0.56428  0.57522  1.0000
  H   H12       1.0  0.88588  0.43573  0.07521  1.0000
  H   H13       1.0  0.61094  0.39981  0.57731  1.0000
  H   H14       1.0  0.38907  0.60018  0.07730  1.0000
  H   H15       1.0  0.38907  0.60018  0.42270  1.0000
  H   H16       1.0  0.61093  0.39982  0.92270  1.0000
  H   H17       1.0  0.43834  0.24043  0.34654  1.0000
  H   H18       1.0  0.56165  0.75957  0.84654  1.0000
  H   H19       1.0  0.56165  0.75957  0.65346  1.0000
  H   H20       1.0  0.43835  0.24043  0.15346  1.0000
  H   H21       1.0  0.32872  0.38415  0.34225  1.0000
  H   H22       1.0  0.67127  0.61586  0.84224  1.0000
  H   H23       1.0  0.67127  0.61586  0.65775  1.0000
  H   H24       1.0  0.32872  0.38415  0.15775  1.0000
  H   H25       1.0  0.91490  0.31926  0.25000  1.0000
  H   H26       1.0  0.08510  0.68074  0.75000  1.0000
  H   H27       1.0  0.03717  0.17777  0.25000  1.0000
  H   H28       1.0  0.96282  0.82224  0.75000  1.0000
  C   C1        1.0  0.94257  0.15966  0.57421  1.0000
  C   C2        1.0  0.05744  0.84033  0.07421  1.0000
  C   C3        1.0  0.05743  0.84033  0.42579  1.0000
  C   C4        1.0  0.94257  0.15967  0.92579  1.0000
  C   C5        1.0  0.10821  0.17417  0.49195  1.0000
  C   C6        1.0  0.89180  0.82583  0.99195  1.0000
  C   C7        1.0  0.89179  0.82583  0.50805  1.0000
  C   C8        1.0  0.10822  0.17417  0.00805  1.0000
  C   C9        1.0  0.09371  0.27467  0.43583  1.0000
  C   C10       1.0  0.90629  0.72533  0.93582  1.0000
  C   C11       1.0  0.90629  0.72533  0.56418  1.0000
  C   C12       1.0  0.09371  0.27467  0.06418  1.0000
  C   C13       1.0  0.90824  0.35643  0.46638  1.0000
  C   C14       1.0  0.09176  0.64357  0.96637  1.0000
  C   C15       1.0  0.09176  0.64357  0.53363  1.0000
  C   C16       1.0  0.90824  0.35644  0.03363  1.0000
  C   C17       1.0  0.75304  0.33685  0.55016  1.0000
  C   C18       1.0  0.24698  0.66315  0.05015  1.0000
  C   C19       1.0  0.24698  0.66315  0.44985  1.0000
  C   C20       1.0  0.75303  0.33685  0.94984  1.0000
  C   C21       1.0  0.26011  0.29449  0.34460  1.0000
  C   C22       1.0  0.73988  0.70552  0.84460  1.0000
  C   C23       1.0  0.73988  0.70552  0.65540  1.0000
  C   C24       1.0  0.26012  0.29449  0.15540  1.0000
  C   C25       1.0  0.09893  0.26825  0.25000  1.0000
  C   C26       1.0  0.90107  0.73175  0.75000  1.0000
  I   I1        1.0  0.41406  0.99237  0.75000  1.0000
  I   I2        1.0  0.58593  0.00762  0.25000  1.0000
  I   I3        1.0  0.24260  0.42161  0.75000  1.0000
  I   I4        1.0  0.75741  0.57839  0.25000  1.0000
  N   N1        1.0  0.76906  0.23999  0.60350  1.0000
  N   N2        1.0  0.23095  0.76000  0.10349  1.0000
  N   N3        1.0  0.23094  0.76000  0.39651  1.0000
  N   N4        1.0  0.76906  0.24000  0.89651  1.0000
