data_image0
_chemical_formula_structural       Hg4H32C40N32
_chemical_formula_sum              "Hg4 H32 C40 N32"
_cell_length_a       6.16625
_cell_length_b       10.3718
_cell_length_c       17.8909
_cell_angle_alpha    90.0003
_cell_angle_beta     89.9994
_cell_angle_gamma    96.1052

_space_group_name_H-M_alt    "P 1"
_space_group_IT_number       1

loop_
  _space_group_symop_operation_xyz
  'x, y, z'

loop_
  _atom_site_type_symbol
  _atom_site_label
  _atom_site_symmetry_multiplicity
  _atom_site_fract_x
  _atom_site_fract_y
  _atom_site_fract_z
  _atom_site_occupancy
  Hg  Hg1       1.0  0.63152  0.01437  0.86707  1.0000
  Hg  Hg2       1.0  0.36848  0.48563  0.36707  1.0000
  Hg  Hg3       1.0  0.36848  0.98563  0.13293  1.0000
  Hg  Hg4       1.0  0.63153  0.51437  0.63293  1.0000
  H   H1        1.0  0.55774  0.09658  0.61126  1.0000
  H   H2        1.0  0.44226  0.40341  0.11126  1.0000
  H   H3        1.0  0.44223  0.90340  0.38874  1.0000
  H   H4        1.0  0.55776  0.59659  0.88875  1.0000
  H   H5        1.0  0.57295  0.90246  0.53185  1.0000
  H   H6        1.0  0.42706  0.59754  0.03184  1.0000
  H   H7        1.0  0.42703  0.09752  0.46816  1.0000
  H   H8        1.0  0.57296  0.40246  0.96816  1.0000
  H   H9        1.0  0.21962  0.86352  0.61256  1.0000
  H   H10       1.0  0.78040  0.63649  0.11256  1.0000
  H   H11       1.0  0.78040  0.13650  0.38742  1.0000
  H   H12       1.0  0.21961  0.36351  0.88743  1.0000
  H   H13       1.0  0.20007  0.05073  0.69544  1.0000
  H   H14       1.0  0.79993  0.44927  0.19543  1.0000
  H   H15       1.0  0.79993  0.94927  0.30456  1.0000
  H   H16       1.0  0.20006  0.55073  0.80456  1.0000
  H   H17       1.0  0.99365  0.20431  0.75277  1.0000
  H   H18       1.0  0.00635  0.29569  0.25277  1.0000
  H   H19       1.0  0.00634  0.79568  0.24722  1.0000
  H   H20       1.0  0.99366  0.70432  0.74724  1.0000
  H   H21       1.0  0.96643  0.29632  0.67233  1.0000
  H   H22       1.0  0.03357  0.20368  0.17232  1.0000
  H   H23       1.0  0.03355  0.70367  0.32767  1.0000
  H   H24       1.0  0.96643  0.79632  0.82768  1.0000
  H   H25       1.0  0.75319  0.71359  0.49724  1.0000
  H   H26       1.0  0.24682  0.78642  0.99724  1.0000
  H   H27       1.0  0.24683  0.28641  0.50276  1.0000
  H   H28       1.0  0.75317  0.21359  0.00276  1.0000
  H   H29       1.0  0.99350  0.79566  0.45923  1.0000
  H   H30       1.0  0.00651  0.70434  0.95924  1.0000
  H   H31       1.0  0.00651  0.20433  0.54076  1.0000
  H   H32       1.0  0.99348  0.29566  0.04077  1.0000
  C   C1        1.0  0.88099  0.09044  0.65773  1.0000
  C   C2        1.0  0.11900  0.40957  0.15774  1.0000
  C   C3        1.0  0.11900  0.90956  0.34226  1.0000
  C   C4        1.0  0.88099  0.59044  0.84227  1.0000
  C   C5        1.0  0.70426  0.04600  0.61185  1.0000
  C   C6        1.0  0.29575  0.45400  0.11185  1.0000
  C   C7        1.0  0.29573  0.95401  0.38815  1.0000
  C   C8        1.0  0.70425  0.54600  0.88816  1.0000
  C   C9        1.0  0.71317  0.93711  0.56635  1.0000
  C   C10       1.0  0.28683  0.56289  0.06635  1.0000
  C   C11       1.0  0.28682  0.06287  0.43365  1.0000
  C   C12       1.0  0.71317  0.43711  0.93366  1.0000
  C   C13       1.0  0.90059  0.87193  0.56469  1.0000
  C   C14       1.0  0.09943  0.62808  0.06469  1.0000
  C   C15       1.0  0.09941  0.12808  0.43531  1.0000
  C   C16       1.0  0.90057  0.37192  0.93531  1.0000
  C   C17       1.0  0.07519  0.91522  0.61127  1.0000
  C   C18       1.0  0.92482  0.58478  0.11128  1.0000
  C   C19       1.0  0.92481  0.08477  0.38872  1.0000
  C   C20       1.0  0.07519  0.41522  0.88873  1.0000
  C   C21       1.0  0.06454  0.02182  0.65785  1.0000
  C   C22       1.0  0.93548  0.47818  0.15786  1.0000
  C   C23       1.0  0.93546  0.97818  0.34214  1.0000
  C   C24       1.0  0.06453  0.52182  0.84215  1.0000
  C   C25       1.0  0.88756  0.21310  0.70412  1.0000
  C   C26       1.0  0.11244  0.28690  0.20411  1.0000
  C   C27       1.0  0.11242  0.78689  0.29588  1.0000
  C   C28       1.0  0.88756  0.71310  0.79589  1.0000
  C   C29       1.0  0.67289  0.24465  0.73121  1.0000
  C   C30       1.0  0.32711  0.25535  0.23120  1.0000
  C   C31       1.0  0.32710  0.75534  0.26879  1.0000
  C   C32       1.0  0.67290  0.74465  0.76880  1.0000
  C   C33       1.0  0.91716  0.75906  0.51165  1.0000
  C   C34       1.0  0.08286  0.74094  0.01165  1.0000
  C   C35       1.0  0.08286  0.24094  0.48835  1.0000
  C   C36       1.0  0.91715  0.25905  0.98835  1.0000
  C   C37       1.0  0.04761  0.65869  0.54269  1.0000
  C   C38       1.0  0.95241  0.84132  0.04269  1.0000
  C   C39       1.0  0.95241  0.34132  0.45732  1.0000
  C   C40       1.0  0.04759  0.15868  0.95731  1.0000
  N   N1        1.0  0.55602  0.18098  0.78543  1.0000
  N   N2        1.0  0.44397  0.31902  0.28543  1.0000
  N   N3        1.0  0.44397  0.81902  0.21457  1.0000
  N   N4        1.0  0.55603  0.68098  0.71457  1.0000
  N   N5        1.0  0.37132  0.23907  0.79422  1.0000
  N   N6        1.0  0.62867  0.26092  0.29422  1.0000
  N   N7        1.0  0.62867  0.76093  0.20578  1.0000
  N   N8        1.0  0.37133  0.73908  0.70579  1.0000
  N   N9        1.0  0.37340  0.33527  0.74739  1.0000
  N   N10       1.0  0.62660  0.16473  0.24738  1.0000
  N   N11       1.0  0.62660  0.66474  0.25262  1.0000
  N   N12       1.0  0.37340  0.83527  0.75262  1.0000
  N   N13       1.0  0.55973  0.34041  0.70680  1.0000
  N   N14       1.0  0.44027  0.15959  0.20679  1.0000
  N   N15       1.0  0.44027  0.65958  0.29320  1.0000
  N   N16       1.0  0.55973  0.84042  0.79321  1.0000
  N   N17       1.0  0.96261  0.56057  0.58742  1.0000
  N   N18       1.0  0.03739  0.93944  0.08743  1.0000
  N   N19       1.0  0.03740  0.43944  0.41258  1.0000
  N   N20       1.0  0.96261  0.06056  0.91258  1.0000
  N   N21       1.0  0.12419  0.49160  0.60789  1.0000
  N   N22       1.0  0.87581  0.00840  0.10789  1.0000
  N   N23       1.0  0.87582  0.50840  0.39211  1.0000
  N   N24       1.0  0.12419  0.99160  0.89211  1.0000
  N   N25       1.0  0.30173  0.54697  0.57553  1.0000
  N   N26       1.0  0.69828  0.95303  0.07553  1.0000
  N   N27       1.0  0.69828  0.45303  0.42447  1.0000
  N   N28       1.0  0.30172  0.04697  0.92447  1.0000
  N   N29       1.0  0.26195  0.65145  0.53453  1.0000
  N   N30       1.0  0.73806  0.84856  0.03453  1.0000
  N   N31       1.0  0.73807  0.34855  0.46547  1.0000
  N   N32       1.0  0.26193  0.15145  0.96547  1.0000
