data_image0
_chemical_formula_structural       Ag2H8C10N8
_chemical_formula_sum              "Ag2 H8 C10 N8"
_cell_length_a       4.90502
_cell_length_b       5.2058
_cell_length_c       11.9133
_cell_angle_alpha    86.2065
_cell_angle_beta     79.569
_cell_angle_gamma    76.4275

_space_group_name_H-M_alt    "P 1"
_space_group_IT_number       1

loop_
  _space_group_symop_operation_xyz
  'x, y, z'

loop_
  _atom_site_type_symbol
  _atom_site_label
  _atom_site_symmetry_multiplicity
  _atom_site_fract_x
  _atom_site_fract_y
  _atom_site_fract_z
  _atom_site_occupancy
  Ag  Ag1       1.0  0.68181  0.15912  0.42111  1.0000
  Ag  Ag2       1.0  0.31818  0.84089  0.57889  1.0000
  H   H1        1.0  0.29942  0.57780  0.05933  1.0000
  H   H2        1.0  0.70058  0.42218  0.94067  1.0000
  H   H3        1.0  0.51859  0.17058  0.11224  1.0000
  H   H4        1.0  0.48141  0.82943  0.88776  1.0000
  H   H5        1.0  0.57705  0.81623  0.24112  1.0000
  H   H6        1.0  0.42292  0.18378  0.75888  1.0000
  H   H7        1.0  0.74968  0.51567  0.17094  1.0000
  H   H8        1.0  0.25032  0.48436  0.82908  1.0000
  C   C1        1.0  0.89758  0.85730  0.09690  1.0000
  C   C2        1.0  0.10244  0.14272  0.90311  1.0000
  C   C3        1.0  0.16789  0.76334  0.03305  1.0000
  C   C4        1.0  0.83210  0.23666  0.96696  1.0000
  C   C5        1.0  0.73020  0.09618  0.06294  1.0000
  C   C6        1.0  0.26978  0.90379  0.93706  1.0000
  C   C7        1.0  0.78356  0.70099  0.19923  1.0000
  C   C8        1.0  0.21641  0.29905  0.80077  1.0000
  C   C9        1.0  0.97891  0.63264  0.28434  1.0000
  C   C10       1.0  0.02111  0.36731  0.71565  1.0000
  N   N1        1.0  0.18665  0.41233  0.28512  1.0000
  N   N2        1.0  0.81339  0.58766  0.71486  1.0000
  N   N3        1.0  0.31487  0.44053  0.37252  1.0000
  N   N4        1.0  0.68516  0.55949  0.62748  1.0000
  N   N5        1.0  0.19198  0.66690  0.42363  1.0000
  N   N6        1.0  0.80803  0.33311  0.57637  1.0000
  N   N7        1.0  0.97907  0.79097  0.36956  1.0000
  N   N8        1.0  0.02094  0.20899  0.63043  1.0000
