data_image0
_chemical_formula_structural       Cu4H18C16I4N6
_chemical_formula_sum              "Cu4 H18 C16 I4 N6"
_cell_length_a       7.54069
_cell_length_b       7.65232
_cell_length_c       11.1737
_cell_angle_alpha    104.483
_cell_angle_beta     104.273
_cell_angle_gamma    95.8983

_space_group_name_H-M_alt    "P 1"
_space_group_IT_number       1

loop_
  _space_group_symop_operation_xyz
  'x, y, z'

loop_
  _atom_site_type_symbol
  _atom_site_label
  _atom_site_symmetry_multiplicity
  _atom_site_fract_x
  _atom_site_fract_y
  _atom_site_fract_z
  _atom_site_occupancy
  Cu  Cu1       1.0  0.37225  0.71106  0.29239  1.0000
  Cu  Cu2       1.0  0.62775  0.28894  0.70761  1.0000
  Cu  Cu3       1.0  0.49038  0.07930  0.41051  1.0000
  Cu  Cu4       1.0  0.50962  0.92071  0.58949  1.0000
  H   H1        1.0  0.41649  0.81988  0.78215  1.0000
  H   H2        1.0  0.58352  0.18012  0.21785  1.0000
  H   H3        1.0  0.19909  0.89321  0.76696  1.0000
  H   H4        1.0  0.80092  0.10679  0.23305  1.0000
  H   H5        1.0  0.28360  0.53168  0.82143  1.0000
  H   H6        1.0  0.71639  0.46830  0.17855  1.0000
  H   H7        1.0  0.25068  0.72533  0.93507  1.0000
  H   H8        1.0  0.74933  0.27465  0.06492  1.0000
  H   H9        1.0  0.07484  0.30853  0.18573  1.0000
  H   H10       1.0  0.92517  0.69147  0.81428  1.0000
  H   H11       1.0  0.03639  0.52307  0.16182  1.0000
  H   H12       1.0  0.96360  0.47693  0.83817  1.0000
  H   H13       1.0  0.41913  0.22916  0.89585  1.0000
  H   H14       1.0  0.58087  0.77083  0.10415  1.0000
  H   H15       1.0  0.17516  0.20253  0.88246  1.0000
  H   H16       1.0  0.82484  0.79748  0.11754  1.0000
  H   H17       1.0  0.32229  0.10584  0.98980  1.0000
  H   H18       1.0  0.67769  0.89416  0.01020  1.0000
  C   C1        1.0  0.07023  0.50752  0.35344  1.0000
  C   C2        1.0  0.92976  0.49249  0.64656  1.0000
  C   C3        1.0  0.96723  0.45768  0.43379  1.0000
  C   C4        1.0  0.03277  0.54233  0.56621  1.0000
  C   C5        1.0  0.20014  0.67170  0.61331  1.0000
  C   C6        1.0  0.79987  0.32831  0.38668  1.0000
  C   C7        1.0  0.26573  0.77051  0.75346  1.0000
  C   C8        1.0  0.73428  0.22949  0.24655  1.0000
  C   C9        1.0  0.20953  0.64852  0.83241  1.0000
  C   C10       1.0  0.79048  0.35147  0.16759  1.0000
  C   C11       1.0  0.99979  0.42284  0.21098  1.0000
  C   C12       1.0  0.00022  0.57717  0.78903  1.0000
  C   C13       1.0  0.34570  0.38760  0.05309  1.0000
  C   C14       1.0  0.65430  0.61241  0.94692  1.0000
  C   C15       1.0  0.31512  0.22283  0.94911  1.0000
  C   C16       1.0  0.68488  0.77717  0.05089  1.0000
  I   I1        1.0  0.77766  0.03847  0.80934  1.0000
  I   I2        1.0  0.22233  0.96152  0.19066  1.0000
  I   I3        1.0  0.72077  0.83022  0.42694  1.0000
  I   I4        1.0  0.27923  0.16979  0.57306  1.0000
  N   N1        1.0  0.22884  0.62800  0.40336  1.0000
  N   N2        1.0  0.77117  0.37202  0.59663  1.0000
  N   N3        1.0  0.29572  0.70866  0.53437  1.0000
  N   N4        1.0  0.70427  0.29134  0.46563  1.0000
  N   N5        1.0  0.36847  0.51790  0.13957  1.0000
  N   N6        1.0  0.63153  0.48208  0.86042  1.0000
