data_image0
_chemical_formula_structural       Co2H18C12N6O12
_chemical_formula_sum              "Co2 H18 C12 N6 O12"
_cell_length_a       4.87943
_cell_length_b       9.63051
_cell_length_c       9.91188
_cell_angle_alpha    89.999
_cell_angle_beta     89.999
_cell_angle_gamma    96.8538

_space_group_name_H-M_alt    "P 1"
_space_group_IT_number       1

loop_
  _space_group_symop_operation_xyz
  'x, y, z'

loop_
  _atom_site_type_symbol
  _atom_site_label
  _atom_site_symmetry_multiplicity
  _atom_site_fract_x
  _atom_site_fract_y
  _atom_site_fract_z
  _atom_site_occupancy
  Co  Co1       1.0  0.49071  0.32434  0.89771  1.0000
  Co  Co2       1.0  0.50929  0.67567  0.39771  1.0000
  H   H1        1.0  0.26299  0.06281  0.32218  1.0000
  H   H2        1.0  0.73700  0.93719  0.82217  1.0000
  H   H3        1.0  0.60230  0.15264  0.34104  1.0000
  H   H4        1.0  0.39769  0.84736  0.84104  1.0000
  H   H5        1.0  0.31849  0.24974  0.32599  1.0000
  H   H6        1.0  0.68150  0.75026  0.82599  1.0000
  H   H7        1.0  0.85909  0.99811  0.43510  1.0000
  H   H8        1.0  0.14092  0.00189  0.93510  1.0000
  H   H9        1.0  0.76623  0.95055  0.60275  1.0000
  H   H10       1.0  0.23377  0.04945  0.10275  1.0000
  H   H11       1.0  0.82539  0.52896  0.02703  1.0000
  H   H12       1.0  0.17461  0.47104  0.52703  1.0000
  H   H13       1.0  0.62301  0.45347  0.13492  1.0000
  H   H14       1.0  0.37699  0.54654  0.63491  1.0000
  H   H15       1.0  0.26224  0.55923  0.88702  1.0000
  H   H16       1.0  0.73776  0.44077  0.38702  1.0000
  H   H17       1.0  0.10339  0.45493  0.78345  1.0000
  H   H18       1.0  0.89662  0.54507  0.28345  1.0000
  C   C1        1.0  0.74132  0.33078  0.62482  1.0000
  C   C2        1.0  0.25869  0.66922  0.12484  1.0000
  C   C3        1.0  0.49153  0.22884  0.61936  1.0000
  C   C4        1.0  0.50847  0.77116  0.11935  1.0000
  C   C5        1.0  0.35026  0.15179  0.51676  1.0000
  C   C6        1.0  0.64973  0.84820  0.01676  1.0000
  C   C7        1.0  0.38467  0.15342  0.36824  1.0000
  C   C8        1.0  0.61532  0.84658  0.86824  1.0000
  C   C9        1.0  0.93853  0.96475  0.53182  1.0000
  C   C10       1.0  0.06148  0.03526  0.03182  1.0000
  C   C11       1.0  0.05207  0.82514  0.50552  1.0000
  C   C12       1.0  0.94794  0.17486  0.00552  1.0000
  N   N1        1.0  0.35996  0.19384  0.73818  1.0000
  N   N2        1.0  0.64004  0.80616  0.23817  1.0000
  N   N3        1.0  0.14903  0.09859  0.71763  1.0000
  N   N4        1.0  0.85097  0.90141  0.21763  1.0000
  N   N5        1.0  0.14260  0.07316  0.58327  1.0000
  N   N6        1.0  0.85740  0.92684  0.08327  1.0000
  O   O1        1.0  0.79703  0.38262  0.74261  1.0000
  O   O2        1.0  0.20297  0.61738  0.24260  1.0000
  O   O3        1.0  0.88563  0.35696  0.51956  1.0000
  O   O4        1.0  0.11436  0.64303  0.01955  1.0000
  O   O5        1.0  0.31045  0.82948  0.48860  1.0000
  O   O6        1.0  0.68956  0.17052  0.98860  1.0000
  O   O7        1.0  0.87711  0.71705  0.49868  1.0000
  O   O8        1.0  0.12289  0.28295  0.99867  1.0000
  O   O9        1.0  0.63921  0.47336  0.03719  1.0000
  O   O10       1.0  0.36080  0.52664  0.53720  1.0000
  O   O11       1.0  0.29523  0.49713  0.80996  1.0000
  O   O12       1.0  0.70477  0.50287  0.30996  1.0000
