data_image0
_chemical_formula_structural       CuH28C30N4Cl2O4
_chemical_formula_sum              "Cu1 H28 C30 N4 Cl2 O4"
_cell_length_a       8.66403
_cell_length_b       8.53005
_cell_length_c       9.58967
_cell_angle_alpha    86.5791
_cell_angle_beta     73.962
_cell_angle_gamma    77.3083

_space_group_name_H-M_alt    "P 1"
_space_group_IT_number       1

loop_
  _space_group_symop_operation_xyz
  'x, y, z'

loop_
  _atom_site_type_symbol
  _atom_site_label
  _atom_site_symmetry_multiplicity
  _atom_site_fract_x
  _atom_site_fract_y
  _atom_site_fract_z
  _atom_site_occupancy
  Cu  Cu1       1.0  1.00000  0.50000  0.00000  1.0000
  H   H1        1.0  0.91178  0.81294  0.84384  1.0000
  H   H2        1.0  0.08821  0.18705  0.15615  1.0000
  H   H3        1.0  0.64248  0.17098  0.28348  1.0000
  H   H4        1.0  0.35752  0.82902  0.71652  1.0000
  H   H5        1.0  0.02989  0.64575  0.31984  1.0000
  H   H6        1.0  0.97011  0.35425  0.68016  1.0000
  H   H7        1.0  0.58326  0.21120  0.53370  1.0000
  H   H8        1.0  0.41674  0.78880  0.46630  1.0000
  H   H9        1.0  0.75623  0.14655  0.60386  1.0000
  H   H10       1.0  0.24377  0.85345  0.39614  1.0000
  H   H11       1.0  0.59787  0.03685  0.64269  1.0000
  H   H12       1.0  0.40214  0.96315  0.35730  1.0000
  H   H13       1.0  0.99364  0.69489  0.56898  1.0000
  H   H14       1.0  0.00636  0.30511  0.43102  1.0000
  H   H15       1.0  0.79120  0.79328  0.65958  1.0000
  H   H16       1.0  0.20880  0.20672  0.34041  1.0000
  H   H17       1.0  0.95247  0.90026  0.61712  1.0000
  H   H18       1.0  0.04753  0.09974  0.38289  1.0000
  H   H19       1.0  0.73661  0.08940  0.84901  1.0000
  H   H20       1.0  0.26339  0.91060  0.15099  1.0000
  H   H21       1.0  0.70438  0.21565  0.99869  1.0000
  H   H22       1.0  0.29562  0.78435  0.00130  1.0000
  H   H23       1.0  0.46831  0.09924  0.13771  1.0000
  H   H24       1.0  0.53169  0.90076  0.86229  1.0000
  H   H25       1.0  0.44093  0.18158  0.97110  1.0000
  H   H26       1.0  0.55907  0.81842  0.02889  1.0000
  H   H27       1.0  0.78439  0.53396  0.46218  1.0000
  H   H28       1.0  0.21561  0.46604  0.53782  1.0000
  C   C1        1.0  0.89472  0.83552  0.95762  1.0000
  C   C2        1.0  0.10528  0.16447  0.04238  1.0000
  C   C3        1.0  0.80393  0.95706  0.17104  1.0000
  C   C4        1.0  0.19607  0.04293  0.82896  1.0000
  C   C5        1.0  0.72550  0.05669  0.29136  1.0000
  C   C6        1.0  0.27450  0.94332  0.70863  1.0000
  C   C7        1.0  0.75564  0.00505  0.42404  1.0000
  C   C8        1.0  0.24436  0.99495  0.57596  1.0000
  C   C9        1.0  0.86833  0.85774  0.43377  1.0000
  C   C10       1.0  0.13167  0.14227  0.56623  1.0000
  C   C11       1.0  0.94490  0.75899  0.31257  1.0000
  C   C12       1.0  0.05510  0.24101  0.68743  1.0000
  C   C13       1.0  0.90911  0.80733  0.18116  1.0000
  C   C14       1.0  0.09089  0.19266  0.81884  1.0000
  C   C15       1.0  0.66899  0.10530  0.55758  1.0000
  C   C16       1.0  0.33101  0.89471  0.44242  1.0000
  C   C17       1.0  0.90349  0.80869  0.57676  1.0000
  C   C18       1.0  0.09651  0.19131  0.42324  1.0000
  C   C19       1.0  0.69149  0.09820  0.96770  1.0000
  C   C20       1.0  0.30851  0.90180  0.03230  1.0000
  C   C21       1.0  0.51255  0.08105  0.01934  1.0000
  C   C22       1.0  0.48745  0.91896  0.98065  1.0000
  C   C23       1.0  0.60597  0.50027  0.35693  1.0000
  C   C24       1.0  0.39404  0.49974  0.64308  1.0000
  C   C25       1.0  0.72287  0.50812  0.20841  1.0000
  C   C26       1.0  0.27713  0.49188  0.79160  1.0000
  C   C27       1.0  0.65932  0.51827  0.47922  1.0000
  C   C28       1.0  0.34068  0.48174  0.52079  1.0000
  C   C29       1.0  0.44318  0.48185  0.38014  1.0000
  C   C30       1.0  0.55683  0.51815  0.61987  1.0000
  N   N1        1.0  0.96232  0.73309  0.04555  1.0000
  N   N2        1.0  0.03768  0.26690  0.95445  1.0000
  N   N3        1.0  0.79990  0.97214  0.02679  1.0000
  N   N4        1.0  0.20010  0.02786  0.97321  1.0000
  Cl  Cl1       1.0  0.36431  0.45841  0.23699  1.0000
  Cl  Cl2       1.0  0.63569  0.54159  0.76302  1.0000
  O   O1        1.0  0.87699  0.45503  0.20235  1.0000
  O   O2        1.0  0.12301  0.54497  0.79765  1.0000
  O   O3        1.0  0.67049  0.56581  0.10335  1.0000
  O   O4        1.0  0.32951  0.43419  0.89666  1.0000
