data_image0
_chemical_formula_structural       Co2H36C52N8Cl4O8
_chemical_formula_sum              "Co2 H36 C52 N8 Cl4 O8"
_cell_length_a       9.72622
_cell_length_b       10.2139
_cell_length_c       12.5756
_cell_angle_alpha    81.5462
_cell_angle_beta     86.1152
_cell_angle_gamma    79.7319

_space_group_name_H-M_alt    "P 1"
_space_group_IT_number       1

loop_
  _space_group_symop_operation_xyz
  'x, y, z'

loop_
  _atom_site_type_symbol
  _atom_site_label
  _atom_site_symmetry_multiplicity
  _atom_site_fract_x
  _atom_site_fract_y
  _atom_site_fract_z
  _atom_site_occupancy
  Co  Co1       1.0  0.24460  0.38009  0.25510  1.0000
  Co  Co2       1.0  0.75479  0.62117  0.74382  1.0000
  H   H1        1.0  0.92919  0.55244  0.25102  1.0000
  H   H2        1.0  0.06993  0.44857  0.74792  1.0000
  H   H3        1.0  0.89878  0.94786  0.68484  1.0000
  H   H4        1.0  0.10077  0.05113  0.31608  1.0000
  H   H5        1.0  0.66993  0.89459  0.23954  1.0000
  H   H6        1.0  0.33086  0.10621  0.76006  1.0000
  H   H7        1.0  0.30146  0.67799  0.25607  1.0000
  H   H8        1.0  0.69870  0.32389  0.74719  1.0000
  H   H9        1.0  0.67178  0.61405  0.17544  1.0000
  H   H10       1.0  0.32777  0.38665  0.82456  1.0000
  H   H11       1.0  0.37805  0.48357  0.02877  1.0000
  H   H12       1.0  0.62124  0.51704  0.97048  1.0000
  H   H13       1.0  0.57055  0.77627  0.40681  1.0000
  H   H14       1.0  0.43115  0.22581  0.59355  1.0000
  H   H15       1.0  0.43653  0.84192  0.31587  1.0000
  H   H16       1.0  0.56488  0.15938  0.68473  1.0000
  H   H17       1.0  0.50620  0.19505  0.37577  1.0000
  H   H18       1.0  0.49325  0.80652  0.62552  1.0000
  H   H19       1.0  0.39127  0.81657  0.94717  1.0000
  H   H20       1.0  0.60868  0.18018  0.05270  1.0000
  H   H21       1.0  0.76328  0.74328  0.00631  1.0000
  H   H22       1.0  0.23551  0.25667  0.99308  1.0000
  H   H23       1.0  0.81767  0.85578  0.08447  1.0000
  H   H24       1.0  0.18123  0.14491  0.91424  1.0000
  H   H25       1.0  0.75824  0.56641  0.44283  1.0000
  H   H26       1.0  0.24405  0.43358  0.55774  1.0000
  H   H27       1.0  0.73631  0.14292  0.46496  1.0000
  H   H28       1.0  0.26400  0.85752  0.53490  1.0000
  H   H29       1.0  0.95978  0.80602  0.87553  1.0000
  H   H30       1.0  0.04007  0.19535  0.12346  1.0000
  H   H31       1.0  0.85912  0.32496  0.49697  1.0000
  H   H32       1.0  0.14255  0.67459  0.50272  1.0000
  H   H33       1.0  0.18461  0.76549  0.76755  1.0000
  H   H34       1.0  0.81540  0.23511  0.23167  1.0000
  H   H35       1.0  0.39049  0.61229  0.84362  1.0000
  H   H36       1.0  0.60930  0.38819  0.15588  1.0000
  C   C1        1.0  0.16238  0.57612  0.05621  1.0000
  C   C2        1.0  0.83690  0.42503  0.94283  1.0000
  C   C3        1.0  0.50747  0.40978  0.35712  1.0000
  C   C4        1.0  0.49248  0.59173  0.64498  1.0000
  C   C5        1.0  0.99126  0.57583  0.17791  1.0000
  C   C6        1.0  0.00796  0.42530  0.82111  1.0000
  C   C7        1.0  0.94525  0.96944  0.60441  1.0000
  C   C8        1.0  0.05486  0.02896  0.39662  1.0000
  C   C9        1.0  0.04593  0.66710  0.01283  1.0000
  C   C10       1.0  0.95342  0.33396  0.98617  1.0000
  C   C11       1.0  0.06921  0.11124  0.47352  1.0000
  C   C12       1.0  0.93108  0.88706  0.52754  1.0000
  C   C13       1.0  0.01310  0.07953  0.57797  1.0000
  C   C14       1.0  0.98714  0.91885  0.42304  1.0000
  C   C15       1.0  0.64054  0.79570  0.24229  1.0000
  C   C16       1.0  0.36017  0.20505  0.75773  1.0000
  C   C17       1.0  0.44079  0.06565  0.08692  1.0000
  C   C18       1.0  0.55838  0.93196  0.91202  1.0000
  C   C19       1.0  0.38317  0.60202  0.29349  1.0000
  C   C20       1.0  0.61703  0.39972  0.70950  1.0000
  C   C21       1.0  0.57946  0.51259  0.37522  1.0000
  C   C22       1.0  0.42163  0.48835  0.62618  1.0000
  C   C23       1.0  0.69998  0.71337  0.17265  1.0000
  C   C24       1.0  0.29968  0.28734  0.82705  1.0000
  C   C25       1.0  0.14995  0.22424  0.43953  1.0000
  C   C26       1.0  0.85119  0.77344  0.56066  1.0000
  C   C27       1.0  0.28877  0.55482  0.99613  1.0000
  C   C28       1.0  0.71060  0.44596  0.00316  1.0000
  C   C29       1.0  0.53211  0.76658  0.32854  1.0000
  C   C30       1.0  0.46924  0.23466  0.67217  1.0000
  C   C31       1.0  0.38145  0.13866  0.18015  1.0000
  C   C32       1.0  0.61706  0.85934  0.81843  1.0000
  C   C33       1.0  0.56228  0.27439  0.38891  1.0000
  C   C34       1.0  0.43750  0.72691  0.61236  1.0000
  C   C35       1.0  0.43899  0.89676  0.96957  1.0000
  C   C36       1.0  0.56044  0.10059  0.02975  1.0000
  C   C37       1.0  0.38094  0.96335  0.05520  1.0000
  C   C38       1.0  0.61834  0.03432  0.94387  1.0000
  C   C39       1.0  0.80231  0.75157  0.08482  1.0000
  C   C40       1.0  0.19676  0.24901  0.91429  1.0000
  C   C41       1.0  0.70689  0.48570  0.42568  1.0000
  C   C42       1.0  0.29488  0.51461  0.57487  1.0000
  C   C43       1.0  0.69010  0.24701  0.43852  1.0000
  C   C44       1.0  0.31032  0.75360  0.56185  1.0000
  C   C45       1.0  0.05037  0.73771  0.90909  1.0000
  C   C46       1.0  0.94927  0.26329  0.08992  1.0000
  C   C47       1.0  0.76035  0.35069  0.45681  1.0000
  C   C48       1.0  0.24093  0.64939  0.54339  1.0000
  C   C49       1.0  0.17643  0.71483  0.84967  1.0000
  C   C50       1.0  0.82333  0.28584  0.14953  1.0000
  C   C51       1.0  0.29370  0.62573  0.89282  1.0000
  C   C52       1.0  0.70593  0.37480  0.10646  1.0000
  N   N1        1.0  0.49707  0.63290  0.33409  1.0000
  N   N2        1.0  0.50407  0.36834  0.66763  1.0000
  N   N3        1.0  0.38445  0.46973  0.30564  1.0000
  N   N4        1.0  0.61492  0.53225  0.69746  1.0000
  N   N5        1.0  0.12417  0.52066  0.15967  1.0000
  N   N6        1.0  0.87503  0.48072  0.83934  1.0000
  N   N7        1.0  0.93996  0.66469  0.09258  1.0000
  N   N8        1.0  0.05933  0.33629  0.90641  1.0000
  Cl  Cl1       1.0  0.22866  0.92011  0.12055  1.0000
  Cl  Cl2       1.0  0.77101  0.07768  0.87929  1.0000
  Cl  Cl3       1.0  0.01982  0.18029  0.67674  1.0000
  Cl  Cl4       1.0  0.98020  0.81839  0.32407  1.0000
  O   O1        1.0  0.11389  0.29367  0.34710  1.0000
  O   O2        1.0  0.88930  0.70027  0.65151  1.0000
  O   O3        1.0  0.33622  0.26586  0.15089  1.0000
  O   O4        1.0  0.65388  0.73035  0.84678  1.0000
  O   O5        1.0  0.24296  0.24196  0.49604  1.0000
  O   O6        1.0  0.75729  0.75728  0.50433  1.0000
  O   O7        1.0  0.37969  0.07823  0.27328  1.0000
  O   O8        1.0  0.62635  0.92081  0.72616  1.0000
