data_image0
_chemical_formula_structural       Cd4H36C42N12O20
_chemical_formula_sum              "Cd4 H36 C42 N12 O20"
_cell_length_a       6.90671
_cell_length_b       10.2485
_cell_length_c       17.612
_cell_angle_alpha    93.2433
_cell_angle_beta     90.0244
_cell_angle_gamma    109.695

_space_group_name_H-M_alt    "P 1"
_space_group_IT_number       1

loop_
  _space_group_symop_operation_xyz
  'x, y, z'

loop_
  _atom_site_type_symbol
  _atom_site_label
  _atom_site_symmetry_multiplicity
  _atom_site_fract_x
  _atom_site_fract_y
  _atom_site_fract_z
  _atom_site_occupancy
  Cd  Cd1       1.0  0.48002  0.19827  0.03137  1.0000
  Cd  Cd2       1.0  0.28172  0.80216  0.46871  1.0000
  Cd  Cd3       1.0  0.51998  0.80173  0.96862  1.0000
  Cd  Cd4       1.0  0.71828  0.19784  0.53128  1.0000
  H   H1        1.0  0.16606  0.96264  0.90082  1.0000
  H   H2        1.0  0.20379  0.03733  0.59965  1.0000
  H   H3        1.0  0.83395  0.03738  0.09918  1.0000
  H   H4        1.0  0.79620  0.96267  0.40035  1.0000
  H   H5        1.0  0.49839  0.38047  0.86447  1.0000
  H   H6        1.0  0.11876  0.61937  0.63540  1.0000
  H   H7        1.0  0.50160  0.61954  0.13552  1.0000
  H   H8        1.0  0.88124  0.38063  0.36460  1.0000
  H   H9        1.0  0.97839  0.06656  0.71761  1.0000
  H   H10       1.0  0.91182  0.93206  0.78268  1.0000
  H   H11       1.0  0.02160  0.93343  0.28238  1.0000
  H   H12       1.0  0.08818  0.06794  0.21732  1.0000
  H   H13       1.0  0.94153  0.45277  0.22006  1.0000
  H   H14       1.0  0.48837  0.54769  0.28011  1.0000
  H   H15       1.0  0.05849  0.54722  0.77995  1.0000
  H   H16       1.0  0.51161  0.45231  0.71989  1.0000
  H   H17       1.0  0.18056  0.66080  0.29481  1.0000
  H   H18       1.0  0.51941  0.33976  0.20535  1.0000
  H   H19       1.0  0.81946  0.33920  0.70519  1.0000
  H   H20       1.0  0.48058  0.66023  0.79465  1.0000
  H   H21       1.0  0.32214  0.88454  0.23470  1.0000
  H   H22       1.0  0.43723  0.11590  0.26535  1.0000
  H   H23       1.0  0.67786  0.11546  0.76531  1.0000
  H   H24       1.0  0.56277  0.88409  0.73465  1.0000
  H   H25       1.0  0.99552  0.69920  0.02638  1.0000
  H   H26       1.0  0.29601  0.30105  0.47367  1.0000
  H   H27       1.0  0.00448  0.30079  0.97362  1.0000
  H   H28       1.0  0.70399  0.69895  0.52633  1.0000
  H   H29       1.0  0.28023  0.41655  0.04032  1.0000
  H   H30       1.0  0.86385  0.58354  0.45965  1.0000
  H   H31       1.0  0.71977  0.58344  0.95969  1.0000
  H   H32       1.0  0.13615  0.41645  0.54035  1.0000
  H   H33       1.0  0.16019  0.31807  0.10402  1.0000
  H   H34       1.0  0.84239  0.68226  0.39600  1.0000
  H   H35       1.0  0.83981  0.68192  0.89598  1.0000
  H   H36       1.0  0.15761  0.31773  0.60400  1.0000
  C   C1        1.0  0.23054  0.06160  0.87525  1.0000
  C   C2        1.0  0.16930  0.93821  0.62507  1.0000
  C   C3        1.0  0.76947  0.93841  0.12475  1.0000
  C   C4        1.0  0.83069  0.06178  0.37493  1.0000
  C   C5        1.0  0.39726  0.27367  0.85480  1.0000
  C   C6        1.0  0.12416  0.72606  0.64522  1.0000
  C   C7        1.0  0.60273  0.72634  0.14519  1.0000
  C   C8        1.0  0.87583  0.27393  0.35478  1.0000
  C   C9        1.0  0.03755  0.99950  0.75014  1.0000
  C   C10       1.0  0.96245  0.00050  0.24986  1.0000
  C   C11       1.0  0.95019  0.56338  0.11927  1.0000
  C   C12       1.0  0.38626  0.43695  0.38083  1.0000
  C   C13       1.0  0.04982  0.43662  0.88074  1.0000
  C   C14       1.0  0.61373  0.56305  0.61917  1.0000
  C   C15       1.0  0.00510  0.55261  0.19476  1.0000
  C   C16       1.0  0.45204  0.44780  0.30536  1.0000
  C   C17       1.0  0.99492  0.44739  0.80524  1.0000
  C   C18       1.0  0.54795  0.55220  0.69464  1.0000
  C   C19       1.0  0.13744  0.66834  0.23618  1.0000
  C   C20       1.0  0.46869  0.33211  0.26394  1.0000
  C   C21       1.0  0.86258  0.33166  0.76382  1.0000
  C   C22       1.0  0.53130  0.66789  0.73606  1.0000
  C   C23       1.0  0.21743  0.79474  0.20233  1.0000
  C   C24       1.0  0.42226  0.20564  0.29773  1.0000
  C   C25       1.0  0.78258  0.20526  0.79768  1.0000
  C   C26       1.0  0.57774  0.79436  0.70227  1.0000
  C   C27       1.0  0.16723  0.80535  0.12630  1.0000
  C   C28       1.0  0.36152  0.19497  0.37374  1.0000
  C   C29       1.0  0.83278  0.19465  0.87370  1.0000
  C   C30       1.0  0.63847  0.80503  0.62626  1.0000
  C   C31       1.0  0.03341  0.68949  0.08523  1.0000
  C   C32       1.0  0.34352  0.31078  0.41482  1.0000
  C   C33       1.0  0.96658  0.31051  0.91478  1.0000
  C   C34       1.0  0.65647  0.68922  0.58518  1.0000
  C   C35       1.0  0.79899  0.44175  0.07657  1.0000
  C   C36       1.0  0.35684  0.55856  0.42360  1.0000
  C   C37       1.0  0.20100  0.55825  0.92343  1.0000
  C   C38       1.0  0.64315  0.44144  0.57640  1.0000
  C   C39       1.0  0.26055  0.93631  0.08683  1.0000
  C   C40       1.0  0.32395  0.06398  0.41317  1.0000
  C   C41       1.0  0.73945  0.06369  0.91317  1.0000
  C   C42       1.0  0.67606  0.93603  0.58683  1.0000
  N   N1        1.0  0.36002  0.17793  0.90917  1.0000
  N   N2        1.0  0.18272  0.82211  0.59099  1.0000
  N   N3        1.0  0.63999  0.82209  0.09082  1.0000
  N   N4        1.0  0.81727  0.17789  0.40901  1.0000
  N   N5        1.0  0.19335  0.08730  0.80352  1.0000
  N   N6        1.0  0.10617  0.91212  0.69673  1.0000
  N   N7        1.0  0.80666  0.91271  0.19648  1.0000
  N   N8        1.0  0.89383  0.08787  0.30327  1.0000
  N   N9        1.0  0.29800  0.22269  0.78960  1.0000
  N   N10       1.0  0.07559  0.77665  0.71045  1.0000
  N   N11       1.0  0.70199  0.77731  0.21039  1.0000
  N   N12       1.0  0.92440  0.22334  0.28955  1.0000
  O   O1        1.0  0.75562  0.32306  0.10516  1.0000
  O   O2        1.0  0.43213  0.67724  0.39498  1.0000
  O   O3        1.0  0.24438  0.67694  0.89484  1.0000
  O   O4        1.0  0.56786  0.32275  0.60502  1.0000
  O   O5        1.0  0.71308  0.45705  0.01528  1.0000
  O   O6        1.0  0.25586  0.54316  0.48492  1.0000
  O   O7        1.0  0.28691  0.54295  0.98472  1.0000
  O   O8        1.0  0.74412  0.45683  0.51508  1.0000
  O   O9        1.0  0.28237  0.92832  0.01488  1.0000
  O   O10       1.0  0.35364  0.07179  0.48514  1.0000
  O   O11       1.0  0.71761  0.07169  0.98512  1.0000
  O   O12       1.0  0.64636  0.92821  0.51486  1.0000
  O   O13       1.0  0.31859  0.05263  0.12589  1.0000
  O   O14       1.0  0.26595  0.94774  0.37403  1.0000
  O   O15       1.0  0.68142  0.94738  0.87411  1.0000
  O   O16       1.0  0.73407  0.05226  0.62597  1.0000
  O   O17       1.0  0.28978  0.34746  0.07727  1.0000
  O   O18       1.0  0.94248  0.65268  0.42273  1.0000
  O   O19       1.0  0.71022  0.65253  0.92273  1.0000
  O   O20       1.0  0.05752  0.34732  0.57727  1.0000
