data_image0
_chemical_formula_structural       Cd4H44C42N12O28
_chemical_formula_sum              "Cd4 H44 C42 N12 O28"
_cell_length_a       10.2045
_cell_length_b       10.3919
_cell_length_c       15.9791
_cell_angle_alpha    84.9333
_cell_angle_beta     79.6373
_cell_angle_gamma    60.5939

_space_group_name_H-M_alt    "P 1"
_space_group_IT_number       1

loop_
  _space_group_symop_operation_xyz
  'x, y, z'

loop_
  _atom_site_type_symbol
  _atom_site_label
  _atom_site_symmetry_multiplicity
  _atom_site_fract_x
  _atom_site_fract_y
  _atom_site_fract_z
  _atom_site_occupancy
  Cd  Cd1       1.0  0.15027  0.23249  0.01862  1.0000
  Cd  Cd2       1.0  0.61724  0.23249  0.48138  1.0000
  Cd  Cd3       1.0  0.84973  0.76751  0.98138  1.0000
  Cd  Cd4       1.0  0.38276  0.76751  0.51862  1.0000
  H   H1        1.0  0.47488  0.93955  0.08641  1.0000
  H   H2        1.0  0.58557  0.93955  0.41359  1.0000
  H   H3        1.0  0.52512  0.06045  0.91359  1.0000
  H   H4        1.0  0.41443  0.06045  0.58641  1.0000
  H   H5        1.0  0.06629  0.20064  0.24946  1.0000
  H   H6        1.0  0.73307  0.20063  0.25054  1.0000
  H   H7        1.0  0.93370  0.79937  0.75054  1.0000
  H   H8        1.0  0.26693  0.79937  0.74946  1.0000
  H   H9        1.0  0.55075  0.80466  0.30363  1.0000
  H   H10       1.0  0.64459  0.80466  0.19638  1.0000
  H   H11       1.0  0.44925  0.19534  0.69637  1.0000
  H   H12       1.0  0.35541  0.19535  0.80362  1.0000
  H   H13       1.0  0.64240  0.56168  0.18799  1.0000
  H   H14       1.0  0.79591  0.56167  0.31200  1.0000
  H   H15       1.0  0.35760  0.43832  0.81201  1.0000
  H   H16       1.0  0.20409  0.43833  0.68800  1.0000
  H   H17       1.0  0.23496  0.55618  0.15251  1.0000
  H   H18       1.0  0.20885  0.55618  0.34748  1.0000
  H   H19       1.0  0.76504  0.44382  0.84748  1.0000
  H   H20       1.0  0.79115  0.44382  0.65252  1.0000
  H   H21       1.0  0.67239  0.24718  0.01792  1.0000
  H   H22       1.0  0.08043  0.24718  0.48208  1.0000
  H   H23       1.0  0.32762  0.75282  0.98208  1.0000
  H   H24       1.0  0.91957  0.75281  0.51792  1.0000
  H   H25       1.0  0.24291  0.74552  0.21995  1.0000
  H   H26       1.0  0.01156  0.74551  0.28004  1.0000
  H   H27       1.0  0.75709  0.25449  0.78005  1.0000
  H   H28       1.0  0.98844  0.25449  0.71996  1.0000
  H   H29       1.0  0.08001  0.33766  0.84720  1.0000
  H   H30       1.0  0.58235  0.33765  0.65280  1.0000
  H   H31       1.0  0.91999  0.66234  0.15280  1.0000
  H   H32       1.0  0.41766  0.66235  0.34720  1.0000
  H   H33       1.0  0.12708  0.44512  0.88193  1.0000
  H   H34       1.0  0.42780  0.44512  0.61807  1.0000
  H   H35       1.0  0.87292  0.55488  0.11807  1.0000
  H   H36       1.0  0.57220  0.55488  0.38193  1.0000
  H   H37       1.0  0.38371  0.92779  0.96631  1.0000
  H   H38       1.0  0.68849  0.92779  0.53369  1.0000
  H   H39       1.0  0.61629  0.07221  0.03369  1.0000
  H   H40       1.0  0.31151  0.07220  0.46631  1.0000
  H   H41       1.0  0.28939  0.99347  0.88983  1.0000
  H   H42       1.0  0.71713  0.99347  0.61017  1.0000
  H   H43       1.0  0.71061  0.00653  0.11017  1.0000
  H   H44       1.0  0.28287  0.00653  0.38983  1.0000
  C   C1        1.0  0.38888  0.99353  0.14129  1.0000
  C   C2        1.0  0.61759  0.99353  0.35871  1.0000
  C   C3        1.0  0.61112  0.00647  0.85871  1.0000
  C   C4        1.0  0.38241  0.00647  0.64129  1.0000
  C   C5        1.0  0.18391  0.12145  0.22625  1.0000
  C   C6        1.0  0.69464  0.12144  0.27375  1.0000
  C   C7        1.0  0.81608  0.87855  0.77375  1.0000
  C   C8        1.0  0.30536  0.87856  0.72625  1.0000
  C   C9        1.0  0.56296  0.87408  0.25000  1.0000
  C   C10       1.0  0.43704  0.12592  0.75000  1.0000
  C   C11       1.0  0.67344  0.39885  0.10010  1.0000
  C   C12       1.0  0.92771  0.39884  0.39990  1.0000
  C   C13       1.0  0.32656  0.60115  0.89991  1.0000
  C   C14       1.0  0.07229  0.60115  0.60010  1.0000
  C   C15       1.0  0.58702  0.51528  0.15819  1.0000
  C   C16       1.0  0.89769  0.51528  0.34181  1.0000
  C   C17       1.0  0.41298  0.48471  0.84181  1.0000
  C   C18       1.0  0.10231  0.48472  0.65819  1.0000
  C   C19       1.0  0.42954  0.57300  0.17556  1.0000
  C   C20       1.0  0.99745  0.57300  0.32444  1.0000
  C   C21       1.0  0.57046  0.42699  0.82444  1.0000
  C   C22       1.0  0.00255  0.42700  0.67556  1.0000
  C   C23       1.0  0.35804  0.51248  0.13897  1.0000
  C   C24       1.0  0.12948  0.51248  0.36103  1.0000
  C   C25       1.0  0.64196  0.48752  0.86103  1.0000
  C   C26       1.0  0.87052  0.48753  0.63897  1.0000
  C   C27       1.0  0.44540  0.39230  0.08336  1.0000
  C   C28       1.0  0.16229  0.39230  0.41664  1.0000
  C   C29       1.0  0.55460  0.60770  0.91664  1.0000
  C   C30       1.0  0.83771  0.60770  0.58336  1.0000
  C   C31       1.0  0.60261  0.33750  0.06282  1.0000
  C   C32       1.0  0.05989  0.33750  0.43717  1.0000
  C   C33       1.0  0.39739  0.66249  0.93718  1.0000
  C   C34       1.0  0.94011  0.66250  0.56283  1.0000
  C   C35       1.0  0.84161  0.34148  0.07628  1.0000
  C   C36       1.0  0.81691  0.34147  0.42372  1.0000
  C   C37       1.0  0.15839  0.65852  0.92372  1.0000
  C   C38       1.0  0.18309  0.65852  0.57628  1.0000
  C   C39       1.0  0.36753  0.32394  0.04765  1.0000
  C   C40       1.0  0.30853  0.32394  0.45235  1.0000
  C   C41       1.0  0.63247  0.67606  0.95235  1.0000
  C   C42       1.0  0.69147  0.67606  0.54765  1.0000
  N   N1        1.0  0.24206  0.09178  0.14200  1.0000
  N   N2        1.0  0.66617  0.09177  0.35801  1.0000
  N   N3        1.0  0.75794  0.90823  0.85800  1.0000
  N   N4        1.0  0.33383  0.90823  0.64199  1.0000
  N   N5        1.0  0.28662  0.04562  0.27721  1.0000
  N   N6        1.0  0.66777  0.04562  0.22280  1.0000
  N   N7        1.0  0.71338  0.95438  0.72279  1.0000
  N   N8        1.0  0.33224  0.95438  0.77720  1.0000
  N   N9        1.0  0.41680  0.96513  0.22177  1.0000
  N   N10       1.0  0.61808  0.96513  0.27823  1.0000
  N   N11       1.0  0.58320  0.03487  0.77823  1.0000
  N   N12       1.0  0.38192  0.03487  0.72177  1.0000
  O   O1        1.0  0.91433  0.24903  0.01584  1.0000
  O   O2        1.0  0.83665  0.24902  0.48416  1.0000
  O   O3        1.0  0.08567  0.75097  0.98416  1.0000
  O   O4        1.0  0.16335  0.75097  0.51584  1.0000
  O   O5        1.0  0.90805  0.38630  0.11827  1.0000
  O   O6        1.0  0.70565  0.38630  0.38173  1.0000
  O   O7        1.0  0.09195  0.61370  0.88174  1.0000
  O   O8        1.0  0.29435  0.61370  0.61827  1.0000
  O   O9        1.0  0.44821  0.19797  0.01162  1.0000
  O   O10       1.0  0.35382  0.19796  0.48838  1.0000
  O   O11       1.0  0.55178  0.80204  0.98838  1.0000
  O   O12       1.0  0.64618  0.80204  0.51162  1.0000
  O   O13       1.0  0.22249  0.39368  0.05693  1.0000
  O   O14       1.0  0.38383  0.39368  0.44307  1.0000
  O   O15       1.0  0.77751  0.60632  0.94307  1.0000
  O   O16       1.0  0.61617  0.60632  0.55693  1.0000
  O   O17       1.0  0.34717  0.69214  0.23148  1.0000
  O   O18       1.0  0.96069  0.69213  0.26851  1.0000
  O   O19       1.0  0.65283  0.30786  0.76852  1.0000
  O   O20       1.0  0.03931  0.30787  0.73149  1.0000
  O   O21       1.0  0.15092  0.33858  0.88066  1.0000
  O   O22       1.0  0.51050  0.33858  0.61934  1.0000
  O   O23       1.0  0.84908  0.66142  0.11934  1.0000
  O   O24       1.0  0.48950  0.66142  0.38066  1.0000
  O   O25       1.0  0.28508  0.00934  0.95075  1.0000
  O   O26       1.0  0.70558  0.00934  0.54925  1.0000
  O   O27       1.0  0.71492  0.99066  0.04925  1.0000
  O   O28       1.0  0.29442  0.99066  0.45075  1.0000
