data_image0
_chemical_formula_structural       Cu4P8H64C40Br4O28
_chemical_formula_sum              "Cu4 P8 H64 C40 Br4 O28"
_cell_length_a       10.0776
_cell_length_b       10.8157
_cell_length_c       16.341
_cell_angle_alpha    90
_cell_angle_beta     89.9999
_cell_angle_gamma    98.4273

_space_group_name_H-M_alt    "P 1"
_space_group_IT_number       1

loop_
  _space_group_symop_operation_xyz
  'x, y, z'

loop_
  _atom_site_type_symbol
  _atom_site_label
  _atom_site_symmetry_multiplicity
  _atom_site_fract_x
  _atom_site_fract_y
  _atom_site_fract_z
  _atom_site_occupancy
  Cu  Cu1       1.0  0.42517  0.46659  0.92741  1.0000
  Cu  Cu2       1.0  0.42517  0.96659  0.57259  1.0000
  Cu  Cu3       1.0  0.57482  0.53341  0.07259  1.0000
  Cu  Cu4       1.0  0.57483  0.03341  0.42741  1.0000
  P   P1        1.0  0.51188  0.48974  0.80516  1.0000
  P   P2        1.0  0.51188  0.98975  0.69483  1.0000
  P   P3        1.0  0.48812  0.51025  0.19483  1.0000
  P   P4        1.0  0.48813  0.01026  0.30516  1.0000
  P   P5        1.0  0.22364  0.86862  0.54792  1.0000
  P   P6        1.0  0.22364  0.36862  0.95208  1.0000
  P   P7        1.0  0.77636  0.13138  0.45208  1.0000
  P   P8        1.0  0.77636  0.63138  0.04792  1.0000
  H   H1        1.0  0.39994  0.51159  0.61965  1.0000
  H   H2        1.0  0.39994  0.01159  0.88035  1.0000
  H   H3        1.0  0.60006  0.48840  0.38035  1.0000
  H   H4        1.0  0.60006  0.98841  0.11965  1.0000
  H   H5        1.0  0.45364  0.35956  0.61877  1.0000
  H   H6        1.0  0.45365  0.85955  0.88123  1.0000
  H   H7        1.0  0.54635  0.64044  0.38123  1.0000
  H   H8        1.0  0.54636  0.14045  0.11877  1.0000
  H   H9        1.0  0.67832  0.33571  0.67968  1.0000
  H   H10       1.0  0.67832  0.83571  0.82032  1.0000
  H   H11       1.0  0.32168  0.66429  0.32032  1.0000
  H   H12       1.0  0.32168  0.16429  0.17968  1.0000
  H   H13       1.0  0.79906  0.47177  0.70199  1.0000
  H   H14       1.0  0.79907  0.97177  0.79801  1.0000
  H   H15       1.0  0.20093  0.52823  0.29801  1.0000
  H   H16       1.0  0.20094  0.02823  0.20199  1.0000
  H   H17       1.0  0.72073  0.68711  0.69998  1.0000
  H   H18       1.0  0.72073  0.18711  0.80002  1.0000
  H   H19       1.0  0.27927  0.31289  0.30002  1.0000
  H   H20       1.0  0.27927  0.81289  0.19998  1.0000
  H   H21       1.0  0.56369  0.70437  0.65454  1.0000
  H   H22       1.0  0.56369  0.20437  0.84546  1.0000
  H   H23       1.0  0.43631  0.29563  0.34546  1.0000
  H   H24       1.0  0.43631  0.79563  0.15454  1.0000
  H   H25       1.0  0.65907  0.43681  0.53367  1.0000
  H   H26       1.0  0.65907  0.93681  0.96633  1.0000
  H   H27       1.0  0.34093  0.56319  0.46633  1.0000
  H   H28       1.0  0.34093  0.06319  0.03367  1.0000
  H   H29       1.0  0.60158  0.58627  0.52911  1.0000
  H   H30       1.0  0.60158  0.08627  0.97089  1.0000
  H   H31       1.0  0.39842  0.41373  0.47089  1.0000
  H   H32       1.0  0.39842  0.91373  0.02911  1.0000
  H   H33       1.0  0.77157  0.72340  0.47853  1.0000
  H   H34       1.0  0.77157  0.22340  0.02147  1.0000
  H   H35       1.0  0.22843  0.27660  0.52147  1.0000
  H   H36       1.0  0.22843  0.77660  0.97853  1.0000
  H   H37       1.0  0.85222  0.59654  0.44302  1.0000
  H   H38       1.0  0.85222  0.09654  0.05698  1.0000
  H   H39       1.0  0.14778  0.40346  0.55699  1.0000
  H   H40       1.0  0.14778  0.90346  0.94302  1.0000
  H   H41       1.0  0.89135  0.88764  0.57175  1.0000
  H   H42       1.0  0.89135  0.38763  0.92825  1.0000
  H   H43       1.0  0.10865  0.11236  0.42825  1.0000
  H   H44       1.0  0.10865  0.61237  0.07175  1.0000
  H   H45       1.0  0.94333  0.77771  0.64254  1.0000
  H   H46       1.0  0.94333  0.27771  0.85746  1.0000
  H   H47       1.0  0.05667  0.22228  0.35746  1.0000
  H   H48       1.0  0.05667  0.72229  0.14254  1.0000
  H   H49       1.0  0.03776  0.74841  0.38537  1.0000
  H   H50       1.0  0.03776  0.24841  0.11463  1.0000
  H   H51       1.0  0.96224  0.25159  0.61463  1.0000
  H   H52       1.0  0.96224  0.75159  0.88537  1.0000
  H   H53       1.0  0.97406  0.88391  0.42339  1.0000
  H   H54       1.0  0.97406  0.38391  0.07661  1.0000
  H   H55       1.0  0.02594  0.11609  0.57661  1.0000
  H   H56       1.0  0.02594  0.61609  0.92339  1.0000
  H   H57       1.0  0.04044  0.58710  0.58928  1.0000
  H   H58       1.0  0.04044  0.08710  0.91072  1.0000
  H   H59       1.0  0.95956  0.41290  0.41072  1.0000
  H   H60       1.0  0.95956  0.91290  0.08928  1.0000
  H   H61       1.0  0.10239  0.59115  0.48605  1.0000
  H   H62       1.0  0.10238  0.09115  0.01395  1.0000
  H   H63       1.0  0.89762  0.40885  0.51395  1.0000
  H   H64       1.0  0.89762  0.90885  0.98605  1.0000
  C   C1        1.0  0.46351  0.45061  0.64984  1.0000
  C   C2        1.0  0.46352  0.95061  0.85016  1.0000
  C   C3        1.0  0.53648  0.54939  0.35016  1.0000
  C   C4        1.0  0.53649  0.04939  0.14984  1.0000
  C   C5        1.0  0.69216  0.43254  0.70250  1.0000
  C   C6        1.0  0.69216  0.93255  0.79750  1.0000
  C   C7        1.0  0.30784  0.56745  0.29750  1.0000
  C   C8        1.0  0.30784  0.06746  0.20250  1.0000
  C   C9        1.0  0.61652  0.64256  0.69174  1.0000
  C   C10       1.0  0.61652  0.14256  0.80826  1.0000
  C   C11       1.0  0.38347  0.35744  0.30826  1.0000
  C   C12       1.0  0.38348  0.85745  0.19174  1.0000
  C   C13       1.0  0.61050  0.51357  0.65133  1.0000
  C   C14       1.0  0.61050  0.01357  0.84867  1.0000
  C   C15       1.0  0.38950  0.48642  0.34867  1.0000
  C   C16       1.0  0.38950  0.98643  0.15133  1.0000
  C   C17       1.0  0.66389  0.52889  0.56391  1.0000
  C   C18       1.0  0.66389  0.02889  0.93609  1.0000
  C   C19       1.0  0.33611  0.47111  0.43609  1.0000
  C   C20       1.0  0.33611  0.97111  0.06391  1.0000
  C   C21       1.0  0.84361  0.65996  0.49528  1.0000
  C   C22       1.0  0.84361  0.15996  0.00472  1.0000
  C   C23       1.0  0.15639  0.34004  0.50472  1.0000
  C   C24       1.0  0.15639  0.84004  0.99528  1.0000
  C   C25       1.0  0.97999  0.73577  0.51437  1.0000
  C   C26       1.0  0.97999  0.23577  0.98563  1.0000
  C   C27       1.0  0.02001  0.26422  0.48563  1.0000
  C   C28       1.0  0.02001  0.76423  0.01437  1.0000
  C   C29       1.0  0.96821  0.82795  0.58484  1.0000
  C   C30       1.0  0.96821  0.32795  0.91516  1.0000
  C   C31       1.0  0.03179  0.17205  0.41516  1.0000
  C   C32       1.0  0.03179  0.67205  0.08484  1.0000
  C   C33       1.0  0.03484  0.81046  0.43856  1.0000
  C   C34       1.0  0.03484  0.31046  0.06144  1.0000
  C   C35       1.0  0.96516  0.18954  0.56144  1.0000
  C   C36       1.0  0.96516  0.68954  0.93856  1.0000
  C   C37       1.0  0.08035  0.64835  0.53873  1.0000
  C   C38       1.0  0.08035  0.14835  0.96127  1.0000
  C   C39       1.0  0.91965  0.35165  0.46127  1.0000
  C   C40       1.0  0.91965  0.85166  0.03873  1.0000
  Br  Br1       1.0  0.44685  0.67425  0.99241  1.0000
  Br  Br2       1.0  0.44683  0.17425  0.50758  1.0000
  Br  Br3       1.0  0.55315  0.32575  0.00759  1.0000
  Br  Br4       1.0  0.55315  0.82575  0.49240  1.0000
  O   O1        1.0  0.41304  0.42708  0.73290  1.0000
  O   O2        1.0  0.41305  0.92708  0.76710  1.0000
  O   O3        1.0  0.58695  0.57291  0.26710  1.0000
  O   O4        1.0  0.58696  0.07292  0.23290  1.0000
  O   O5        1.0  0.64870  0.43006  0.78789  1.0000
  O   O6        1.0  0.64871  0.93007  0.71211  1.0000
  O   O7        1.0  0.35129  0.56994  0.21211  1.0000
  O   O8        1.0  0.35130  0.06994  0.28789  1.0000
  O   O9        1.0  0.55275  0.63212  0.77231  1.0000
  O   O10       1.0  0.55275  0.13211  0.72769  1.0000
  O   O11       1.0  0.44724  0.36789  0.22769  1.0000
  O   O12       1.0  0.44725  0.86789  0.27231  1.0000
  O   O13       1.0  0.79948  0.59093  0.56725  1.0000
  O   O14       1.0  0.79948  0.09093  0.93275  1.0000
  O   O15       1.0  0.20052  0.40907  0.43275  1.0000
  O   O16       1.0  0.20052  0.90907  0.06726  1.0000
  O   O17       1.0  0.09565  0.91042  0.59654  1.0000
  O   O18       1.0  0.09565  0.41041  0.90345  1.0000
  O   O19       1.0  0.90435  0.08958  0.40346  1.0000
  O   O20       1.0  0.90435  0.58959  0.09655  1.0000
  O   O21       1.0  0.17249  0.87008  0.45307  1.0000
  O   O22       1.0  0.17249  0.37008  0.04693  1.0000
  O   O23       1.0  0.82751  0.12992  0.54693  1.0000
  O   O24       1.0  0.82751  0.62992  0.95307  1.0000
  O   O25       1.0  0.20618  0.71899  0.56706  1.0000
  O   O26       1.0  0.20618  0.21899  0.93294  1.0000
  O   O27       1.0  0.79382  0.28100  0.43294  1.0000
  O   O28       1.0  0.79382  0.78101  0.06706  1.0000
