data_image0
_chemical_formula_structural       Co2H32C40N12O8
_chemical_formula_sum              "Co2 H32 C40 N12 O8"
_cell_length_a       8.92712
_cell_length_b       9.99911
_cell_length_c       12.5611
_cell_angle_alpha    103.439
_cell_angle_beta     109.097
_cell_angle_gamma    103.651

_space_group_name_H-M_alt    "P 1"
_space_group_IT_number       1

loop_
  _space_group_symop_operation_xyz
  'x, y, z'

loop_
  _atom_site_type_symbol
  _atom_site_label
  _atom_site_symmetry_multiplicity
  _atom_site_fract_x
  _atom_site_fract_y
  _atom_site_fract_z
  _atom_site_occupancy
  Co  Co1       1.0  0.65088  0.35987  0.51677  1.0000
  Co  Co2       1.0  0.34912  0.64013  0.48323  1.0000
  H   H1        1.0  0.12212  0.44461  0.19757  1.0000
  H   H2        1.0  0.87788  0.55538  0.80242  1.0000
  H   H3        1.0  0.24023  0.27783  0.09641  1.0000
  H   H4        1.0  0.75976  0.72215  0.90358  1.0000
  H   H5        1.0  0.04900  0.07350  0.90558  1.0000
  H   H6        1.0  0.95098  0.92648  0.09441  1.0000
  H   H7        1.0  0.74673  0.04013  0.81770  1.0000
  H   H8        1.0  0.25326  0.95987  0.18229  1.0000
  H   H9        1.0  0.50430  0.08340  0.84884  1.0000
  H   H10       1.0  0.49569  0.91660  0.15116  1.0000
  H   H11       1.0  0.52198  0.24330  0.95530  1.0000
  H   H12       1.0  0.47802  0.75671  0.04470  1.0000
  H   H13       1.0  0.91049  0.54562  0.18986  1.0000
  H   H14       1.0  0.08951  0.45437  0.81014  1.0000
  H   H15       1.0  0.70633  0.47034  0.07028  1.0000
  H   H16       1.0  0.29368  0.52966  0.92973  1.0000
  H   H17       1.0  0.53587  0.54736  0.72247  1.0000
  H   H18       1.0  0.46413  0.45264  0.27753  1.0000
  H   H19       1.0  0.58768  0.13364  0.66314  1.0000
  H   H20       1.0  0.41232  0.86636  0.33686  1.0000
  H   H21       1.0  0.48567  0.14737  0.25235  1.0000
  H   H22       1.0  0.51433  0.85263  0.74765  1.0000
  H   H23       1.0  0.90196  0.53414  0.38505  1.0000
  H   H24       1.0  0.09804  0.46585  0.61495  1.0000
  H   H25       1.0  0.36131  0.09306  0.45620  1.0000
  H   H26       1.0  0.63870  0.90694  0.54381  1.0000
  H   H27       1.0  0.86468  0.78277  0.33514  1.0000
  H   H28       1.0  0.13533  0.21724  0.66486  1.0000
  H   H29       1.0  0.74038  0.97072  0.28582  1.0000
  H   H30       1.0  0.25963  0.02929  0.71418  1.0000
  H   H31       1.0  0.92704  0.21864  0.31993  1.0000
  H   H32       1.0  0.07297  0.78137  0.68007  1.0000
  C   C1        1.0  0.76141  0.22333  0.95656  1.0000
  C   C2        1.0  0.23859  0.77667  0.04344  1.0000
  C   C3        1.0  0.86912  0.33882  0.06393  1.0000
  C   C4        1.0  0.13088  0.66118  0.93607  1.0000
  C   C5        1.0  0.04055  0.35608  0.11335  1.0000
  C   C6        1.0  0.95945  0.64392  0.88664  1.0000
  C   C7        1.0  0.10628  0.26210  0.05729  1.0000
  C   C8        1.0  0.89371  0.73789  0.94270  1.0000
  C   C9        1.0  0.99988  0.14797  0.95056  1.0000
  C   C10       1.0  0.00010  0.85201  0.04943  1.0000
  C   C11       1.0  0.82889  0.12932  0.90149  1.0000
  C   C12       1.0  0.17110  0.87067  0.09850  1.0000
  C   C13       1.0  0.57616  0.20057  0.89418  1.0000
  C   C14       1.0  0.42384  0.79943  0.10582  1.0000
  C   C15       1.0  0.80649  0.44367  0.13049  1.0000
  C   C16       1.0  0.19351  0.55633  0.86951  1.0000
  C   C17       1.0  0.54503  0.44546  0.73494  1.0000
  C   C18       1.0  0.45497  0.55454  0.26506  1.0000
  C   C19       1.0  0.57467  0.23663  0.70236  1.0000
  C   C20       1.0  0.42533  0.76337  0.29764  1.0000
  C   C21       1.0  0.58523  0.23745  0.25672  1.0000
  C   C22       1.0  0.41477  0.76255  0.74328  1.0000
  C   C23       1.0  0.79490  0.43513  0.32838  1.0000
  C   C24       1.0  0.20510  0.56487  0.67162  1.0000
  C   C25       1.0  0.15569  0.17099  0.38813  1.0000
  C   C26       1.0  0.84431  0.82902  0.61187  1.0000
  C   C27       1.0  0.22521  0.06664  0.41846  1.0000
  C   C28       1.0  0.77480  0.93337  0.58155  1.0000
  C   C29       1.0  0.12106  0.92781  0.40096  1.0000
  C   C30       1.0  0.87894  0.07220  0.59905  1.0000
  C   C31       1.0  0.94550  0.89162  0.34980  1.0000
  C   C32       1.0  0.05451  0.10839  0.65020  1.0000
  C   C33       1.0  0.87630  0.99649  0.32127  1.0000
  C   C34       1.0  0.12370  0.00352  0.67874  1.0000
  C   C35       1.0  0.98014  0.13591  0.34094  1.0000
  C   C36       1.0  0.01987  0.86409  0.65907  1.0000
  C   C37       1.0  0.26952  0.31870  0.40808  1.0000
  C   C38       1.0  0.73048  0.68131  0.59192  1.0000
  C   C39       1.0  0.20027  0.82066  0.43619  1.0000
  C   C40       1.0  0.79974  0.17935  0.56382  1.0000
  N   N1        1.0  0.55043  0.27278  0.80386  1.0000
  N   N2        1.0  0.44956  0.72722  0.19614  1.0000
  N   N3        1.0  0.53181  0.40680  0.82675  1.0000
  N   N4        1.0  0.46818  0.59321  0.17325  1.0000
  N   N5        1.0  0.57370  0.34475  0.65666  1.0000
  N   N6        1.0  0.42630  0.65526  0.34334  1.0000
  N   N7        1.0  0.74055  0.38303  0.20830  1.0000
  N   N8        1.0  0.25945  0.61697  0.79170  1.0000
  N   N9        1.0  0.60652  0.25650  0.16087  1.0000
  N   N10       1.0  0.39348  0.74349  0.83913  1.0000
  N   N11       1.0  0.69735  0.34470  0.36164  1.0000
  N   N12       1.0  0.30266  0.65531  0.63836  1.0000
  O   O1        1.0  0.41630  0.33055  0.40997  1.0000
  O   O2        1.0  0.58370  0.66946  0.59003  1.0000
  O   O3        1.0  0.21326  0.42449  0.41992  1.0000
  O   O4        1.0  0.78674  0.57552  0.58008  1.0000
  O   O5        1.0  0.35158  0.86642  0.51555  1.0000
  O   O6        1.0  0.64843  0.13358  0.48445  1.0000
  O   O7        1.0  0.12048  0.68349  0.38406  1.0000
  O   O8        1.0  0.87952  0.31652  0.61595  1.0000
