data_image0
_chemical_formula_structural       Co2H36C40N12O10
_chemical_formula_sum              "Co2 H36 C40 N12 O10"
_cell_length_a       9.8834
_cell_length_b       10.4841
_cell_length_c       10.9054
_cell_angle_alpha    67.9638
_cell_angle_beta     88.0935
_cell_angle_gamma    65.5479

_space_group_name_H-M_alt    "P 1"
_space_group_IT_number       1

loop_
  _space_group_symop_operation_xyz
  'x, y, z'

loop_
  _atom_site_type_symbol
  _atom_site_label
  _atom_site_symmetry_multiplicity
  _atom_site_fract_x
  _atom_site_fract_y
  _atom_site_fract_z
  _atom_site_occupancy
  Co  Co1       1.0  0.40667  0.34948  0.42987  1.0000
  Co  Co2       1.0  0.59334  0.65052  0.57013  1.0000
  H   H1        1.0  0.98090  0.22773  0.83232  1.0000
  H   H2        1.0  0.01909  0.77227  0.16769  1.0000
  H   H3        1.0  0.77751  0.16637  0.77958  1.0000
  H   H4        1.0  0.22249  0.83362  0.22041  1.0000
  H   H5        1.0  0.84047  0.90453  0.79403  1.0000
  H   H6        1.0  0.15953  0.09546  0.20597  1.0000
  H   H7        1.0  0.10489  0.71050  0.85229  1.0000
  H   H8        1.0  0.89512  0.28950  0.14770  1.0000
  H   H9        1.0  0.36135  0.65020  0.87297  1.0000
  H   H10       1.0  0.63866  0.34981  0.12703  1.0000
  H   H11       1.0  0.43407  0.77864  0.87412  1.0000
  H   H12       1.0  0.56593  0.22137  0.12588  1.0000
  H   H13       1.0  0.22397  0.14474  0.93371  1.0000
  H   H14       1.0  0.77601  0.85526  0.06630  1.0000
  H   H15       1.0  0.36263  0.95304  0.98956  1.0000
  H   H16       1.0  0.63736  0.04697  0.01044  1.0000
  H   H17       1.0  0.57334  0.57139  0.33580  1.0000
  H   H18       1.0  0.42670  0.42858  0.66420  1.0000
  H   H19       1.0  0.27908  0.51309  0.11420  1.0000
  H   H20       1.0  0.72091  0.48694  0.88580  1.0000
  H   H21       1.0  0.61598  0.99627  0.62304  1.0000
  H   H22       1.0  0.38402  0.00373  0.37699  1.0000
  H   H23       1.0  0.20002  0.31504  0.66322  1.0000
  H   H24       1.0  0.79995  0.68495  0.33676  1.0000
  H   H25       1.0  0.79637  0.92694  0.47360  1.0000
  H   H26       1.0  0.20363  0.07302  0.52641  1.0000
  H   H27       1.0  0.06303  0.73895  0.51348  1.0000
  H   H28       1.0  0.93696  0.26102  0.48652  1.0000
  H   H29       1.0  0.26382  0.31002  0.09803  1.0000
  H   H30       1.0  0.73618  0.68998  0.90197  1.0000
  H   H31       1.0  0.17020  0.38388  0.86010  1.0000
  H   H32       1.0  0.82978  0.61613  0.13989  1.0000
  H   H33       1.0  0.14693  0.52323  0.41868  1.0000
  H   H34       1.0  0.85307  0.47676  0.58132  1.0000
  H   H35       1.0  0.25902  0.59164  0.46055  1.0000
  H   H36       1.0  0.74098  0.40835  0.53945  1.0000
  C   C1        1.0  0.19272  0.85700  0.87875  1.0000
  C   C2        1.0  0.80728  0.14300  0.12125  1.0000
  C   C3        1.0  0.15675  0.00332  0.87468  1.0000
  C   C4        1.0  0.84323  0.99669  0.12532  1.0000
  C   C5        1.0  0.00727  0.11351  0.83842  1.0000
  C   C6        1.0  0.99272  0.88650  0.16158  1.0000
  C   C7        1.0  0.89330  0.07915  0.80941  1.0000
  C   C8        1.0  0.10669  0.92086  0.19059  1.0000
  C   C9        1.0  0.92829  0.93318  0.81629  1.0000
  C   C10       1.0  0.07171  0.06682  0.18371  1.0000
  C   C11       1.0  0.07738  0.82366  0.84980  1.0000
  C   C12       1.0  0.92262  0.17634  0.15020  1.0000
  C   C13       1.0  0.35235  0.73369  0.91408  1.0000
  C   C14       1.0  0.64766  0.26632  0.08592  1.0000
  C   C15       1.0  0.27579  0.04604  0.90665  1.0000
  C   C16       1.0  0.72419  0.95397  0.09336  1.0000
  C   C17       1.0  0.50507  0.58258  0.25338  1.0000
  C   C18       1.0  0.49496  0.41741  0.74661  1.0000
  C   C19       1.0  0.35396  0.55082  0.14441  1.0000
  C   C20       1.0  0.64604  0.44920  0.85559  1.0000
  C   C21       1.0  0.51767  0.05090  0.66379  1.0000
  C   C22       1.0  0.48233  0.94911  0.33623  1.0000
  C   C23       1.0  0.30518  0.21453  0.68074  1.0000
  C   C24       1.0  0.69480  0.78548  0.31925  1.0000
  C   C25       1.0  0.85028  0.10535  0.47788  1.0000
  C   C26       1.0  0.14972  0.89460  0.52212  1.0000
  C   C27       1.0  0.88592  0.95868  0.48413  1.0000
  C   C28       1.0  0.11408  0.04127  0.51587  1.0000
  C   C29       1.0  0.03514  0.85366  0.50651  1.0000
  C   C30       1.0  0.96488  0.14630  0.49349  1.0000
  C   C31       1.0  0.69102  0.21286  0.46444  1.0000
  C   C32       1.0  0.30896  0.78714  0.53555  1.0000
  C   C33       1.0  0.05296  0.46064  0.13327  1.0000
  C   C34       1.0  0.94704  0.53939  0.86672  1.0000
  C   C35       1.0  0.14834  0.39354  0.05438  1.0000
  C   C36       1.0  0.85165  0.60648  0.94562  1.0000
  C   C37       1.0  0.09589  0.43351  0.92231  1.0000
  C   C38       1.0  0.90410  0.56651  0.07768  1.0000
  C   C39       1.0  0.11494  0.43038  0.27076  1.0000
  C   C40       1.0  0.88506  0.56963  0.72924  1.0000
  N   N1        1.0  0.39984  0.65076  0.05928  1.0000
  N   N2        1.0  0.60018  0.34925  0.94072  1.0000
  N   N3        1.0  0.49617  0.67293  0.12682  1.0000
  N   N4        1.0  0.50386  0.32705  0.87318  1.0000
  N   N5        1.0  0.41877  0.50452  0.26902  1.0000
  N   N6        1.0  0.58123  0.49549  0.73097  1.0000
  N   N7        1.0  0.35463  0.08576  0.79252  1.0000
  N   N8        1.0  0.64536  0.91425  0.20749  1.0000
  N   N9        1.0  0.48920  0.98049  0.78356  1.0000
  N   N10       1.0  0.51079  0.01953  0.21646  1.0000
  N   N11       1.0  0.40801  0.19659  0.59706  1.0000
  N   N12       1.0  0.59198  0.80342  0.40294  1.0000
  O   O1        1.0  0.58987  0.19971  0.40485  1.0000
  O   O2        1.0  0.41012  0.80027  0.59514  1.0000
  O   O3        1.0  0.65352  0.31125  0.51585  1.0000
  O   O4        1.0  0.34650  0.68875  0.48415  1.0000
  O   O5        1.0  0.24649  0.32312  0.31919  1.0000
  O   O6        1.0  0.75349  0.67688  0.68081  1.0000
  O   O7        1.0  0.03605  0.52229  0.32387  1.0000
  O   O8        1.0  0.96396  0.47774  0.67611  1.0000
  O   O9        1.0  0.24131  0.49984  0.47664  1.0000
  O   O10       1.0  0.75870  0.50016  0.52336  1.0000
