data_image0
_chemical_formula_structural       Co2H32C40N12O10
_chemical_formula_sum              "Co2 H32 C40 N12 O10"
_cell_length_a       9.03632
_cell_length_b       10.0072
_cell_length_c       11.3446
_cell_angle_alpha    81.3207
_cell_angle_beta     85.4315
_cell_angle_gamma    70.9447

_space_group_name_H-M_alt    "P 1"
_space_group_IT_number       1

loop_
  _space_group_symop_operation_xyz
  'x, y, z'

loop_
  _atom_site_type_symbol
  _atom_site_label
  _atom_site_symmetry_multiplicity
  _atom_site_fract_x
  _atom_site_fract_y
  _atom_site_fract_z
  _atom_site_occupancy
  Co  Co1       1.0  0.50027  0.31378  0.61463  1.0000
  Co  Co2       1.0  0.49973  0.68622  0.38537  1.0000
  H   H1        1.0  0.46853  0.25320  0.89161  1.0000
  H   H2        1.0  0.53147  0.74680  0.10839  1.0000
  H   H3        1.0  0.15194  0.04099  0.81373  1.0000
  H   H4        1.0  0.84805  0.95902  0.18627  1.0000
  H   H5        1.0  0.25435  0.95287  0.01816  1.0000
  H   H6        1.0  0.74565  0.04713  0.98184  1.0000
  H   H7        1.0  0.21594  0.73315  0.13003  1.0000
  H   H8        1.0  0.78406  0.26685  0.86997  1.0000
  H   H9        1.0  0.07285  0.60381  0.03800  1.0000
  H   H10       1.0  0.92715  0.39619  0.96200  1.0000
  H   H11       1.0  0.88853  0.61237  0.89102  1.0000
  H   H12       1.0  0.11147  0.38763  0.10897  1.0000
  H   H13       1.0  0.87093  0.72251  0.75244  1.0000
  H   H14       1.0  0.12907  0.27749  0.24756  1.0000
  H   H15       1.0  0.87393  0.93184  0.67877  1.0000
  H   H16       1.0  0.12607  0.06817  0.32123  1.0000
  H   H17       1.0  0.99401  0.04260  0.66587  1.0000
  H   H18       1.0  0.00599  0.95741  0.33413  1.0000
  H   H19       1.0  0.14496  0.29055  0.60643  1.0000
  H   H20       1.0  0.85504  0.70945  0.39357  1.0000
  H   H21       1.0  0.29337  0.55282  0.79363  1.0000
  H   H22       1.0  0.70663  0.44718  0.20637  1.0000
  H   H23       1.0  0.14757  0.63133  0.40739  1.0000
  H   H24       1.0  0.85243  0.36868  0.59261  1.0000
  H   H25       1.0  0.29873  0.90950  0.57468  1.0000
  H   H26       1.0  0.70127  0.09050  0.42532  1.0000
  H   H27       1.0  0.43545  0.15353  0.40283  1.0000
  H   H28       1.0  0.56455  0.84646  0.59718  1.0000
  H   H29       1.0  0.42963  0.06930  0.04224  1.0000
  H   H30       1.0  0.57037  0.93069  0.95776  1.0000
  H   H31       1.0  0.42571  0.48355  0.10799  1.0000
  H   H32       1.0  0.57429  0.51645  0.89202  1.0000
  C   C1        1.0  0.03561  0.74529  0.87235  1.0000
  C   C2        1.0  0.96439  0.25471  0.12764  1.0000
  C   C3        1.0  0.05724  0.87042  0.80890  1.0000
  C   C4        1.0  0.94276  0.12958  0.19110  1.0000
  C   C5        1.0  0.13660  0.94338  0.86251  1.0000
  C   C6        1.0  0.86340  0.05662  0.13749  1.0000
  C   C7        1.0  0.19391  0.89477  0.97695  1.0000
  C   C8        1.0  0.80609  0.10523  0.02305  1.0000
  C   C9        1.0  0.17135  0.77199  0.04049  1.0000
  C   C10       1.0  0.82865  0.22801  0.95950  1.0000
  C   C11       1.0  0.09223  0.69891  0.98790  1.0000
  C   C12       1.0  0.90777  0.30109  0.01210  1.0000
  C   C13       1.0  0.95456  0.65876  0.82046  1.0000
  C   C14       1.0  0.04544  0.34124  0.17954  1.0000
  C   C15       1.0  0.99421  0.93180  0.68590  1.0000
  C   C16       1.0  0.00579  0.06820  0.31409  1.0000
  C   C17       1.0  0.14347  0.37059  0.66174  1.0000
  C   C18       1.0  0.85654  0.62941  0.33826  1.0000
  C   C19       1.0  0.22259  0.50403  0.75357  1.0000
  C   C20       1.0  0.77741  0.49597  0.24643  1.0000
  C   C21       1.0  0.15071  0.70845  0.46419  1.0000
  C   C22       1.0  0.84928  0.29155  0.53581  1.0000
  C   C23       1.0  0.23091  0.84813  0.54787  1.0000
  C   C24       1.0  0.76908  0.15188  0.45213  1.0000
  C   C25       1.0  0.42531  0.32995  0.26362  1.0000
  C   C26       1.0  0.57469  0.67005  0.73639  1.0000
  C   C27       1.0  0.43398  0.18905  0.30725  1.0000
  C   C28       1.0  0.56602  0.81095  0.69275  1.0000
  C   C29       1.0  0.43989  0.09453  0.22642  1.0000
  C   C30       1.0  0.56010  0.90547  0.77358  1.0000
  C   C31       1.0  0.43147  0.14208  0.10381  1.0000
  C   C32       1.0  0.56853  0.85792  0.89619  1.0000
  C   C33       1.0  0.42879  0.28148  0.06035  1.0000
  C   C34       1.0  0.57121  0.71851  0.93966  1.0000
  C   C35       1.0  0.42574  0.37547  0.14092  1.0000
  C   C36       1.0  0.57426  0.62452  0.85909  1.0000
  C   C37       1.0  0.42194  0.43219  0.34774  1.0000
  C   C38       1.0  0.57806  0.56780  0.65226  1.0000
  C   C39       1.0  0.45956  0.94173  0.27058  1.0000
  C   C40       1.0  0.54044  0.05826  0.72943  1.0000
  N   N1        1.0  0.06556  0.54144  0.76368  1.0000
  N   N2        1.0  0.93444  0.45856  0.23632  1.0000
  N   N3        1.0  0.01230  0.45703  0.70577  1.0000
  N   N4        1.0  0.98770  0.54298  0.29422  1.0000
  N   N5        1.0  0.27567  0.39532  0.68917  1.0000
  N   N6        1.0  0.72434  0.60468  0.31084  1.0000
  N   N7        1.0  0.08588  0.85379  0.59075  1.0000
  N   N8        1.0  0.91412  0.14621  0.40924  1.0000
  N   N9        1.0  0.03215  0.76572  0.53770  1.0000
  N   N10       1.0  0.96785  0.23429  0.46230  1.0000
  N   N11       1.0  0.27543  0.75652  0.46738  1.0000
  N   N12       1.0  0.72456  0.24348  0.53262  1.0000
  O   O1        1.0  0.40809  0.39465  0.45930  1.0000
  O   O2        1.0  0.59191  0.60535  0.54070  1.0000
  O   O3        1.0  0.43190  0.55374  0.30221  1.0000
  O   O4        1.0  0.56811  0.44626  0.69780  1.0000
  O   O5        1.0  0.50427  0.89353  0.37741  1.0000
  O   O6        1.0  0.49573  0.10646  0.62259  1.0000
  O   O7        1.0  0.43194  0.86124  0.20377  1.0000
  O   O8        1.0  0.56806  0.13876  0.79623  1.0000
  O   O9        1.0  0.42824  0.33150  0.94265  1.0000
  O   O10       1.0  0.57176  0.66850  0.05735  1.0000
