data_image0
_chemical_formula_structural       Co2H24C38N8O8
_chemical_formula_sum              "Co2 H24 C38 N8 O8"
_cell_length_a       7.77916
_cell_length_b       9.28323
_cell_length_c       12.8294
_cell_angle_alpha    105.226
_cell_angle_beta     100.583
_cell_angle_gamma    109.157

_space_group_name_H-M_alt    "P 1"
_space_group_IT_number       1

loop_
  _space_group_symop_operation_xyz
  'x, y, z'

loop_
  _atom_site_type_symbol
  _atom_site_label
  _atom_site_symmetry_multiplicity
  _atom_site_fract_x
  _atom_site_fract_y
  _atom_site_fract_z
  _atom_site_occupancy
  Co  Co1       1.0  0.77006  0.06759  0.22291  1.0000
  Co  Co2       1.0  0.04704  0.84509  0.77689  1.0000
  H   H1        1.0  0.64921  0.38732  0.57481  1.0000
  H   H2        1.0  0.57384  0.81083  0.42513  1.0000
  H   H3        1.0  0.25555  0.10170  0.56830  1.0000
  H   H4        1.0  0.18723  0.53167  0.43189  1.0000
  H   H5        1.0  0.35523  0.58772  0.21600  1.0000
  H   H6        1.0  0.63983  0.37298  0.78434  1.0000
  H   H7        1.0  0.38223  0.52713  0.87566  1.0000
  H   H8        1.0  0.00726  0.65067  0.12464  1.0000
  H   H9        1.0  0.60413  0.26664  0.36617  1.0000
  H   H10       1.0  0.73726  0.89917  0.63373  1.0000
  H   H11       1.0  0.13259  0.24479  0.80860  1.0000
  H   H12       1.0  0.82437  0.43483  0.19117  1.0000
  H   H13       1.0  0.05043  0.90541  0.15210  1.0000
  H   H14       1.0  0.39835  0.75434  0.84807  1.0000
  H   H15       1.0  0.32947  0.86704  0.25180  1.0000
  H   H16       1.0  0.57826  0.61624  0.74867  1.0000
  H   H17       1.0  0.78376  0.93784  0.99843  1.0000
  H   H18       1.0  0.28479  0.93923  0.00097  1.0000
  H   H19       1.0  0.42775  0.96381  0.46625  1.0000
  H   H20       1.0  0.46159  0.49656  0.53422  1.0000
  H   H21       1.0  0.89961  0.36176  0.71287  1.0000
  H   H22       1.0  0.68823  0.64905  0.28701  1.0000
  H   H23       1.0  0.09169  0.21010  0.63807  1.0000
  H   H24       1.0  0.95590  0.57317  0.36168  1.0000
  C   C1        1.0  0.09793  0.94685  0.24418  1.0000
  C   C2        1.0  0.35403  0.70330  0.75601  1.0000
  C   C3        1.0  0.25314  0.92427  0.30025  1.0000
  C   C4        1.0  0.45334  0.62450  0.70011  1.0000
  C   C5        1.0  0.30844  0.97935  0.41821  1.0000
  C   C6        1.0  0.39055  0.56069  0.58215  1.0000
  C   C7        1.0  0.21182  0.05827  0.47620  1.0000
  C   C8        1.0  0.23590  0.58117  0.52398  1.0000
  C   C9        1.0  0.05900  0.07752  0.41352  1.0000
  C   C10       1.0  0.14592  0.66378  0.58649  1.0000
  C   C11       1.0  0.95043  0.16323  0.46454  1.0000
  C   C12       1.0  0.98657  0.69851  0.53533  1.0000
  C   C13       1.0  0.98282  0.22647  0.58126  1.0000
  C   C14       1.0  0.90308  0.64562  0.41860  1.0000
  C   C15       1.0  0.87527  0.30874  0.62233  1.0000
  C   C16       1.0  0.75405  0.68628  0.37754  1.0000
  C   C17       1.0  0.73643  0.32439  0.54533  1.0000
  C   C18       1.0  0.69112  0.77804  0.45454  1.0000
  C   C19       1.0  0.71041  0.25814  0.43009  1.0000
  C   C20       1.0  0.78007  0.82708  0.56977  1.0000
  C   C21       1.0  0.08004  0.29634  0.16991  1.0000
  C   C22       1.0  0.41015  0.12705  0.82986  1.0000
  C   C23       1.0  0.17107  0.35589  0.09000  1.0000
  C   C24       1.0  0.58126  0.26614  0.90984  1.0000
  C   C25       1.0  0.31093  0.51430  0.12672  1.0000
  C   C26       1.0  0.68469  0.38825  0.87348  1.0000
  C   C27       1.0  0.38692  0.57614  0.04979  1.0000
  C   C28       1.0  0.83771  0.52664  0.95055  1.0000
  C   C29       1.0  0.32013  0.47828  0.93445  1.0000
  C   C30       1.0  0.88626  0.54336  0.06572  1.0000
  C   C31       1.0  0.18179  0.32218  0.89701  1.0000
  C   C32       1.0  0.78520  0.42431  0.10287  1.0000
  C   C33       1.0  0.10753  0.25842  0.97438  1.0000
  C   C34       1.0  0.63335  0.28362  0.02533  1.0000
  C   C35       1.0  0.53682  0.74489  0.08462  1.0000
  C   C36       1.0  0.95245  0.66096  0.91588  1.0000
  C   C37       1.0  0.96578  0.09293  0.93734  1.0000
  C   C38       1.0  0.52837  0.15498  0.06217  1.0000
  N   N1        1.0  0.81493  0.17887  0.39005  1.0000
  N   N2        1.0  0.92489  0.78823  0.60978  1.0000
  N   N3        1.0  0.00135  0.01955  0.29917  1.0000
  N   N4        1.0  0.20240  0.72063  0.70084  1.0000
  N   N5        1.0  0.89214  0.05125  0.01699  1.0000
  N   N6        1.0  0.37495  0.03407  0.98247  1.0000
  N   N7        1.0  0.93756  0.14605  0.12770  1.0000
  N   N8        1.0  0.30956  0.01890  0.87195  1.0000
  O   O1        1.0  0.59989  0.78951  0.00935  1.0000
  O   O2        1.0  0.09065  0.78079  0.99117  1.0000
  O   O3        1.0  0.59280  0.83523  0.18979  1.0000
  O   O4        1.0  0.90309  0.64646  0.81078  1.0000
  O   O5        1.0  0.91096  0.98958  0.83631  1.0000
  O   O6        1.0  0.57427  0.15209  0.16302  1.0000
  O   O7        1.0  0.12197  0.38272  0.27227  1.0000
  O   O8        1.0  0.34972  0.11164  0.72764  1.0000
