data_image0
_chemical_formula_structural       Na2B2H8C12N24O12
_chemical_formula_sum              "Na2 B2 H8 C12 N24 O12"
_cell_length_a       9.48677
_cell_length_b       9.48674
_cell_length_c       9.48678
_cell_angle_alpha    65.2656
_cell_angle_beta     65.2658
_cell_angle_gamma    65.2656

_space_group_name_H-M_alt    "P 1"
_space_group_IT_number       1

loop_
  _space_group_symop_operation_xyz
  'x, y, z'

loop_
  _atom_site_type_symbol
  _atom_site_label
  _atom_site_symmetry_multiplicity
  _atom_site_fract_x
  _atom_site_fract_y
  _atom_site_fract_z
  _atom_site_occupancy
  Na  Na1       1.0  0.68072  0.68072  0.68072  1.0000
  Na  Na2       1.0  0.18072  0.18072  0.18072  1.0000
  B   B1        1.0  0.84453  0.84453  0.84453  1.0000
  B   B2        1.0  0.34453  0.34453  0.34453  1.0000
  H   H1        1.0  0.62575  0.10094  0.99192  1.0000
  H   H2        1.0  0.99192  0.62574  0.10095  1.0000
  H   H3        1.0  0.10095  0.99191  0.62574  1.0000
  H   H4        1.0  0.49192  0.60094  0.12575  1.0000
  H   H5        1.0  0.60095  0.12574  0.49192  1.0000
  H   H6        1.0  0.12574  0.49192  0.60095  1.0000
  H   H7        1.0  0.89866  0.89865  0.89866  1.0000
  H   H8        1.0  0.39866  0.39865  0.39866  1.0000
  C   C1        1.0  0.57431  0.05869  0.93949  1.0000
  C   C2        1.0  0.93950  0.57431  0.05869  1.0000
  C   C3        1.0  0.05869  0.93949  0.57432  1.0000
  C   C4        1.0  0.43949  0.55869  0.07431  1.0000
  C   C5        1.0  0.55869  0.07431  0.43950  1.0000
  C   C6        1.0  0.07431  0.43949  0.55869  1.0000
  C   C7        1.0  0.42435  0.02466  0.85518  1.0000
  C   C8        1.0  0.85518  0.42435  0.02466  1.0000
  C   C9        1.0  0.02467  0.85517  0.42435  1.0000
  C   C10       1.0  0.35518  0.52466  0.92435  1.0000
  C   C11       1.0  0.52466  0.92435  0.35518  1.0000
  C   C12       1.0  0.92435  0.35517  0.52467  1.0000
  N   N1        1.0  0.66415  0.94386  0.86044  1.0000
  N   N2        1.0  0.86045  0.66414  0.94386  1.0000
  N   N3        1.0  0.94386  0.86044  0.66415  1.0000
  N   N4        1.0  0.36045  0.44386  0.16415  1.0000
  N   N5        1.0  0.44387  0.16414  0.36045  1.0000
  N   N6        1.0  0.16415  0.36044  0.44386  1.0000
  N   N7        1.0  0.56774  0.92074  0.80455  1.0000
  N   N8        1.0  0.80455  0.56774  0.92074  1.0000
  N   N9        1.0  0.92075  0.80454  0.56774  1.0000
  N   N10       1.0  0.30455  0.42074  0.06774  1.0000
  N   N11       1.0  0.42074  0.06774  0.30455  1.0000
  N   N12       1.0  0.06774  0.30454  0.42074  1.0000
  N   N13       1.0  0.42064  0.11149  0.93931  1.0000
  N   N14       1.0  0.93931  0.42063  0.11149  1.0000
  N   N15       1.0  0.11149  0.93931  0.42064  1.0000
  N   N16       1.0  0.43931  0.61149  0.92064  1.0000
  N   N17       1.0  0.61149  0.92063  0.43931  1.0000
  N   N18       1.0  0.92064  0.43931  0.61149  1.0000
  N   N19       1.0  0.28162  0.04973  0.81610  1.0000
  N   N20       1.0  0.81611  0.28161  0.04973  1.0000
  N   N21       1.0  0.04973  0.81610  0.28162  1.0000
  N   N22       1.0  0.31611  0.54973  0.78162  1.0000
  N   N23       1.0  0.54973  0.78161  0.31610  1.0000
  N   N24       1.0  0.78162  0.31610  0.54973  1.0000
  O   O1        1.0  0.29587  0.97180  0.73097  1.0000
  O   O2        1.0  0.73098  0.29586  0.97181  1.0000
  O   O3        1.0  0.97180  0.73097  0.29587  1.0000
  O   O4        1.0  0.23097  0.47180  0.79587  1.0000
  O   O5        1.0  0.47181  0.79586  0.23098  1.0000
  O   O6        1.0  0.79587  0.23097  0.47180  1.0000
  O   O7        1.0  0.15528  0.15053  0.86794  1.0000
  O   O8        1.0  0.86794  0.15527  0.15054  1.0000
  O   O9        1.0  0.15053  0.86794  0.15528  1.0000
  O   O10       1.0  0.36794  0.65053  0.65528  1.0000
  O   O11       1.0  0.65055  0.65527  0.36794  1.0000
  O   O12       1.0  0.65528  0.36794  0.65053  1.0000
