data_image0
_chemical_formula_structural       Mn6H36C60N24O24
_chemical_formula_sum              "Mn6 H36 C60 N24 O24"
_cell_length_a       9.54856
_cell_length_b       12.6015
_cell_length_c       13.7355
_cell_angle_alpha    90.0001
_cell_angle_beta     90.0004
_cell_angle_gamma    101.525

_space_group_name_H-M_alt    "P 1"
_space_group_IT_number       1

loop_
  _space_group_symop_operation_xyz
  'x, y, z'

loop_
  _atom_site_type_symbol
  _atom_site_label
  _atom_site_symmetry_multiplicity
  _atom_site_fract_x
  _atom_site_fract_y
  _atom_site_fract_z
  _atom_site_occupancy
  Mn  Mn1       1.0  0.99963  0.99949  0.00043  1.0000
  Mn  Mn2       1.0  0.00037  0.50051  0.50043  1.0000
  Mn  Mn3       1.0  0.96424  0.06969  0.75244  1.0000
  Mn  Mn4       1.0  0.03575  0.43030  0.25244  1.0000
  Mn  Mn5       1.0  0.03632  0.93018  0.24715  1.0000
  Mn  Mn6       1.0  0.96369  0.56982  0.74714  1.0000
  H   H1        1.0  0.00690  0.74470  0.03324  1.0000
  H   H2        1.0  0.99310  0.75530  0.53325  1.0000
  H   H3        1.0  0.99331  0.25491  0.96684  1.0000
  H   H4        1.0  0.00669  0.24509  0.46685  1.0000
  H   H5        1.0  0.10539  0.66971  0.95996  1.0000
  H   H6        1.0  0.89461  0.83029  0.45996  1.0000
  H   H7        1.0  0.89468  0.32999  0.03994  1.0000
  H   H8        1.0  0.10531  0.17001  0.53994  1.0000
  H   H9        1.0  0.74071  0.39514  0.82947  1.0000
  H   H10       1.0  0.25929  0.10486  0.32947  1.0000
  H   H11       1.0  0.25899  0.60487  0.17035  1.0000
  H   H12       1.0  0.74100  0.89513  0.67035  1.0000
  H   H13       1.0  0.56833  0.35710  0.96636  1.0000
  H   H14       1.0  0.43167  0.14290  0.46636  1.0000
  H   H15       1.0  0.43161  0.64277  0.03358  1.0000
  H   H16       1.0  0.56839  0.85724  0.53358  1.0000
  H   H17       1.0  0.60720  0.47960  0.11428  1.0000
  H   H18       1.0  0.39280  0.02040  0.61428  1.0000
  H   H19       1.0  0.39291  0.52016  0.88573  1.0000
  H   H20       1.0  0.60708  0.97984  0.38574  1.0000
  H   H21       1.0  0.81227  0.63827  0.11235  1.0000
  H   H22       1.0  0.18773  0.86173  0.61235  1.0000
  H   H23       1.0  0.18797  0.36138  0.88772  1.0000
  H   H24       1.0  0.81203  0.13862  0.38772  1.0000
  H   H25       1.0  0.49439  0.08422  0.79441  1.0000
  H   H26       1.0  0.50561  0.41578  0.29441  1.0000
  H   H27       1.0  0.50539  0.91571  0.20548  1.0000
  H   H28       1.0  0.49461  0.58429  0.70548  1.0000
  H   H29       1.0  0.67870  0.14006  0.08061  1.0000
  H   H30       1.0  0.32130  0.35993  0.58061  1.0000
  H   H31       1.0  0.32163  0.85980  0.91912  1.0000
  H   H32       1.0  0.67837  0.64020  0.41912  1.0000
  H   H33       1.0  0.25039  0.18517  0.02915  1.0000
  H   H34       1.0  0.74961  0.31483  0.52915  1.0000
  H   H35       1.0  0.74988  0.81479  0.97097  1.0000
  H   H36       1.0  0.25013  0.68522  0.47097  1.0000
  C   C1        1.0  0.99272  0.76968  0.88054  1.0000
  C   C2        1.0  0.00728  0.73032  0.38054  1.0000
  C   C3        1.0  0.00718  0.23010  0.11958  1.0000
  C   C4        1.0  0.99282  0.26990  0.61959  1.0000
  C   C5        1.0  0.00383  0.69827  0.96570  1.0000
  C   C6        1.0  0.99617  0.80173  0.46570  1.0000
  C   C7        1.0  0.99628  0.30144  0.03433  1.0000
  C   C8        1.0  0.00373  0.19856  0.53433  1.0000
  C   C9        1.0  0.88151  0.60112  0.96966  1.0000
  C   C10       1.0  0.11849  0.89888  0.46966  1.0000
  C   C11       1.0  0.11852  0.39865  0.03031  1.0000
  C   C12       1.0  0.88147  0.10135  0.53031  1.0000
  C   C13       1.0  0.75234  0.44776  0.89321  1.0000
  C   C14       1.0  0.24766  0.05224  0.39322  1.0000
  C   C15       1.0  0.24750  0.55218  0.10665  1.0000
  C   C16       1.0  0.75250  0.94782  0.60666  1.0000
  C   C17       1.0  0.65679  0.42634  0.97045  1.0000
  C   C18       1.0  0.34321  0.07366  0.47045  1.0000
  C   C19       1.0  0.34318  0.57352  0.02949  1.0000
  C   C20       1.0  0.65682  0.92648  0.52949  1.0000
  C   C21       1.0  0.67749  0.49472  0.05122  1.0000
  C   C22       1.0  0.32252  0.00528  0.55122  1.0000
  C   C23       1.0  0.32258  0.50505  0.94877  1.0000
  C   C24       1.0  0.67742  0.99495  0.44878  1.0000
  C   C25       1.0  0.79125  0.58338  0.05052  1.0000
  C   C26       1.0  0.20875  0.91662  0.55052  1.0000
  C   C27       1.0  0.20889  0.41634  0.94951  1.0000
  C   C28       1.0  0.79110  0.08366  0.44951  1.0000
  C   C29       1.0  0.35765  0.13319  0.90418  1.0000
  C   C30       1.0  0.64236  0.36681  0.40418  1.0000
  C   C31       1.0  0.64235  0.86678  0.09585  1.0000
  C   C32       1.0  0.35766  0.63323  0.59585  1.0000
  C   C33       1.0  0.48600  0.10940  0.86964  1.0000
  C   C34       1.0  0.51400  0.39060  0.36964  1.0000
  C   C35       1.0  0.51392  0.89055  0.13026  1.0000
  C   C36       1.0  0.48607  0.60945  0.63026  1.0000
  C   C37       1.0  0.60207  0.11287  0.93276  1.0000
  C   C38       1.0  0.39792  0.38713  0.43276  1.0000
  C   C39       1.0  0.39800  0.88706  0.06702  1.0000
  C   C40       1.0  0.60200  0.61294  0.56702  1.0000
  C   C41       1.0  0.59105  0.14124  0.03043  1.0000
  C   C42       1.0  0.40895  0.35876  0.53043  1.0000
  C   C43       1.0  0.40921  0.85868  0.96938  1.0000
  C   C44       1.0  0.59079  0.64132  0.46938  1.0000
  C   C45       1.0  0.46507  0.16908  0.06241  1.0000
  C   C46       1.0  0.53493  0.33092  0.56241  1.0000
  C   C47       1.0  0.53525  0.83087  0.93753  1.0000
  C   C48       1.0  0.46475  0.66913  0.43753  1.0000
  C   C49       1.0  0.34871  0.16642  0.00083  1.0000
  C   C50       1.0  0.65129  0.33358  0.50083  1.0000
  C   C51       1.0  0.65153  0.83357  0.99921  1.0000
  C   C52       1.0  0.34848  0.66643  0.49921  1.0000
  C   C53       1.0  0.22578  0.11336  0.84218  1.0000
  C   C54       1.0  0.77422  0.38664  0.34218  1.0000
  C   C55       1.0  0.77374  0.88648  0.15830  1.0000
  C   C56       1.0  0.22626  0.61352  0.65829  1.0000
  C   C57       1.0  0.73678  0.07878  0.90106  1.0000
  C   C58       1.0  0.26321  0.42121  0.40106  1.0000
  C   C59       1.0  0.26326  0.92114  0.09850  1.0000
  C   C60       1.0  0.73674  0.57885  0.59850  1.0000
  N   N1        1.0  0.97525  0.87249  0.88253  1.0000
  N   N2        1.0  0.02475  0.62750  0.38253  1.0000
  N   N3        1.0  0.02411  0.12715  0.11774  1.0000
  N   N4        1.0  0.97589  0.37286  0.61774  1.0000
  N   N5        1.0  0.97008  0.90169  0.78813  1.0000
  N   N6        1.0  0.02992  0.59831  0.28814  1.0000
  N   N7        1.0  0.02908  0.09808  0.21219  1.0000
  N   N8        1.0  0.97092  0.40192  0.71219  1.0000
  N   N9        1.0  0.98220  0.82080  0.73071  1.0000
  N   N10       1.0  0.01779  0.67920  0.23071  1.0000
  N   N11       1.0  0.01734  0.17914  0.26950  1.0000
  N   N12       1.0  0.98266  0.32086  0.76950  1.0000
  N   N13       1.0  0.99685  0.73705  0.78740  1.0000
  N   N14       1.0  0.00315  0.76295  0.28740  1.0000
  N   N15       1.0  0.00312  0.26288  0.21268  1.0000
  N   N16       1.0  0.99688  0.23712  0.71268  1.0000
  N   N17       1.0  0.86297  0.53313  0.89244  1.0000
  N   N18       1.0  0.13703  0.96687  0.39245  1.0000
  N   N19       1.0  0.13686  0.46682  0.10740  1.0000
  N   N20       1.0  0.86314  0.03318  0.60741  1.0000
  N   N21       1.0  0.45098  0.19456  0.16597  1.0000
  N   N22       1.0  0.54902  0.30545  0.66597  1.0000
  N   N23       1.0  0.54942  0.80532  0.83399  1.0000
  N   N24       1.0  0.45059  0.69467  0.33399  1.0000
  O   O1        1.0  0.10448  0.11173  0.88675  1.0000
  O   O2        1.0  0.89552  0.38827  0.38675  1.0000
  O   O3        1.0  0.89557  0.88854  0.11402  1.0000
  O   O4        1.0  0.10443  0.61146  0.61402  1.0000
  O   O5        1.0  0.23031  0.09558  0.75249  1.0000
  O   O6        1.0  0.76970  0.40442  0.25249  1.0000
  O   O7        1.0  0.76855  0.90371  0.24796  1.0000
  O   O8        1.0  0.23145  0.59629  0.74796  1.0000
  O   O9        1.0  0.75798  0.06562  0.81094  1.0000
  O   O10       1.0  0.24201  0.43438  0.31094  1.0000
  O   O11       1.0  0.24189  0.93460  0.18858  1.0000
  O   O12       1.0  0.75811  0.56540  0.68858  1.0000
  O   O13       1.0  0.82067  0.06421  0.96942  1.0000
  O   O14       1.0  0.17933  0.43578  0.46942  1.0000
  O   O15       1.0  0.17940  0.93550  0.03006  1.0000
  O   O16       1.0  0.82059  0.56450  0.53007  1.0000
  O   O17       1.0  0.53792  0.16824  0.22384  1.0000
  O   O18       1.0  0.46208  0.33175  0.72384  1.0000
  O   O19       1.0  0.46255  0.83164  0.77609  1.0000
  O   O20       1.0  0.53745  0.66836  0.27608  1.0000
  O   O21       1.0  0.35122  0.23922  0.18990  1.0000
  O   O22       1.0  0.64879  0.26078  0.68990  1.0000
  O   O23       1.0  0.64911  0.76055  0.81013  1.0000
  O   O24       1.0  0.35090  0.73945  0.31013  1.0000
