data_image0
_chemical_formula_structural       Ba2H18C16N6O10
_chemical_formula_sum              "Ba2 H18 C16 N6 O10"
_cell_length_a       7.03615
_cell_length_b       9.73913
_cell_length_c       9.73908
_cell_angle_alpha    113.818
_cell_angle_beta     103.424
_cell_angle_gamma    103.425

_space_group_name_H-M_alt    "P 1"
_space_group_IT_number       1

loop_
  _space_group_symop_operation_xyz
  'x, y, z'

loop_
  _atom_site_type_symbol
  _atom_site_label
  _atom_site_symmetry_multiplicity
  _atom_site_fract_x
  _atom_site_fract_y
  _atom_site_fract_z
  _atom_site_occupancy
  Ba  Ba1       1.0  0.39222  0.52603  0.37123  1.0000
  Ba  Ba2       1.0  0.89222  0.37123  0.52603  1.0000
  H   H1        1.0  0.82270  0.48156  0.89159  1.0000
  H   H2        1.0  0.32269  0.89159  0.48156  1.0000
  H   H3        1.0  0.85599  0.50978  0.16576  1.0000
  H   H4        1.0  0.35598  0.16576  0.50978  1.0000
  H   H5        1.0  0.89775  0.23314  0.01638  1.0000
  H   H6        1.0  0.39775  0.01638  0.23314  1.0000
  H   H7        1.0  0.85852  0.99364  0.21767  1.0000
  H   H8        1.0  0.35852  0.21767  0.99364  1.0000
  H   H9        1.0  0.85278  0.82729  0.04471  1.0000
  H   H10       1.0  0.35278  0.04471  0.82728  1.0000
  H   H11       1.0  0.61331  0.84722  0.06010  1.0000
  H   H12       1.0  0.11331  0.06010  0.84723  1.0000
  H   H13       1.0  0.68949  0.02340  0.79312  1.0000
  H   H14       1.0  0.18949  0.79312  0.02339  1.0000
  H   H15       1.0  0.52168  0.85688  0.79601  1.0000
  H   H16       1.0  0.02168  0.79601  0.85688  1.0000
  H   H17       1.0  0.76293  0.85489  0.77128  1.0000
  H   H18       1.0  0.26293  0.77129  0.85488  1.0000
  C   C1        1.0  0.18576  0.48379  0.96573  1.0000
  C   C2        1.0  0.68576  0.96572  0.48379  1.0000
  C   C3        1.0  0.40533  0.49720  0.97347  1.0000
  C   C4        1.0  0.90532  0.97346  0.49719  1.0000
  C   C5        1.0  0.71573  0.50321  0.08396  1.0000
  C   C6        1.0  0.21572  0.08396  0.50319  1.0000
  C   C7        1.0  0.50928  0.48852  0.86491  1.0000
  C   C8        1.0  0.00927  0.86490  0.48852  1.0000
  C   C9        1.0  0.46404  0.48389  0.70591  1.0000
  C   C10       1.0  0.96404  0.70591  0.48389  1.0000
  C   C11       1.0  0.89889  0.17257  0.09111  1.0000
  C   C12       1.0  0.39889  0.09111  0.17257  1.0000
  C   C13       1.0  0.77775  0.91504  0.08747  1.0000
  C   C14       1.0  0.27776  0.08747  0.91503  1.0000
  C   C15       1.0  0.68573  0.93296  0.83314  1.0000
  C   C16       1.0  0.18573  0.83315  0.93296  1.0000
  N   N1        1.0  0.53880  0.50695  0.10914  1.0000
  N   N2        1.0  0.03878  0.10913  0.50694  1.0000
  N   N3        1.0  0.70353  0.49057  0.93853  1.0000
  N   N4        1.0  0.20353  0.93853  0.49056  1.0000
  N   N5        1.0  0.78882  0.01332  0.00780  1.0000
  N   N6        1.0  0.28882  0.00780  0.01332  1.0000
  O   O1        1.0  0.14451  0.48500  0.08637  1.0000
  O   O2        1.0  0.64450  0.08636  0.48499  1.0000
  O   O3        1.0  0.05084  0.47020  0.84312  1.0000
  O   O4        1.0  0.55084  0.84311  0.47021  1.0000
  O   O5        1.0  0.31393  0.52316  0.65288  1.0000
  O   O6        1.0  0.81393  0.65287  0.52317  1.0000
  O   O7        1.0  0.58512  0.44380  0.63126  1.0000
  O   O8        1.0  0.08512  0.63126  0.44380  1.0000
  O   O9        1.0  0.99931  0.25099  0.24042  1.0000
  O   O10       1.0  0.49931  0.24042  0.25099  1.0000
