data_image0
_chemical_formula_structural       Li8H16C24N8O16
_chemical_formula_sum              "Li8 H16 C24 N8 O16"
_cell_length_a       9.8524
_cell_length_b       9.85242
_cell_length_c       10.1608
_cell_angle_alpha    113.405
_cell_angle_beta     113.405
_cell_angle_gamma    100.409

_space_group_name_H-M_alt    "P 1"
_space_group_IT_number       1

loop_
  _space_group_symop_operation_xyz
  'x, y, z'

loop_
  _atom_site_type_symbol
  _atom_site_label
  _atom_site_symmetry_multiplicity
  _atom_site_fract_x
  _atom_site_fract_y
  _atom_site_fract_z
  _atom_site_occupancy
  Li  Li1       1.0  0.63213  0.46857  0.26919  1.0000
  Li  Li2       1.0  0.19938  0.36294  0.73081  1.0000
  Li  Li3       1.0  0.71857  0.38213  0.76919  1.0000
  Li  Li4       1.0  0.61293  0.94937  0.23080  1.0000
  Li  Li5       1.0  0.50592  0.26831  0.88430  1.0000
  Li  Li6       1.0  0.38402  0.62162  0.11570  1.0000
  Li  Li7       1.0  0.51832  0.25592  0.38430  1.0000
  Li  Li8       1.0  0.87162  0.13402  0.61570  1.0000
  H   H1        1.0  0.32595  0.92284  0.40077  1.0000
  H   H2        1.0  0.52207  0.92519  0.59924  1.0000
  H   H3        1.0  0.17284  0.07595  0.90077  1.0000
  H   H4        1.0  0.17518  0.27207  0.09923  1.0000
  H   H5        1.0  0.15145  0.96875  0.51284  1.0000
  H   H6        1.0  0.45590  0.63860  0.48715  1.0000
  H   H7        1.0  0.21875  0.90146  0.01285  1.0000
  H   H8        1.0  0.88861  0.20590  0.98715  1.0000
  H   H9        1.0  0.04411  0.78670  0.49322  1.0000
  H   H10       1.0  0.29349  0.55089  0.50678  1.0000
  H   H11       1.0  0.03670  0.79411  0.99321  1.0000
  H   H12       1.0  0.80090  0.04349  0.00679  1.0000
  H   H13       1.0  0.93907  0.85808  0.36578  1.0000
  H   H14       1.0  0.49231  0.57329  0.63423  1.0000
  H   H15       1.0  0.10809  0.68907  0.86577  1.0000
  H   H16       1.0  0.82329  0.24231  0.13423  1.0000
  C   C1        1.0  0.82494  0.51400  0.11995  1.0000
  C   C2        1.0  0.39405  0.70498  0.88005  1.0000
  C   C3        1.0  0.76400  0.57493  0.61997  1.0000
  C   C4        1.0  0.95497  0.14404  0.38003  1.0000
  C   C5        1.0  0.98851  0.60300  0.15807  1.0000
  C   C6        1.0  0.44493  0.83044  0.84193  1.0000
  C   C7        1.0  0.85301  0.73850  0.65807  1.0000
  C   C8        1.0  0.08043  0.19494  0.34193  1.0000
  C   C9        1.0  0.08066  0.56422  0.08493  1.0000
  C   C10       1.0  0.47929  0.99573  0.91507  1.0000
  C   C11       1.0  0.81422  0.83065  0.58493  1.0000
  C   C12       1.0  0.24572  0.22930  0.41508  1.0000
  C   C13       1.0  0.05037  0.42224  0.93180  1.0000
  C   C14       1.0  0.49044  0.11857  0.06820  1.0000
  C   C15       1.0  0.67224  0.80036  0.43180  1.0000
  C   C16       1.0  0.36856  0.24044  0.56820  1.0000
  C   C17       1.0  0.23000  0.80351  0.30630  1.0000
  C   C18       1.0  0.49720  0.92369  0.69369  1.0000
  C   C19       1.0  0.05352  0.98000  0.80630  1.0000
  C   C20       1.0  0.17370  0.24721  0.19369  1.0000
  C   C21       1.0  0.05356  0.84814  0.42619  1.0000
  C   C22       1.0  0.42195  0.62737  0.57381  1.0000
  C   C23       1.0  0.09815  0.80357  0.92619  1.0000
  C   C24       1.0  0.87738  0.17196  0.07381  1.0000
  N   N1        1.0  0.23101  0.69011  0.18154  1.0000
  N   N2        1.0  0.50856  0.04947  0.81846  1.0000
  N   N3        1.0  0.94011  0.98100  0.68154  1.0000
  N   N4        1.0  0.29947  0.25857  0.31846  1.0000
  N   N5        1.0  0.08809  0.75513  0.30004  1.0000
  N   N6        1.0  0.45509  0.78805  0.69996  1.0000
  N   N7        1.0  0.00514  0.83809  0.80004  1.0000
  N   N8        1.0  0.03805  0.20510  0.19996  1.0000
  O   O1        1.0  0.71032  0.42873  0.96667  1.0000
  O   O2        1.0  0.46206  0.74365  0.03333  1.0000
  O   O3        1.0  0.67873  0.46031  0.46667  1.0000
  O   O4        1.0  0.99365  0.21206  0.53334  1.0000
  O   O5        1.0  0.81272  0.52984  0.24364  1.0000
  O   O6        1.0  0.28621  0.56908  0.75636  1.0000
  O   O7        1.0  0.77983  0.56271  0.74364  1.0000
  O   O8        1.0  0.81908  0.03620  0.25637  1.0000
  O   O9        1.0  0.90643  0.32125  0.81483  1.0000
  O   O10       1.0  0.50642  0.09160  0.18517  1.0000
  O   O11       1.0  0.57125  0.65642  0.31482  1.0000
  O   O12       1.0  0.34159  0.25642  0.68518  1.0000
  O   O13       1.0  0.17706  0.41309  0.92799  1.0000
  O   O14       1.0  0.48510  0.24907  0.07201  1.0000
  O   O15       1.0  0.66310  0.92705  0.42799  1.0000
  O   O16       1.0  0.49906  0.23511  0.57201  1.0000
