data_image0
_chemical_formula_structural       Cd2H36C36N8O10
_chemical_formula_sum              "Cd2 H36 C36 N8 O10"
_cell_length_a       9.50561
_cell_length_b       9.49313
_cell_length_c       11.5474
_cell_angle_alpha    74.1229
_cell_angle_beta     81.4438
_cell_angle_gamma    66.1902

_space_group_name_H-M_alt    "P 1"
_space_group_IT_number       1

loop_
  _space_group_symop_operation_xyz
  'x, y, z'

loop_
  _atom_site_type_symbol
  _atom_site_label
  _atom_site_symmetry_multiplicity
  _atom_site_fract_x
  _atom_site_fract_y
  _atom_site_fract_z
  _atom_site_occupancy
  Cd  Cd1       1.0  0.30197  0.69695  0.89461  1.0000
  Cd  Cd2       1.0  0.69803  0.30305  0.10539  1.0000
  H   H1        1.0  0.78464  0.25830  0.38908  1.0000
  H   H2        1.0  0.21536  0.74170  0.61092  1.0000
  H   H3        1.0  0.51956  0.43785  0.61081  1.0000
  H   H4        1.0  0.48044  0.56215  0.38919  1.0000
  H   H5        1.0  0.95937  0.08488  0.53737  1.0000
  H   H6        1.0  0.04063  0.91512  0.46263  1.0000
  H   H7        1.0  0.80360  0.11134  0.90382  1.0000
  H   H8        1.0  0.19640  0.88866  0.09618  1.0000
  H   H9        1.0  0.03512  0.32900  0.22095  1.0000
  H   H10       1.0  0.96488  0.67100  0.77905  1.0000
  H   H11       1.0  0.28080  0.34798  0.05707  1.0000
  H   H12       1.0  0.71920  0.65202  0.94293  1.0000
  H   H13       1.0  0.97164  0.81052  0.07393  1.0000
  H   H14       1.0  0.02836  0.18948  0.92607  1.0000
  H   H15       1.0  0.73268  0.72235  0.19757  1.0000
  H   H16       1.0  0.26732  0.27765  0.80243  1.0000
  H   H17       1.0  0.79627  0.52674  0.28636  1.0000
  H   H18       1.0  0.20374  0.47326  0.71364  1.0000
  H   H19       1.0  0.87749  0.79979  0.30934  1.0000
  H   H20       1.0  0.12251  0.20021  0.69066  1.0000
  H   H21       1.0  0.97113  0.60321  0.39020  1.0000
  H   H22       1.0  0.02887  0.39679  0.60980  1.0000
  H   H23       1.0  0.73605  0.93110  0.46678  1.0000
  H   H24       1.0  0.26395  0.06890  0.53322  1.0000
  H   H25       1.0  0.86312  0.75899  0.56145  1.0000
  H   H26       1.0  0.13688  0.24101  0.43855  1.0000
  H   H27       1.0  0.61933  0.77199  0.40688  1.0000
  H   H28       1.0  0.38067  0.22801  0.59312  1.0000
  H   H29       1.0  0.73695  0.59703  0.50460  1.0000
  H   H30       1.0  0.26305  0.40297  0.49540  1.0000
  H   H31       1.0  0.68514  0.00740  0.68360  1.0000
  H   H32       1.0  0.31485  0.99260  0.31640  1.0000
  H   H33       1.0  0.46004  0.97203  0.86079  1.0000
  H   H34       1.0  0.53995  0.02797  0.13921  1.0000
  H   H35       1.0  0.52133  0.67750  0.62816  1.0000
  H   H36       1.0  0.47867  0.32250  0.37184  1.0000
  C   C1        1.0  0.62596  0.33917  0.64198  1.0000
  C   C2        1.0  0.37404  0.66083  0.35802  1.0000
  C   C3        1.0  0.87220  0.13982  0.60132  1.0000
  C   C4        1.0  0.12780  0.86018  0.39868  1.0000
  C   C5        1.0  0.73714  0.26757  0.55923  1.0000
  C   C6        1.0  0.26286  0.73243  0.44077  1.0000
  C   C7        1.0  0.89582  0.08406  0.72514  1.0000
  C   C8        1.0  0.10418  0.91594  0.27486  1.0000
  C   C9        1.0  0.78496  0.15551  0.80766  1.0000
  C   C10       1.0  0.21504  0.84449  0.19234  1.0000
  C   C11       1.0  0.64985  0.28310  0.76566  1.0000
  C   C12       1.0  0.35015  0.71690  0.23434  1.0000
  C   C13       1.0  0.53057  0.36475  0.85260  1.0000
  C   C14       1.0  0.46943  0.63525  0.14740  1.0000
  C   C15       1.0  0.03961  0.94577  0.76993  1.0000
  C   C16       1.0  0.96039  0.05423  0.23007  1.0000
  C   C17       1.0  0.06208  0.42902  0.16736  1.0000
  C   C18       1.0  0.93792  0.57098  0.83264  1.0000
  C   C19       1.0  0.17947  0.44010  0.08481  1.0000
  C   C20       1.0  0.82053  0.55990  0.91519  1.0000
  C   C21       1.0  0.02281  0.68216  0.08912  1.0000
  C   C22       1.0  0.97719  0.31784  0.91088  1.0000
  C   C23       1.0  0.82899  0.62924  0.25023  1.0000
  C   C24       1.0  0.17101  0.37076  0.74977  1.0000
  C   C25       1.0  0.86121  0.68806  0.35015  1.0000
  C   C26       1.0  0.13879  0.31194  0.64985  1.0000
  C   C27       1.0  0.74800  0.81348  0.52395  1.0000
  C   C28       1.0  0.25200  0.18652  0.47605  1.0000
  C   C29       1.0  0.73216  0.71276  0.44811  1.0000
  C   C30       1.0  0.26784  0.28724  0.55189  1.0000
  C   C31       1.0  0.61644  0.93630  0.69855  1.0000
  C   C32       1.0  0.38356  0.06371  0.30145  1.0000
  C   C33       1.0  0.50485  0.91812  0.78469  1.0000
  C   C34       1.0  0.49515  0.08187  0.21531  1.0000
  C   C35       1.0  0.53474  0.76240  0.66741  1.0000
  C   C36       1.0  0.46526  0.23760  0.33259  1.0000
  N   N1        1.0  0.96404  0.58301  0.16878  1.0000
  N   N2        1.0  0.03596  0.41699  0.83122  1.0000
  N   N3        1.0  0.15330  0.59828  0.03682  1.0000
  N   N4        1.0  0.84670  0.40172  0.96318  1.0000
  N   N5        1.0  0.45464  0.81006  0.76401  1.0000
  N   N6        1.0  0.54537  0.18994  0.23599  1.0000
  N   N7        1.0  0.63394  0.83717  0.62456  1.0000
  N   N8        1.0  0.36606  0.16283  0.37544  1.0000
  O   O1        1.0  0.42016  0.49041  0.80550  1.0000
  O   O2        1.0  0.57984  0.50959  0.19450  1.0000
  O   O3        1.0  0.54490  0.30551  0.96508  1.0000
  O   O4        1.0  0.45510  0.69449  0.03492  1.0000
  O   O5        1.0  0.09947  0.83634  0.71238  1.0000
  O   O6        1.0  0.90053  0.16366  0.28762  1.0000
  O   O7        1.0  0.09315  0.94377  0.86544  1.0000
  O   O8        1.0  0.90685  0.05623  0.13456  1.0000
  O   O9        1.0  0.70794  0.32641  0.44025  1.0000
  O   O10       1.0  0.29206  0.67359  0.55975  1.0000
