data_image0
_chemical_formula_structural       Mn2H36C36N8O10
_chemical_formula_sum              "Mn2 H36 C36 N8 O10"
_cell_length_a       9.34584
_cell_length_b       9.50379
_cell_length_c       11.4301
_cell_angle_alpha    74.0597
_cell_angle_beta     81.5788
_cell_angle_gamma    65.5004

_space_group_name_H-M_alt    "P 1"
_space_group_IT_number       1

loop_
  _space_group_symop_operation_xyz
  'x, y, z'

loop_
  _atom_site_type_symbol
  _atom_site_label
  _atom_site_symmetry_multiplicity
  _atom_site_fract_x
  _atom_site_fract_y
  _atom_site_fract_z
  _atom_site_occupancy
  Mn  Mn1       1.0  0.69253  0.80303  0.60740  1.0000
  Mn  Mn2       1.0  0.30747  0.19697  0.39260  1.0000
  H   H1        1.0  0.21919  0.23517  0.10988  1.0000
  H   H2        1.0  0.78081  0.76483  0.89012  1.0000
  H   H3        1.0  0.18605  0.39284  0.58996  1.0000
  H   H4        1.0  0.81395  0.60715  0.41004  1.0000
  H   H5        1.0  0.04122  0.41887  0.96167  1.0000
  H   H6        1.0  0.95878  0.58114  0.03833  1.0000
  H   H7        1.0  0.48203  0.05461  0.88239  1.0000
  H   H8        1.0  0.51797  0.94540  0.11761  1.0000
  H   H9        1.0  0.03312  0.68583  0.43664  1.0000
  H   H10       1.0  0.96688  0.31417  0.56336  1.0000
  H   H11       1.0  0.95025  0.17102  0.28403  1.0000
  H   H12       1.0  0.04975  0.82898  0.71597  1.0000
  H   H13       1.0  0.70645  0.14778  0.45307  1.0000
  H   H14       1.0  0.29355  0.85222  0.54693  1.0000
  H   H15       1.0  0.47932  0.82229  0.87609  1.0000
  H   H16       1.0  0.52068  0.17771  0.12391  1.0000
  H   H17       1.0  0.31911  0.49233  0.81547  1.0000
  H   H18       1.0  0.68088  0.50767  0.18453  1.0000
  H   H19       1.0  0.55079  0.52723  0.63986  1.0000
  H   H20       1.0  0.44920  0.47277  0.36014  1.0000
  H   H21       1.0  0.13345  0.73972  0.94069  1.0000
  H   H22       1.0  0.86655  0.26028  0.05931  1.0000
  H   H23       1.0  0.26621  0.56766  0.03661  1.0000
  H   H24       1.0  0.73379  0.43234  0.96339  1.0000
  H   H25       1.0  0.26970  0.78229  0.30676  1.0000
  H   H26       1.0  0.73030  0.21771  0.69324  1.0000
  H   H27       1.0  0.19461  0.97794  0.21584  1.0000
  H   H28       1.0  0.80539  0.02206  0.78417  1.0000
  H   H29       1.0  0.02172  0.88938  0.11700  1.0000
  H   H30       1.0  0.97828  0.11062  0.88300  1.0000
  H   H31       1.0  0.12809  0.69382  0.19874  1.0000
  H   H32       1.0  0.87191  0.30618  0.80126  1.0000
  H   H33       1.0  0.25546  0.90554  0.99752  1.0000
  H   H34       1.0  0.74454  0.09446  0.00248  1.0000
  H   H35       1.0  0.38235  0.73062  0.09437  1.0000
  H   H36       1.0  0.61765  0.26938  0.90562  1.0000
  C   C1        1.0  0.95286  0.56383  0.72884  1.0000
  C   C2        1.0  0.04714  0.43617  0.27116  1.0000
  C   C3        1.0  0.09938  0.42130  0.77139  1.0000
  C   C4        1.0  0.90062  0.57870  0.22861  1.0000
  C   C5        1.0  0.26379  0.22950  0.93689  1.0000
  C   C6        1.0  0.73621  0.77050  0.06311  1.0000
  C   C7        1.0  0.20803  0.34761  0.68674  1.0000
  C   C8        1.0  0.79197  0.65239  0.31326  1.0000
  C   C9        1.0  0.12701  0.36244  0.89603  1.0000
  C   C10       1.0  0.87299  0.63756  0.10397  1.0000
  C   C11       1.0  0.34555  0.21519  0.72749  1.0000
  C   C12       1.0  0.65446  0.78481  0.27251  1.0000
  C   C13       1.0  0.37366  0.15640  0.85202  1.0000
  C   C14       1.0  0.62634  0.84361  0.14798  1.0000
  C   C15       1.0  0.46198  0.13302  0.63798  1.0000
  C   C16       1.0  0.53802  0.86698  0.36201  1.0000
  C   C17       1.0  0.97642  0.81461  0.42063  1.0000
  C   C18       1.0  0.02358  0.18539  0.57937  1.0000
  C   C19       1.0  0.92724  0.06950  0.33955  1.0000
  C   C20       1.0  0.07276  0.93050  0.66045  1.0000
  C   C21       1.0  0.81109  0.05601  0.42504  1.0000
  C   C22       1.0  0.18891  0.94400  0.57496  1.0000
  C   C23       1.0  0.46803  0.73745  0.83529  1.0000
  C   C24       1.0  0.53197  0.26255  0.16471  1.0000
  C   C25       1.0  0.38807  0.56350  0.80175  1.0000
  C   C26       1.0  0.61192  0.43650  0.19825  1.0000
  C   C27       1.0  0.50271  0.58164  0.71636  1.0000
  C   C28       1.0  0.49729  0.41836  0.28364  1.0000
  C   C29       1.0  0.25144  0.68592  0.97846  1.0000
  C   C30       1.0  0.74856  0.31409  0.02154  1.0000
  C   C31       1.0  0.16767  0.87220  0.25444  1.0000
  C   C32       1.0  0.83233  0.12780  0.74556  1.0000
  C   C33       1.0  0.13709  0.80860  0.15569  1.0000
  C   C34       1.0  0.86291  0.19140  0.84431  1.0000
  C   C35       1.0  0.26553  0.78805  0.05459  1.0000
  C   C36       1.0  0.73447  0.21195  0.94541  1.0000
  N   N1        1.0  0.84311  0.89649  0.47539  1.0000
  N   N2        1.0  0.15689  0.10351  0.52461  1.0000
  N   N3        1.0  0.03113  0.91568  0.33804  1.0000
  N   N4        1.0  0.96887  0.08432  0.66196  1.0000
  N   N5        1.0  0.55187  0.69019  0.73814  1.0000
  N   N6        1.0  0.44813  0.30981  0.26186  1.0000
  N   N7        1.0  0.36764  0.66278  0.87701  1.0000
  N   N8        1.0  0.63236  0.33722  0.12298  1.0000
  O   O1        1.0  0.57784  0.00484  0.68021  1.0000
  O   O2        1.0  0.42216  0.99515  0.31979  1.0000
  O   O3        1.0  0.44015  0.19515  0.52455  1.0000
  O   O4        1.0  0.55986  0.80485  0.47545  1.0000
  O   O5        1.0  0.89134  0.57043  0.63384  1.0000
  O   O6        1.0  0.10866  0.42957  0.36616  1.0000
  O   O7        1.0  0.89687  0.67323  0.78731  1.0000
  O   O8        1.0  0.10313  0.32677  0.21269  1.0000
  O   O9        1.0  0.29562  0.16706  0.05680  1.0000
  O   O10       1.0  0.70438  0.83294  0.94320  1.0000
