data_image0
_chemical_formula_structural       Ni2H36C36N8O10
_chemical_formula_sum              "Ni2 H36 C36 N8 O10"
_cell_length_a       8.79588
_cell_length_b       9.7334
_cell_length_c       11.5266
_cell_angle_alpha    73.2573
_cell_angle_beta     80.0855
_cell_angle_gamma    66.7157

_space_group_name_H-M_alt    "P 1"
_space_group_IT_number       1

loop_
  _space_group_symop_operation_xyz
  'x, y, z'

loop_
  _atom_site_type_symbol
  _atom_site_label
  _atom_site_symmetry_multiplicity
  _atom_site_fract_x
  _atom_site_fract_y
  _atom_site_fract_z
  _atom_site_occupancy
  Ni  Ni1       1.0  0.79270  0.18955  0.37239  1.0000
  Ni  Ni2       1.0  0.20730  0.81046  0.62761  1.0000
  H   H1        1.0  0.28994  0.77947  0.88914  1.0000
  H   H2        1.0  0.71006  0.22053  0.11086  1.0000
  H   H3        1.0  0.30461  0.59982  0.40719  1.0000
  H   H4        1.0  0.69539  0.40018  0.59282  1.0000
  H   H5        1.0  0.02035  0.95415  0.12043  1.0000
  H   H6        1.0  0.97965  0.04585  0.87957  1.0000
  H   H7        1.0  0.45113  0.58213  0.03253  1.0000
  H   H8        1.0  0.54887  0.41786  0.96748  1.0000
  H   H9        1.0  0.91683  0.45323  0.35783  1.0000
  H   H10       1.0  0.08318  0.54677  0.64218  1.0000
  H   H11       1.0  0.15822  0.50688  0.17836  1.0000
  H   H12       1.0  0.84179  0.49311  0.82164  1.0000
  H   H13       1.0  0.02308  0.15706  0.12690  1.0000
  H   H14       1.0  0.97691  0.84295  0.87309  1.0000
  H   H15       1.0  0.37153  0.26250  0.05447  1.0000
  H   H16       1.0  0.62847  0.73749  0.94553  1.0000
  H   H17       1.0  0.23368  0.42941  0.96199  1.0000
  H   H18       1.0  0.76633  0.57059  0.03801  1.0000
  H   H19       1.0  0.10930  0.26919  0.90535  1.0000
  H   H20       1.0  0.89069  0.73082  0.09465  1.0000
  H   H21       1.0  0.24546  0.09966  0.99573  1.0000
  H   H22       1.0  0.75453  0.90034  0.00426  1.0000
  H   H23       1.0  0.37431  0.31662  0.79165  1.0000
  H   H24       1.0  0.62569  0.68339  0.20834  1.0000
  H   H25       1.0  0.48891  0.12742  0.86909  1.0000
  H   H26       1.0  0.51108  0.87259  0.13090  1.0000
  H   H27       1.0  0.29608  0.03992  0.78126  1.0000
  H   H28       1.0  0.70391  0.96009  0.21873  1.0000
  H   H29       1.0  0.22350  0.22884  0.68864  1.0000
  H   H30       1.0  0.77649  0.77116  0.31135  1.0000
  H   H31       1.0  0.46696  0.31484  0.53580  1.0000
  H   H32       1.0  0.53304  0.68517  0.46420  1.0000
  H   H33       1.0  0.55693  0.84929  0.72240  1.0000
  H   H34       1.0  0.44306  0.15071  0.27760  1.0000
  H   H35       1.0  0.80735  0.86340  0.53848  1.0000
  H   H36       1.0  0.19264  0.13660  0.46152  1.0000
  C   C1        1.0  0.53257  0.42136  0.25665  1.0000
  C   C2        1.0  0.46743  0.57864  0.74336  1.0000
  C   C3        1.0  0.39269  0.57348  0.22391  1.0000
  C   C4        1.0  0.60731  0.42651  0.77610  1.0000
  C   C5        1.0  0.28700  0.64779  0.31060  1.0000
  C   C6        1.0  0.71300  0.35221  0.68940  1.0000
  C   C7        1.0  0.15322  0.78591  0.27255  1.0000
  C   C8        1.0  0.84678  0.21409  0.72746  1.0000
  C   C9        1.0  0.12751  0.84994  0.14903  1.0000
  C   C10       1.0  0.87249  0.15006  0.85096  1.0000
  C   C11       1.0  0.23703  0.77783  0.06206  1.0000
  C   C12       1.0  0.76297  0.22216  0.93795  1.0000
  C   C13       1.0  0.36772  0.63858  0.10014  1.0000
  C   C14       1.0  0.63228  0.36141  0.89986  1.0000
  C   C15       1.0  0.03930  0.86470  0.36717  1.0000
  C   C16       1.0  0.96070  0.13530  0.63284  1.0000
  C   C17       1.0  0.97209  0.40308  0.28103  1.0000
  C   C18       1.0  0.02791  0.59692  0.71897  1.0000
  C   C19       1.0  0.09146  0.42984  0.19363  1.0000
  C   C20       1.0  0.90855  0.57015  0.80638  1.0000
  C   C21       1.0  0.02599  0.24505  0.16488  1.0000
  C   C22       1.0  0.97402  0.75495  0.83512  1.0000
  C   C23       1.0  0.24824  0.31291  0.01797  1.0000
  C   C24       1.0  0.75176  0.68709  0.98203  1.0000
  C   C25       1.0  0.23343  0.21603  0.94066  1.0000
  C   C26       1.0  0.76656  0.78397  0.05933  1.0000
  C   C27       1.0  0.36610  0.20321  0.83518  1.0000
  C   C28       1.0  0.63389  0.79680  0.16481  1.0000
  C   C29       1.0  0.32937  0.14157  0.73950  1.0000
  C   C30       1.0  0.67063  0.85844  0.26050  1.0000
  C   C31       1.0  0.52576  0.19045  0.55965  1.0000
  C   C32       1.0  0.47424  0.80955  0.44035  1.0000
  C   C33       1.0  0.57907  0.94623  0.65759  1.0000
  C   C34       1.0  0.42092  0.05377  0.34241  1.0000
  C   C35       1.0  0.69737  0.95366  0.56399  1.0000
  C   C36       1.0  0.30263  0.04634  0.43601  1.0000
  N   N1        1.0  0.47162  0.09605  0.65338  1.0000
  N   N2        1.0  0.52837  0.90396  0.34662  1.0000
  N   N3        1.0  0.66245  0.10680  0.50297  1.0000
  N   N4        1.0  0.33754  0.89320  0.49703  1.0000
  N   N5        1.0  0.93292  0.28735  0.26203  1.0000
  N   N6        1.0  0.06708  0.71265  0.73797  1.0000
  N   N7        1.0  0.12336  0.32961  0.12041  1.0000
  N   N8        1.0  0.87664  0.67039  0.87959  1.0000
  O   O1        1.0  0.56529  0.32945  0.18946  1.0000
  O   O2        1.0  0.43471  0.67053  0.81054  1.0000
  O   O3        1.0  0.61053  0.39460  0.35066  1.0000
  O   O4        1.0  0.38948  0.60540  0.64934  1.0000
  O   O5        1.0  0.05293  0.79332  0.47652  1.0000
  O   O6        1.0  0.94707  0.20668  0.52348  1.0000
  O   O7        1.0  0.93581  0.00173  0.32351  1.0000
  O   O8        1.0  0.06419  0.99827  0.67649  1.0000
  O   O9        1.0  0.21146  0.84655  0.94258  1.0000
  O   O10       1.0  0.78854  0.15345  0.05742  1.0000
