data_image0
_chemical_formula_structural       Cd4H24C36O20
_chemical_formula_sum              "Cd4 H24 C36 O20"
_cell_length_a       6.55889
_cell_length_b       7.72727
_cell_length_c       16.9525
_cell_angle_alpha    89.9996
_cell_angle_beta     90.0001
_cell_angle_gamma    107.781

_space_group_name_H-M_alt    "P 1"
_space_group_IT_number       1

loop_
  _space_group_symop_operation_xyz
  'x, y, z'

loop_
  _atom_site_type_symbol
  _atom_site_label
  _atom_site_symmetry_multiplicity
  _atom_site_fract_x
  _atom_site_fract_y
  _atom_site_fract_z
  _atom_site_occupancy
  Cd  Cd1       1.0  0.90317  0.21660  0.52691  1.0000
  Cd  Cd2       1.0  0.59683  0.78340  0.02691  1.0000
  Cd  Cd3       1.0  0.09683  0.78340  0.47309  1.0000
  Cd  Cd4       1.0  0.40317  0.21660  0.97309  1.0000
  H   H1        1.0  0.78014  0.87282  0.76642  1.0000
  H   H2        1.0  0.71986  0.12718  0.26642  1.0000
  H   H3        1.0  0.21985  0.12718  0.23358  1.0000
  H   H4        1.0  0.28014  0.87282  0.73358  1.0000
  H   H5        1.0  0.52651  0.29271  0.79257  1.0000
  H   H6        1.0  0.97348  0.70729  0.29257  1.0000
  H   H7        1.0  0.47349  0.70729  0.20743  1.0000
  H   H8        1.0  0.02652  0.29271  0.70743  1.0000
  H   H9        1.0  0.63631  0.52942  0.56090  1.0000
  H   H10       1.0  0.86370  0.47058  0.06090  1.0000
  H   H11       1.0  0.36369  0.47058  0.43910  1.0000
  H   H12       1.0  0.13630  0.52942  0.93910  1.0000
  H   H13       1.0  0.52098  0.10455  0.67478  1.0000
  H   H14       1.0  0.97902  0.89546  0.17478  1.0000
  H   H15       1.0  0.47902  0.89545  0.32522  1.0000
  H   H16       1.0  0.02098  0.10455  0.82522  1.0000
  H   H17       1.0  0.29950  0.16546  0.63757  1.0000
  H   H18       1.0  0.20051  0.83454  0.13756  1.0000
  H   H19       1.0  0.70050  0.83454  0.36244  1.0000
  H   H20       1.0  0.79949  0.16545  0.86244  1.0000
  H   H21       1.0  0.43271  0.18187  0.52082  1.0000
  H   H22       1.0  0.06729  0.81813  0.02081  1.0000
  H   H23       1.0  0.56729  0.81813  0.47919  1.0000
  H   H24       1.0  0.93271  0.18187  0.97919  1.0000
  C   C1        1.0  0.79873  0.88036  0.60698  1.0000
  C   C2        1.0  0.70127  0.11964  0.10698  1.0000
  C   C3        1.0  0.20127  0.11964  0.39302  1.0000
  C   C4        1.0  0.29873  0.88035  0.89302  1.0000
  C   C5        1.0  0.71878  0.71818  0.65837  1.0000
  C   C6        1.0  0.78123  0.28182  0.15837  1.0000
  C   C7        1.0  0.28122  0.28183  0.34163  1.0000
  C   C8        1.0  0.21877  0.71818  0.84163  1.0000
  C   C9        1.0  0.72265  0.73821  0.74036  1.0000
  C   C10       1.0  0.77735  0.26179  0.24036  1.0000
  C   C11       1.0  0.27735  0.26179  0.25964  1.0000
  C   C12       1.0  0.22265  0.73821  0.75964  1.0000
  C   C13       1.0  0.65395  0.58522  0.78899  1.0000
  C   C14       1.0  0.84604  0.41477  0.28899  1.0000
  C   C15       1.0  0.34604  0.41478  0.21101  1.0000
  C   C16       1.0  0.15396  0.58523  0.71101  1.0000
  C   C17       1.0  0.57918  0.41248  0.75493  1.0000
  C   C18       1.0  0.92082  0.58752  0.25493  1.0000
  C   C19       1.0  0.42082  0.58752  0.24507  1.0000
  C   C20       1.0  0.07918  0.41248  0.74507  1.0000
  C   C21       1.0  0.56812  0.39147  0.67290  1.0000
  C   C22       1.0  0.93189  0.60853  0.17290  1.0000
  C   C23       1.0  0.43188  0.60852  0.32710  1.0000
  C   C24       1.0  0.06811  0.39147  0.82710  1.0000
  C   C25       1.0  0.63987  0.54453  0.62484  1.0000
  C   C26       1.0  0.86014  0.45548  0.12484  1.0000
  C   C27       1.0  0.36013  0.45547  0.37516  1.0000
  C   C28       1.0  0.13986  0.54453  0.87517  1.0000
  C   C29       1.0  0.65613  0.60838  0.87660  1.0000
  C   C30       1.0  0.84387  0.39162  0.37659  1.0000
  C   C31       1.0  0.34388  0.39163  0.12340  1.0000
  C   C32       1.0  0.15613  0.60838  0.62341  1.0000
  C   C33       1.0  0.47569  0.20424  0.63813  1.0000
  C   C34       1.0  0.02431  0.79576  0.13813  1.0000
  C   C35       1.0  0.52431  0.79576  0.36187  1.0000
  C   C36       1.0  0.97569  0.20424  0.86187  1.0000
  O   O1        1.0  0.79217  0.86006  0.53086  1.0000
  O   O2        1.0  0.70782  0.13993  0.03086  1.0000
  O   O3        1.0  0.20782  0.13993  0.46914  1.0000
  O   O4        1.0  0.29218  0.86007  0.96914  1.0000
  O   O5        1.0  0.87073  0.03712  0.63781  1.0000
  O   O6        1.0  0.62928  0.96288  0.13781  1.0000
  O   O7        1.0  0.12926  0.96288  0.36219  1.0000
  O   O8        1.0  0.37073  0.03711  0.86219  1.0000
  O   O9        1.0  0.69114  0.77088  0.90203  1.0000
  O   O10       1.0  0.80887  0.22912  0.40203  1.0000
  O   O11       1.0  0.30887  0.22913  0.09797  1.0000
  O   O12       1.0  0.19113  0.77088  0.59797  1.0000
  O   O13       1.0  0.62502  0.47196  0.92225  1.0000
  O   O14       1.0  0.87497  0.52803  0.42224  1.0000
  O   O15       1.0  0.37497  0.52804  0.07775  1.0000
  O   O16       1.0  0.12503  0.47198  0.57775  1.0000
  O   O17       1.0  0.55033  0.19302  0.55959  1.0000
  O   O18       1.0  0.94967  0.80698  0.05959  1.0000
  O   O19       1.0  0.44967  0.80698  0.44041  1.0000
  O   O20       1.0  0.05033  0.19302  0.94041  1.0000
