data_image0
_chemical_formula_structural       Co2H44C56N4O20
_chemical_formula_sum              "Co2 H44 C56 N4 O20"
_cell_length_a       8.98617
_cell_length_b       11.408
_cell_length_c       13.172
_cell_angle_alpha    115.702
_cell_angle_beta     98.6603
_cell_angle_gamma    90.0288

_space_group_name_H-M_alt    "P 1"
_space_group_IT_number       1

loop_
  _space_group_symop_operation_xyz
  'x, y, z'

loop_
  _atom_site_type_symbol
  _atom_site_label
  _atom_site_symmetry_multiplicity
  _atom_site_fract_x
  _atom_site_fract_y
  _atom_site_fract_z
  _atom_site_occupancy
  Co  Co1       1.0  1.00000  0.50000  0.00001  1.0000
  Co  Co2       1.0  0.50000  0.49999  1.00000  1.0000
  H   H1        1.0  0.83538  0.72690  0.10101  1.0000
  H   H2        1.0  0.66310  0.62900  0.89955  1.0000
  H   H3        1.0  0.16461  0.27311  0.89899  1.0000
  H   H4        1.0  0.33691  0.37099  0.10045  1.0000
  H   H5        1.0  0.85939  0.92121  0.28722  1.0000
  H   H6        1.0  0.63778  0.63793  0.71394  1.0000
  H   H7        1.0  0.14060  0.07879  0.71278  1.0000
  H   H8        1.0  0.36223  0.36207  0.28607  1.0000
  H   H9        1.0  0.23838  0.75549  0.40819  1.0000
  H   H10       1.0  0.26547  0.34434  0.59058  1.0000
  H   H11       1.0  0.76159  0.24452  0.59182  1.0000
  H   H12       1.0  0.73454  0.65567  0.40942  1.0000
  H   H13       1.0  0.20182  0.57004  0.21477  1.0000
  H   H14       1.0  0.30163  0.35251  0.78370  1.0000
  H   H15       1.0  0.79816  0.42998  0.78525  1.0000
  H   H16       1.0  0.69837  0.64749  0.21630  1.0000
  H   H17       1.0  0.12890  0.93622  0.54426  1.0000
  H   H18       1.0  0.36855  0.39413  0.45611  1.0000
  H   H19       1.0  0.87108  0.06378  0.45574  1.0000
  H   H20       1.0  0.63146  0.60587  0.54390  1.0000
  H   H21       1.0  0.15286  0.04566  0.48575  1.0000
  H   H22       1.0  0.34906  0.56295  0.51556  1.0000
  H   H23       1.0  0.84711  0.95435  0.51425  1.0000
  H   H24       1.0  0.65094  0.43705  0.48444  1.0000
  H   H25       1.0  0.88590  0.85345  0.01492  1.0000
  H   H26       1.0  0.61243  0.83911  0.98488  1.0000
  H   H27       1.0  0.11409  0.14655  0.98508  1.0000
  H   H28       1.0  0.38757  0.16088  0.01511  1.0000
  H   H29       1.0  0.75693  0.04752  0.80211  1.0000
  H   H30       1.0  0.74598  0.24539  0.19924  1.0000
  H   H31       1.0  0.24309  0.95249  0.19789  1.0000
  H   H32       1.0  0.25403  0.75459  0.80075  1.0000
  H   H33       1.0  0.85525  0.86565  0.64135  1.0000
  H   H34       1.0  0.64799  0.22410  0.35974  1.0000
  H   H35       1.0  0.14479  0.13437  0.35866  1.0000
  H   H36       1.0  0.35203  0.77589  0.64026  1.0000
  H   H37       1.0  0.78241  0.43516  0.06679  1.0000
  H   H38       1.0  0.71841  0.36867  0.93453  1.0000
  H   H39       1.0  0.21759  0.56484  0.93321  1.0000
  H   H40       1.0  0.28159  0.63131  0.06547  1.0000
  H   H41       1.0  0.96358  0.45593  0.55548  1.0000
  H   H42       1.0  0.53465  0.89986  0.44328  1.0000
  H   H43       1.0  0.03646  0.54407  0.44451  1.0000
  H   H44       1.0  0.46534  0.10013  0.55672  1.0000
  C   C1        1.0  0.92520  0.73913  0.17080  1.0000
  C   C2        1.0  0.57391  0.57037  0.82964  1.0000
  C   C3        1.0  0.07479  0.26088  0.82920  1.0000
  C   C4        1.0  0.42609  0.42963  0.17036  1.0000
  C   C5        1.0  0.93920  0.84665  0.27636  1.0000
  C   C6        1.0  0.55939  0.57270  0.72426  1.0000
  C   C7        1.0  0.06079  0.15336  0.72364  1.0000
  C   C8        1.0  0.44061  0.42730  0.27575  1.0000
  C   C9        1.0  0.05229  0.85630  0.36590  1.0000
  C   C10       1.0  0.44773  0.49130  0.63422  1.0000
  C   C11       1.0  0.94768  0.14370  0.63411  1.0000
  C   C12       1.0  0.55227  0.50871  0.36578  1.0000
  C   C13       1.0  0.14787  0.75430  0.34246  1.0000
  C   C14       1.0  0.35430  0.41068  0.65695  1.0000
  C   C15       1.0  0.85210  0.24571  0.65754  1.0000
  C   C16       1.0  0.64570  0.58933  0.34304  1.0000
  C   C17       1.0  0.12886  0.65020  0.23480  1.0000
  C   C18       1.0  0.37341  0.41424  0.76455  1.0000
  C   C19       1.0  0.87113  0.34981  0.76521  1.0000
  C   C20       1.0  0.62659  0.58576  0.23544  1.0000
  C   C21       1.0  0.07322  0.96976  0.48240  1.0000
  C   C22       1.0  0.42653  0.48868  0.51799  1.0000
  C   C23       1.0  0.92676  0.03025  0.51760  1.0000
  C   C24       1.0  0.57348  0.51133  0.48202  1.0000
  C   C25       1.0  0.92983  0.75377  0.84361  1.0000
  C   C26       1.0  0.56921  0.91041  0.15628  1.0000
  C   C27       1.0  0.07015  0.24623  0.15638  1.0000
  C   C28       1.0  0.43079  0.08957  0.84372  1.0000
  C   C29       1.0  0.87398  0.85469  0.93201  1.0000
  C   C30       1.0  0.62508  0.92305  0.06799  1.0000
  C   C31       1.0  0.12602  0.14531  0.06799  1.0000
  C   C32       1.0  0.37493  0.07694  0.93201  1.0000
  C   C33       1.0  0.80708  0.95673  0.91523  1.0000
  C   C34       1.0  0.69308  0.04174  0.08513  1.0000
  C   C35       1.0  0.19291  0.04327  0.08476  1.0000
  C   C36       1.0  0.30691  0.95826  0.91486  1.0000
  C   C37       1.0  0.80439  0.96409  0.81165  1.0000
  C   C38       1.0  0.69726  0.15253  0.18916  1.0000
  C   C39       1.0  0.19562  0.03592  0.18835  1.0000
  C   C40       1.0  0.30273  0.84747  0.81082  1.0000
  C   C41       1.0  0.86086  0.86368  0.72379  1.0000
  C   C42       1.0  0.64082  0.13993  0.27694  1.0000
  C   C43       1.0  0.13916  0.13633  0.27620  1.0000
  C   C44       1.0  0.35919  0.86006  0.72305  1.0000
  C   C45       1.0  0.92005  0.75569  0.73627  1.0000
  C   C46       1.0  0.58010  0.01964  0.26386  1.0000
  C   C47       1.0  0.07995  0.24432  0.26373  1.0000
  C   C48       1.0  0.41990  0.98035  0.73614  1.0000
  C   C49       1.0  0.95921  0.64561  0.63346  1.0000
  C   C50       1.0  0.54075  0.01220  0.36643  1.0000
  C   C51       1.0  0.04080  0.35439  0.36654  1.0000
  C   C52       1.0  0.45926  0.98778  0.63356  1.0000
  C   C53       1.0  0.00915  0.65419  0.87408  1.0000
  C   C54       1.0  0.48962  0.78025  0.12556  1.0000
  C   C55       1.0  0.99084  0.34581  0.12592  1.0000
  C   C56       1.0  0.51037  0.21975  0.87443  1.0000
  N   N1        1.0  0.01907  0.64178  0.14921  1.0000
  N   N2        1.0  0.48162  0.49300  0.85082  1.0000
  N   N3        1.0  0.98092  0.35823  0.85079  1.0000
  N   N4        1.0  0.51839  0.50699  0.14918  1.0000
  O   O1        1.0  0.93855  0.61851  0.93555  1.0000
  O   O2        1.0  0.56099  0.68309  0.06494  1.0000
  O   O3        1.0  0.06145  0.38149  0.06445  1.0000
  O   O4        1.0  0.43901  0.31690  0.93506  1.0000
  O   O5        1.0  0.75039  0.45709  0.00058  1.0000
  O   O6        1.0  0.24961  0.54290  0.99942  1.0000
  O   O7        1.0  0.13466  0.61946  0.84461  1.0000
  O   O8        1.0  0.36344  0.77483  0.15399  1.0000
  O   O9        1.0  0.86534  0.38055  0.15540  1.0000
  O   O10       1.0  0.63656  0.22516  0.84601  1.0000
  O   O11       1.0  0.93485  0.52883  0.62857  1.0000
  O   O12       1.0  0.56324  0.89951  0.37026  1.0000
  O   O13       1.0  0.06520  0.47118  0.37143  1.0000
  O   O14       1.0  0.43678  0.10048  0.62974  1.0000
  O   O15       1.0  0.00403  0.66325  0.55520  1.0000
  O   O16       1.0  0.49732  0.10829  0.44538  1.0000
  O   O17       1.0  0.99601  0.33676  0.44480  1.0000
  O   O18       1.0  0.50268  0.89170  0.55461  1.0000
  O   O19       1.0  0.75017  0.05846  0.00019  1.0000
  O   O20       1.0  0.24982  0.94154  0.99980  1.0000
