data_image0
_chemical_formula_structural       Cd2H22C14N6O12
_chemical_formula_sum              "Cd2 H22 C14 N6 O12"
_cell_length_a       7.56345
_cell_length_b       7.99946
_cell_length_c       10.2748
_cell_angle_alpha    75.3693
_cell_angle_beta     79.4909
_cell_angle_gamma    67.7473

_space_group_name_H-M_alt    "P 1"
_space_group_IT_number       1

loop_
  _space_group_symop_operation_xyz
  'x, y, z'

loop_
  _atom_site_type_symbol
  _atom_site_label
  _atom_site_symmetry_multiplicity
  _atom_site_fract_x
  _atom_site_fract_y
  _atom_site_fract_z
  _atom_site_occupancy
  Cd  Cd1       1.0  0.22708  0.34829  0.09713  1.0000
  Cd  Cd2       1.0  0.77292  0.65171  0.90287  1.0000
  H   H1        1.0  0.97252  0.03265  0.84971  1.0000
  H   H2        1.0  0.02750  0.96735  0.15029  1.0000
  H   H3        1.0  0.79036  0.03259  0.98161  1.0000
  H   H4        1.0  0.20966  0.96741  0.01839  1.0000
  H   H5        1.0  0.26570  0.27689  0.43139  1.0000
  H   H6        1.0  0.73429  0.72311  0.56861  1.0000
  H   H7        1.0  0.97758  0.22710  0.63052  1.0000
  H   H8        1.0  0.02242  0.77289  0.36948  1.0000
  H   H9        1.0  0.80599  0.28198  0.24782  1.0000
  H   H10       1.0  0.19399  0.71803  0.75218  1.0000
  H   H11       1.0  0.68129  0.12515  0.61041  1.0000
  H   H12       1.0  0.31871  0.87486  0.38959  1.0000
  H   H13       1.0  0.59465  0.20054  0.44808  1.0000
  H   H14       1.0  0.40534  0.79945  0.55193  1.0000
  H   H15       1.0  0.58809  0.45016  0.63489  1.0000
  H   H16       1.0  0.41190  0.54984  0.36511  1.0000
  H   H17       1.0  0.39123  0.39709  0.61362  1.0000
  H   H18       1.0  0.60876  0.60292  0.38638  1.0000
  H   H19       1.0  0.52430  0.35659  0.89027  1.0000
  H   H20       1.0  0.47571  0.64341  0.10974  1.0000
  H   H21       1.0  0.43444  0.21759  0.87055  1.0000
  H   H22       1.0  0.56557  0.78241  0.12945  1.0000
  C   C1        1.0  0.87859  0.26545  0.94000  1.0000
  C   C2        1.0  0.12142  0.73455  0.06000  1.0000
  C   C3        1.0  0.92461  0.06139  0.95214  1.0000
  C   C4        1.0  0.07540  0.93861  0.04785  1.0000
  C   C5        1.0  0.12820  0.27035  0.42242  1.0000
  C   C6        1.0  0.87180  0.72964  0.57758  1.0000
  C   C7        1.0  0.98711  0.24542  0.52185  1.0000
  C   C8        1.0  0.01289  0.75458  0.47815  1.0000
  C   C9        1.0  0.89581  0.27304  0.32221  1.0000
  C   C10       1.0  0.10418  0.72696  0.67779  1.0000
  C   C11       1.0  0.65586  0.23747  0.52102  1.0000
  C   C12       1.0  0.34414  0.76253  0.47898  1.0000
  C   C13       1.0  0.52299  0.41944  0.56037  1.0000
  C   C14       1.0  0.47701  0.58056  0.43963  1.0000
  N   N1        1.0  0.06965  0.28729  0.29832  1.0000
  N   N2        1.0  0.93034  0.71272  0.70168  1.0000
  N   N3        1.0  0.84211  0.24669  0.45682  1.0000
  N   N4        1.0  0.15788  0.75332  0.54318  1.0000
  N   N5        1.0  0.57114  0.04441  0.21640  1.0000
  N   N6        1.0  0.42886  0.95559  0.78360  1.0000
  O   O1        1.0  0.97943  0.32493  0.99015  1.0000
  O   O2        1.0  0.02059  0.67507  0.00984  1.0000
  O   O3        1.0  0.39813  0.33952  0.89562  1.0000
  O   O4        1.0  0.60188  0.66048  0.10438  1.0000
  O   O5        1.0  0.73559  0.37878  0.87552  1.0000
  O   O6        1.0  0.26441  0.62122  0.12449  1.0000
  O   O7        1.0  0.45784  0.00547  0.15841  1.0000
  O   O8        1.0  0.54216  0.99453  0.84159  1.0000
  O   O9        1.0  0.53621  0.21387  0.21444  1.0000
  O   O10       1.0  0.46379  0.78613  0.78556  1.0000
  O   O11       1.0  0.70900  0.91943  0.27174  1.0000
  O   O12       1.0  0.29101  0.08057  0.72825  1.0000
